MODEL 1
REMARK VINA RESULT:      -6.9      0.000      0.000
REMARK  Name = Deferoxamine
REMARK  28 active torsions:
REMARK  status: ('A' for Active; 'I' for Inactive)
REMARK    1  A    between atoms: C_1  and  C_2
REMARK    2  A    between atoms: N_4  and  O_5
REMARK    3  A    between atoms: N_4  and  C_6
REMARK    4  A    between atoms: C_6  and  C_7
REMARK    5  A    between atoms: C_7  and  C_8
REMARK    6  A    between atoms: C_8  and  C_9
REMARK    7  A    between atoms: C_9  and  C_10
REMARK    8  A    between atoms: C_10  and  N_11
REMARK    9  A    between atoms: C_12  and  C_14
REMARK   10  A    between atoms: C_14  and  C_15
REMARK   11  A    between atoms: C_15  and  C_16
REMARK   12  A    between atoms: N_18  and  O_19
REMARK   13  A    between atoms: N_18  and  C_20
REMARK   14  A    between atoms: C_20  and  C_21
REMARK   15  A    between atoms: C_21  and  C_22
REMARK   16  A    between atoms: C_22  and  C_23
REMARK   17  A    between atoms: C_23  and  C_24
REMARK   18  A    between atoms: C_24  and  N_25
REMARK   19  A    between atoms: C_26  and  C_28
REMARK   20  A    between atoms: C_28  and  C_29
REMARK   21  A    between atoms: C_29  and  C_30
REMARK   22  A    between atoms: N_32  and  O_33
REMARK   23  A    between atoms: N_32  and  C_34
REMARK   24  A    between atoms: C_34  and  C_35
REMARK   25  A    between atoms: C_35  and  C_36
REMARK   26  A    between atoms: C_36  and  C_37
REMARK   27  A    between atoms: C_37  and  C_38
REMARK   28  A    between atoms: C_38  and  N_39
REMARK                            x       y       z     vdW  Elec       q    Type
REMARK                         _______ _______ _______ _____ _____    ______ ____
ROOT
ATOM      1  C   UNL     1      -8.068   4.499 134.893  0.00  0.00    +0.000 C 
ENDROOT
BRANCH   1   4
ATOM      2  C   UNL     1      -8.573   2.608 133.359  0.00  0.00    +0.000 C 
ATOM      3  O   UNL     1      -7.475   2.090 133.582  0.00  0.00    +0.000 OA
ATOM      4  N   UNL     1      -8.949   3.790 133.958  0.00  0.00    +0.000 N 
BRANCH   4   5
ATOM      5  O   UNL     1     -10.180   4.431 133.750  0.00  0.00    +0.000 OA
ATOM      6  H   UNL     1     -10.851   3.737 133.656  0.00  0.00    +0.000 HD
ENDBRANCH   4   5
BRANCH   2   7
ATOM      7  C   UNL     1      -9.562   1.955 132.407  0.00  0.00    +0.000 C 
BRANCH   7   8
ATOM      8  C   UNL     1      -9.114   2.047 130.940  0.00  0.00    +0.000 C 
BRANCH   8  10
ATOM      9  N   UNL     1     -10.750   3.876 130.925  0.00  0.00    +0.000 N 
ATOM     10  C   UNL     1      -9.681   3.291 130.276  0.00  0.00    +0.000 C 
ATOM     11  O   UNL     1      -9.217   3.746 129.232  0.00  0.00    +0.000 OA
ATOM     12  H   UNL     1     -11.107   3.476 131.786  0.00  0.00    +0.000 HD
BRANCH   9  13
ATOM     13  C   UNL     1     -11.370   5.073 130.378  0.00  0.00    +0.000 C 
BRANCH  13  14
ATOM     14  C   UNL     1     -10.877   6.361 131.030  0.00  0.00    +0.000 C 
BRANCH  14  15
ATOM     15  C   UNL     1     -12.045   7.187 131.586  0.00  0.00    +0.000 C 
BRANCH  15  16
ATOM     16  C   UNL     1     -13.074   7.475 130.493  0.00  0.00    +0.000 C 
BRANCH  16  17
ATOM     17  C   UNL     1     -12.612   8.582 129.546  0.00  0.00    +0.000 C 
BRANCH  17  21
ATOM     18  C   UNL     1     -10.903   7.670 126.232  0.00  0.00    +0.000 C 
ATOM     19  C   UNL     1     -11.067   8.133 127.657  0.00  0.00    +0.000 C 
ATOM     20  O   UNL     1     -10.080   8.476 128.313  0.00  0.00    +0.000 OA
ATOM     21  N   UNL     1     -12.338   8.151 128.173  0.00  0.00    +0.000 N 
BRANCH  21  22
ATOM     22  O   UNL     1     -13.485   7.770 127.460  0.00  0.00    +0.000 OA
ATOM     23  H   UNL     1     -13.274   7.860 126.519  0.00  0.00    +0.000 HD
ENDBRANCH  21  22
ENDBRANCH  17  21
ENDBRANCH  16  17
ENDBRANCH  15  16
ENDBRANCH  14  15
ENDBRANCH  13  14
ENDBRANCH   9  13
ENDBRANCH   8  10
ENDBRANCH   7   8
ENDBRANCH   2   7
ENDBRANCH   1   4
BRANCH   1  24
ATOM     24  C   UNL     1      -7.277   5.666 134.296  0.00  0.00    +0.000 C 
BRANCH  24  25
ATOM     25  C   UNL     1      -7.577   5.865 132.808  0.00  0.00    +0.000 C 
BRANCH  25  26
ATOM     26  C   UNL     1      -6.281   5.919 131.989  0.00  0.00    +0.000 C 
BRANCH  26  27
ATOM     27  C   UNL     1      -6.380   5.062 130.730  0.00  0.00    +0.000 C 
BRANCH  27  28
ATOM     28  N   UNL     1      -5.092   4.571 130.264  0.00  0.00    +0.000 N 
ATOM     29  C   UNL     1      -4.285   5.376 129.485  0.00  0.00    +0.000 C 
ATOM     30  O   UNL     1      -4.612   6.516 129.158  0.00  0.00    +0.000 OA
ATOM     31  H   UNL     1      -4.790   3.637 130.515  0.00  0.00    +0.000 HD
BRANCH  29  32
ATOM     32  C   UNL     1      -2.964   4.760 129.057  0.00  0.00    +0.000 C 
BRANCH  32  33
ATOM     33  C   UNL     1      -2.745   4.921 127.545  0.00  0.00    +0.000 C 
BRANCH  33  34
ATOM     34  C   UNL     1      -3.499   3.879 126.735  0.00  0.00    +0.000 C 
ATOM     35  O   UNL     1      -3.049   2.738 126.601  0.00  0.00    +0.000 OA
ATOM     36  N   UNL     1      -4.691   4.259 126.164  0.00  0.00    +0.000 N 
BRANCH  36  37
ATOM     37  O   UNL     1      -5.260   5.536 126.279  0.00  0.00    +0.000 OA
ATOM     38  H   UNL     1      -6.181   5.470 125.987  0.00  0.00    +0.000 HD
ENDBRANCH  36  37
BRANCH  36  39
ATOM     39  C   UNL     1      -5.495   3.330 125.363  0.00  0.00    +0.000 C 
BRANCH  39  40
ATOM     40  C   UNL     1      -6.317   3.969 124.246  0.00  0.00    +0.000 C 
BRANCH  40  41
ATOM     41  C   UNL     1      -5.480   4.201 122.990  0.00  0.00    +0.000 C 
BRANCH  41  42
ATOM     42  C   UNL     1      -6.258   3.780 121.743  0.00  0.00    +0.000 C 
BRANCH  42  43
ATOM     43  C   UNL     1      -7.588   3.138 122.121  0.00  0.00    +0.000 C 
BRANCH  43  44
ATOM     44  N   UNL     1      -8.678   3.807 121.423  0.00  0.00    +0.000 NA
ATOM     45  H   UNL     1      -9.354   4.157 122.100  0.00  0.00    +0.000 HD
ATOM     46  H   UNL     1      -9.173   3.132 120.842  0.00  0.00    +0.000 HD
ENDBRANCH  43  44
ENDBRANCH  42  43
ENDBRANCH  41  42
ENDBRANCH  40  41
ENDBRANCH  39  40
ENDBRANCH  36  39
ENDBRANCH  33  34
ENDBRANCH  32  33
ENDBRANCH  29  32
ENDBRANCH  27  28
ENDBRANCH  26  27
ENDBRANCH  25  26
ENDBRANCH  24  25
ENDBRANCH   1  24
TORSDOF 27
ENDMDL
MODEL 2
REMARK VINA RESULT:      -6.5      3.804      8.058
REMARK  Name = Deferoxamine
REMARK  28 active torsions:
REMARK  status: ('A' for Active; 'I' for Inactive)
REMARK    1  A    between atoms: C_1  and  C_2
REMARK    2  A    between atoms: N_4  and  O_5
REMARK    3  A    between atoms: N_4  and  C_6
REMARK    4  A    between atoms: C_6  and  C_7
REMARK    5  A    between atoms: C_7  and  C_8
REMARK    6  A    between atoms: C_8  and  C_9
REMARK    7  A    between atoms: C_9  and  C_10
REMARK    8  A    between atoms: C_10  and  N_11
REMARK    9  A    between atoms: C_12  and  C_14
REMARK   10  A    between atoms: C_14  and  C_15
REMARK   11  A    between atoms: C_15  and  C_16
REMARK   12  A    between atoms: N_18  and  O_19
REMARK   13  A    between atoms: N_18  and  C_20
REMARK   14  A    between atoms: C_20  and  C_21
REMARK   15  A    between atoms: C_21  and  C_22
REMARK   16  A    between atoms: C_22  and  C_23
REMARK   17  A    between atoms: C_23  and  C_24
REMARK   18  A    between atoms: C_24  and  N_25
REMARK   19  A    between atoms: C_26  and  C_28
REMARK   20  A    between atoms: C_28  and  C_29
REMARK   21  A    between atoms: C_29  and  C_30
REMARK   22  A    between atoms: N_32  and  O_33
REMARK   23  A    between atoms: N_32  and  C_34
REMARK   24  A    between atoms: C_34  and  C_35
REMARK   25  A    between atoms: C_35  and  C_36
REMARK   26  A    between atoms: C_36  and  C_37
REMARK   27  A    between atoms: C_37  and  C_38
REMARK   28  A    between atoms: C_38  and  N_39
REMARK                            x       y       z     vdW  Elec       q    Type
REMARK                         _______ _______ _______ _____ _____    ______ ____
ROOT
ATOM      1  C   UNL     1      -6.673  -0.657 128.698  0.00  0.00    +0.000 C 
ENDROOT
BRANCH   1   4
ATOM      2  C   UNL     1      -6.271  -1.855 126.557  0.00  0.00    +0.000 C 
ATOM      3  O   UNL     1      -5.322  -2.476 127.043  0.00  0.00    +0.000 OA
ATOM      4  N   UNL     1      -6.991  -0.943 127.294  0.00  0.00    +0.000 N 
BRANCH   4   5
ATOM      5  O   UNL     1      -8.079  -0.204 126.803  0.00  0.00    +0.000 OA
ATOM      6  H   UNL     1      -8.883  -0.593 127.182  0.00  0.00    +0.000 HD
ENDBRANCH   4   5
BRANCH   2   7
ATOM      7  C   UNL     1      -6.685  -2.077 125.110  0.00  0.00    +0.000 C 
BRANCH   7   8
ATOM      8  C   UNL     1      -7.859  -3.059 124.979  0.00  0.00    +0.000 C 
BRANCH   8  10
ATOM      9  N   UNL     1      -8.807  -1.171 123.730  0.00  0.00    +0.000 N 
ATOM     10  C   UNL     1      -8.923  -2.511 124.042  0.00  0.00    +0.000 C 
ATOM     11  O   UNL     1      -9.825  -3.215 123.592  0.00  0.00    +0.000 OA
ATOM     12  H   UNL     1      -8.049  -0.620 124.118  0.00  0.00    +0.000 HD
BRANCH   9  13
ATOM     13  C   UNL     1      -9.771  -0.543 122.840  0.00  0.00    +0.000 C 
BRANCH  13  14
ATOM     14  C   UNL     1      -9.660   0.979 122.807  0.00  0.00    +0.000 C 
BRANCH  14  15
ATOM     15  C   UNL     1      -8.753   1.497 123.931  0.00  0.00    +0.000 C 
BRANCH  15  16
ATOM     16  C   UNL     1      -8.327   2.940 123.662  0.00  0.00    +0.000 C 
BRANCH  16  17
ATOM     17  C   UNL     1      -7.162   3.020 122.675  0.00  0.00    +0.000 C 
BRANCH  17  21
ATOM     18  C   UNL     1      -6.963   4.535 119.154  0.00  0.00    +0.000 C 
ATOM     19  C   UNL     1      -6.519   3.890 120.442  0.00  0.00    +0.000 C 
ATOM     20  O   UNL     1      -5.331   3.605 120.614  0.00  0.00    +0.000 OA
ATOM     21  N   UNL     1      -7.482   3.643 121.388  0.00  0.00    +0.000 N 
BRANCH  21  22
ATOM     22  O   UNL     1      -8.842   3.953 121.230  0.00  0.00    +0.000 OA
ATOM     23  H   UNL     1      -9.025   4.711 121.804  0.00  0.00    +0.000 HD
ENDBRANCH  21  22
ENDBRANCH  17  21
ENDBRANCH  16  17
ENDBRANCH  15  16
ENDBRANCH  14  15
ENDBRANCH  13  14
ENDBRANCH   9  13
ENDBRANCH   8  10
ENDBRANCH   7   8
ENDBRANCH   2   7
ENDBRANCH   1   4
BRANCH   1  24
ATOM     24  C   UNL     1      -7.878  -0.506 129.629  0.00  0.00    +0.000 C 
BRANCH  24  25
ATOM     25  C   UNL     1      -8.221   0.962 129.896  0.00  0.00    +0.000 C 
BRANCH  25  26
ATOM     26  C   UNL     1      -7.877   1.352 131.339  0.00  0.00    +0.000 C 
BRANCH  26  27
ATOM     27  C   UNL     1      -6.544   2.091 131.415  0.00  0.00    +0.000 C 
BRANCH  27  28
ATOM     28  N   UNL     1      -6.660   3.433 131.964  0.00  0.00    +0.000 N 
ATOM     29  C   UNL     1      -6.821   4.515 131.121  0.00  0.00    +0.000 C 
ATOM     30  O   UNL     1      -6.871   4.394 129.898  0.00  0.00    +0.000 OA
ATOM     31  H   UNL     1      -6.622   3.570 132.967  0.00  0.00    +0.000 HD
BRANCH  29  32
ATOM     32  C   UNL     1      -6.930   5.867 131.806  0.00  0.00    +0.000 C 
BRANCH  32  33
ATOM     33  C   UNL     1      -7.854   6.809 131.019  0.00  0.00    +0.000 C 
BRANCH  33  34
ATOM     34  C   UNL     1      -9.323   6.458 131.190  0.00  0.00    +0.000 C 
ATOM     35  O   UNL     1      -9.881   6.594 132.281  0.00  0.00    +0.000 OA
ATOM     36  N   UNL     1      -9.996   5.987 130.086  0.00  0.00    +0.000 N 
BRANCH  36  37
ATOM     37  O   UNL     1      -9.423   5.811 128.817  0.00  0.00    +0.000 OA
ATOM     38  H   UNL     1      -8.667   6.415 128.756  0.00  0.00    +0.000 HD
ENDBRANCH  36  37
BRANCH  36  39
ATOM     39  C   UNL     1     -11.414   5.619 130.144  0.00  0.00    +0.000 C 
BRANCH  39  40
ATOM     40  C   UNL     1     -12.399   6.767 129.934  0.00  0.00    +0.000 C 
BRANCH  40  41
ATOM     41  C   UNL     1     -13.142   6.637 128.606  0.00  0.00    +0.000 C 
BRANCH  41  42
ATOM     42  C   UNL     1     -12.908   7.874 127.737  0.00  0.00    +0.000 C 
BRANCH  42  43
ATOM     43  C   UNL     1     -11.488   7.889 127.183  0.00  0.00    +0.000 C 
BRANCH  43  44
ATOM     44  N   UNL     1     -11.261   6.704 126.366  0.00  0.00    +0.000 NA
ATOM     45  H   UNL     1     -12.078   6.529 125.783  0.00  0.00    +0.000 HD
ATOM     46  H   UNL     1     -11.158   5.891 126.971  0.00  0.00    +0.000 HD
ENDBRANCH  43  44
ENDBRANCH  42  43
ENDBRANCH  41  42
ENDBRANCH  40  41
ENDBRANCH  39  40
ENDBRANCH  36  39
ENDBRANCH  33  34
ENDBRANCH  32  33
ENDBRANCH  29  32
ENDBRANCH  27  28
ENDBRANCH  26  27
ENDBRANCH  25  26
ENDBRANCH  24  25
ENDBRANCH   1  24
TORSDOF 27
ENDMDL
MODEL 3
REMARK VINA RESULT:      -6.5      4.735      9.547
REMARK  Name = Deferoxamine
REMARK  28 active torsions:
REMARK  status: ('A' for Active; 'I' for Inactive)
REMARK    1  A    between atoms: C_1  and  C_2
REMARK    2  A    between atoms: N_4  and  O_5
REMARK    3  A    between atoms: N_4  and  C_6
REMARK    4  A    between atoms: C_6  and  C_7
REMARK    5  A    between atoms: C_7  and  C_8
REMARK    6  A    between atoms: C_8  and  C_9
REMARK    7  A    between atoms: C_9  and  C_10
REMARK    8  A    between atoms: C_10  and  N_11
REMARK    9  A    between atoms: C_12  and  C_14
REMARK   10  A    between atoms: C_14  and  C_15
REMARK   11  A    between atoms: C_15  and  C_16
REMARK   12  A    between atoms: N_18  and  O_19
REMARK   13  A    between atoms: N_18  and  C_20
REMARK   14  A    between atoms: C_20  and  C_21
REMARK   15  A    between atoms: C_21  and  C_22
REMARK   16  A    between atoms: C_22  and  C_23
REMARK   17  A    between atoms: C_23  and  C_24
REMARK   18  A    between atoms: C_24  and  N_25
REMARK   19  A    between atoms: C_26  and  C_28
REMARK   20  A    between atoms: C_28  and  C_29
REMARK   21  A    between atoms: C_29  and  C_30
REMARK   22  A    between atoms: N_32  and  O_33
REMARK   23  A    between atoms: N_32  and  C_34
REMARK   24  A    between atoms: C_34  and  C_35
REMARK   25  A    between atoms: C_35  and  C_36
REMARK   26  A    between atoms: C_36  and  C_37
REMARK   27  A    between atoms: C_37  and  C_38
REMARK   28  A    between atoms: C_38  and  N_39
REMARK                            x       y       z     vdW  Elec       q    Type
REMARK                         _______ _______ _______ _____ _____    ______ ____
ROOT
ATOM      1  C   UNL     1      -8.003   1.228 124.002  0.00  0.00    +0.000 C 
ENDROOT
BRANCH   1   4
ATOM      2  C   UNL     1      -8.116  -1.153 123.294  0.00  0.00    +0.000 C 
ATOM      3  O   UNL     1      -6.894  -1.197 123.128  0.00  0.00    +0.000 OA
ATOM      4  N   UNL     1      -8.747  -0.006 123.721  0.00  0.00    +0.000 N 
BRANCH   4   5
ATOM      5  O   UNL     1     -10.129   0.112 123.930  0.00  0.00    +0.000 OA
ATOM      6  H   UNL     1     -10.432   0.875 123.413  0.00  0.00    +0.000 HD
ENDBRANCH   4   5
BRANCH   2   7
ATOM      7  C   UNL     1      -8.981  -2.376 123.032  0.00  0.00    +0.000 C 
BRANCH   7   8
ATOM      8  C   UNL     1      -8.717  -3.509 124.036  0.00  0.00    +0.000 C 
BRANCH   8  10
ATOM      9  N   UNL     1      -8.014  -3.288 126.376  0.00  0.00    +0.000 N 
ATOM     10  C   UNL     1      -9.017  -3.058 125.455  0.00  0.00    +0.000 C 
ATOM     11  O   UNL     1     -10.082  -2.524 125.762  0.00  0.00    +0.000 OA
ATOM     12  H   UNL     1      -7.148  -3.730 126.088  0.00  0.00    +0.000 HD
BRANCH   9  13
ATOM     13  C   UNL     1      -8.195  -2.896 127.765  0.00  0.00    +0.000 C 
BRANCH  13  14
ATOM     14  C   UNL     1      -7.604  -1.526 128.088  0.00  0.00    +0.000 C 
BRANCH  14  15
ATOM     15  C   UNL     1      -7.642  -1.244 129.595  0.00  0.00    +0.000 C 
BRANCH  15  16
ATOM     16  C   UNL     1      -7.752  -2.546 130.389  0.00  0.00    +0.000 C 
BRANCH  16  17
ATOM     17  C   UNL     1      -6.494  -2.826 131.210  0.00  0.00    +0.000 C 
BRANCH  17  21
ATOM     18  C   UNL     1      -3.314  -3.647 129.224  0.00  0.00    +0.000 C 
ATOM     19  C   UNL     1      -4.359  -2.836 129.946  0.00  0.00    +0.000 C 
ATOM     20  O   UNL     1      -4.239  -1.611 130.035  0.00  0.00    +0.000 OA
ATOM     21  N   UNL     1      -5.421  -3.514 130.487  0.00  0.00    +0.000 N 
BRANCH  21  22
ATOM     22  O   UNL     1      -5.594  -4.905 130.407  0.00  0.00    +0.000 OA
ATOM     23  H   UNL     1      -6.543  -5.065 130.307  0.00  0.00    +0.000 HD
ENDBRANCH  21  22
ENDBRANCH  17  21
ENDBRANCH  16  17
ENDBRANCH  15  16
ENDBRANCH  14  15
ENDBRANCH  13  14
ENDBRANCH   9  13
ENDBRANCH   8  10
ENDBRANCH   7   8
ENDBRANCH   2   7
ENDBRANCH   1   4
BRANCH   1  24
ATOM     24  C   UNL     1      -8.490   2.029 125.213  0.00  0.00    +0.000 C 
BRANCH  24  25
ATOM     25  C   UNL     1      -7.697   1.698 126.480  0.00  0.00    +0.000 C 
BRANCH  25  26
ATOM     26  C   UNL     1      -7.742   2.864 127.476  0.00  0.00    +0.000 C 
BRANCH  26  27
ATOM     27  C   UNL     1      -8.283   2.419 128.832  0.00  0.00    +0.000 C 
BRANCH  27  28
ATOM     28  N   UNL     1      -7.932   3.322 129.917  0.00  0.00    +0.000 N 
ATOM     29  C   UNL     1      -8.867   3.643 130.881  0.00  0.00    +0.000 C 
ATOM     30  O   UNL     1     -10.011   3.190 130.864  0.00  0.00    +0.000 OA
ATOM     31  H   UNL     1      -6.998   3.714 129.962  0.00  0.00    +0.000 HD
BRANCH  29  32
ATOM     32  C   UNL     1      -8.389   4.594 131.965  0.00  0.00    +0.000 C 
BRANCH  32  33
ATOM     33  C   UNL     1      -8.538   6.057 131.518  0.00  0.00    +0.000 C 
BRANCH  33  34
ATOM     34  C   UNL     1      -9.989   6.508 131.483  0.00  0.00    +0.000 C 
ATOM     35  O   UNL     1     -10.670   6.522 132.511  0.00  0.00    +0.000 OA
ATOM     36  N   UNL     1     -10.504   6.897 130.268  0.00  0.00    +0.000 N 
BRANCH  36  37
ATOM     37  O   UNL     1      -9.784   6.907 129.063  0.00  0.00    +0.000 OA
ATOM     38  H   UNL     1      -9.631   5.984 128.811  0.00  0.00    +0.000 HD
ENDBRANCH  36  37
BRANCH  36  39
ATOM     39  C   UNL     1     -11.891   7.348 130.126  0.00  0.00    +0.000 C 
BRANCH  39  40
ATOM     40  C   UNL     1     -12.080   8.657 129.362  0.00  0.00    +0.000 C 
BRANCH  40  41
ATOM     41  C   UNL     1     -13.140   8.526 128.271  0.00  0.00    +0.000 C 
BRANCH  41  42
ATOM     42  C   UNL     1     -13.176   7.097 127.727  0.00  0.00    +0.000 C 
BRANCH  42  43
ATOM     43  C   UNL     1     -12.555   7.028 126.337  0.00  0.00    +0.000 C 
BRANCH  43  44
ATOM     44  N   UNL     1     -11.141   6.693 126.440  0.00  0.00    +0.000 NA
ATOM     45  H   UNL     1     -10.752   6.559 125.508  0.00  0.00    +0.000 HD
ATOM     46  H   UNL     1     -11.038   5.804 126.927  0.00  0.00    +0.000 HD
ENDBRANCH  43  44
ENDBRANCH  42  43
ENDBRANCH  41  42
ENDBRANCH  40  41
ENDBRANCH  39  40
ENDBRANCH  36  39
ENDBRANCH  33  34
ENDBRANCH  32  33
ENDBRANCH  29  32
ENDBRANCH  27  28
ENDBRANCH  26  27
ENDBRANCH  25  26
ENDBRANCH  24  25
ENDBRANCH   1  24
TORSDOF 27
ENDMDL
MODEL 4
REMARK VINA RESULT:      -6.4      5.065      8.266
REMARK  Name = Deferoxamine
REMARK  28 active torsions:
REMARK  status: ('A' for Active; 'I' for Inactive)
REMARK    1  A    between atoms: C_1  and  C_2
REMARK    2  A    between atoms: N_4  and  O_5
REMARK    3  A    between atoms: N_4  and  C_6
REMARK    4  A    between atoms: C_6  and  C_7
REMARK    5  A    between atoms: C_7  and  C_8
REMARK    6  A    between atoms: C_8  and  C_9
REMARK    7  A    between atoms: C_9  and  C_10
REMARK    8  A    between atoms: C_10  and  N_11
REMARK    9  A    between atoms: C_12  and  C_14
REMARK   10  A    between atoms: C_14  and  C_15
REMARK   11  A    between atoms: C_15  and  C_16
REMARK   12  A    between atoms: N_18  and  O_19
REMARK   13  A    between atoms: N_18  and  C_20
REMARK   14  A    between atoms: C_20  and  C_21
REMARK   15  A    between atoms: C_21  and  C_22
REMARK   16  A    between atoms: C_22  and  C_23
REMARK   17  A    between atoms: C_23  and  C_24
REMARK   18  A    between atoms: C_24  and  N_25
REMARK   19  A    between atoms: C_26  and  C_28
REMARK   20  A    between atoms: C_28  and  C_29
REMARK   21  A    between atoms: C_29  and  C_30
REMARK   22  A    between atoms: N_32  and  O_33
REMARK   23  A    between atoms: N_32  and  C_34
REMARK   24  A    between atoms: C_34  and  C_35
REMARK   25  A    between atoms: C_35  and  C_36
REMARK   26  A    between atoms: C_36  and  C_37
REMARK   27  A    between atoms: C_37  and  C_38
REMARK   28  A    between atoms: C_38  and  N_39
REMARK                            x       y       z     vdW  Elec       q    Type
REMARK                         _______ _______ _______ _____ _____    ______ ____
ROOT
ATOM      1  C   UNL     1      -9.145  -3.228 126.074  0.00  0.00    +0.000 C 
ENDROOT
BRANCH   1   4
ATOM      2  C   UNL     1      -7.780  -2.616 128.060  0.00  0.00    +0.000 C 
ATOM      3  O   UNL     1      -7.167  -1.759 127.417  0.00  0.00    +0.000 OA
ATOM      4  N   UNL     1      -8.766  -3.384 127.483  0.00  0.00    +0.000 N 
BRANCH   4   5
ATOM      5  O   UNL     1      -9.500  -4.374 128.155  0.00  0.00    +0.000 OA
ATOM      6  H   UNL     1     -10.402  -4.036 128.263  0.00  0.00    +0.000 HD
ENDBRANCH   4   5
BRANCH   2   7
ATOM      7  C   UNL     1      -7.465  -2.859 129.527  0.00  0.00    +0.000 C 
BRANCH   7   8
ATOM      8  C   UNL     1      -6.028  -3.357 129.746  0.00  0.00    +0.000 C 
BRANCH   8  10
ATOM      9  N   UNL     1      -5.807  -1.787 131.619  0.00  0.00    +0.000 N 
ATOM     10  C   UNL     1      -5.204  -2.326 130.499  0.00  0.00    +0.000 C 
ATOM     11  O   UNL     1      -4.077  -1.995 130.136  0.00  0.00    +0.000 OA
ATOM     12  H   UNL     1      -6.738  -2.083 131.891  0.00  0.00    +0.000 HD
BRANCH   9  13
ATOM     13  C   UNL     1      -5.108  -0.790 132.415  0.00  0.00    +0.000 C 
BRANCH  13  14
ATOM     14  C   UNL     1      -5.679   0.617 132.259  0.00  0.00    +0.000 C 
BRANCH  14  15
ATOM     15  C   UNL     1      -4.597   1.612 131.821  0.00  0.00    +0.000 C 
BRANCH  15  16
ATOM     16  C   UNL     1      -4.262   1.432 130.340  0.00  0.00    +0.000 C 
BRANCH  16  17
ATOM     17  C   UNL     1      -4.119   2.771 129.617  0.00  0.00    +0.000 C 
BRANCH  17  21
ATOM     18  C   UNL     1      -2.223   3.464 126.352  0.00  0.00    +0.000 C 
ATOM     19  C   UNL     1      -2.730   3.652 127.759  0.00  0.00    +0.000 C 
ATOM     20  O   UNL     1      -2.388   4.642 128.413  0.00  0.00    +0.000 OA
ATOM     21  N   UNL     1      -3.568   2.689 128.262  0.00  0.00    +0.000 N 
BRANCH  21  22
ATOM     22  O   UNL     1      -3.980   1.551 127.551  0.00  0.00    +0.000 OA
ATOM     23  H   UNL     1      -4.584   1.856 126.859  0.00  0.00    +0.000 HD
ENDBRANCH  21  22
ENDBRANCH  17  21
ENDBRANCH  16  17
ENDBRANCH  15  16
ENDBRANCH  14  15
ENDBRANCH  13  14
ENDBRANCH   9  13
ENDBRANCH   8  10
ENDBRANCH   7   8
ENDBRANCH   2   7
ENDBRANCH   1   4
BRANCH   1  24
ATOM     24  C   UNL     1      -8.263  -3.973 125.068  0.00  0.00    +0.000 C 
BRANCH  24  25
ATOM     25  C   UNL     1      -8.151  -3.227 123.736  0.00  0.00    +0.000 C 
BRANCH  25  26
ATOM     26  C   UNL     1      -6.850  -2.417 123.668  0.00  0.00    +0.000 C 
BRANCH  26  27
ATOM     27  C   UNL     1      -7.128  -0.922 123.546  0.00  0.00    +0.000 C 
BRANCH  27  28
ATOM     28  N   UNL     1      -7.599  -0.320 124.784  0.00  0.00    +0.000 N 
ATOM     29  C   UNL     1      -8.876   0.202 124.859  0.00  0.00    +0.000 C 
ATOM     30  O   UNL     1      -9.651   0.182 123.904  0.00  0.00    +0.000 OA
ATOM     31  H   UNL     1      -6.987  -0.287 125.591  0.00  0.00    +0.000 HD
BRANCH  29  32
ATOM     32  C   UNL     1      -9.259   0.804 126.199  0.00  0.00    +0.000 C 
BRANCH  32  33
ATOM     33  C   UNL     1      -8.277   1.914 126.605  0.00  0.00    +0.000 C 
BRANCH  33  34
ATOM     34  C   UNL     1      -8.025   2.905 125.481  0.00  0.00    +0.000 C 
ATOM     35  O   UNL     1      -8.918   3.665 125.099  0.00  0.00    +0.000 OA
ATOM     36  N   UNL     1      -6.771   2.919 124.915  0.00  0.00    +0.000 N 
BRANCH  36  37
ATOM     37  O   UNL     1      -5.712   2.085 125.304  0.00  0.00    +0.000 OA
ATOM     38  H   UNL     1      -5.952   1.693 126.157  0.00  0.00    +0.000 HD
ENDBRANCH  36  37
BRANCH  36  39
ATOM     39  C   UNL     1      -6.426   3.836 123.825  0.00  0.00    +0.000 C 
BRANCH  39  40
ATOM     40  C   UNL     1      -6.190   3.181 122.466  0.00  0.00    +0.000 C 
BRANCH  40  41
ATOM     41  C   UNL     1      -5.399   4.091 121.530  0.00  0.00    +0.000 C 
BRANCH  41  42
ATOM     42  C   UNL     1      -6.142   4.275 120.206  0.00  0.00    +0.000 C 
BRANCH  42  43
ATOM     43  C   UNL     1      -5.536   5.415 119.396  0.00  0.00    +0.000 C 
BRANCH  43  44
ATOM     44  N   UNL     1      -4.742   6.274 120.263  0.00  0.00    +0.000 NA
ATOM     45  H   UNL     1      -4.095   6.824 119.700  0.00  0.00    +0.000 HD
ATOM     46  H   UNL     1      -4.170   5.698 120.880  0.00  0.00    +0.000 HD
ENDBRANCH  43  44
ENDBRANCH  42  43
ENDBRANCH  41  42
ENDBRANCH  40  41
ENDBRANCH  39  40
ENDBRANCH  36  39
ENDBRANCH  33  34
ENDBRANCH  32  33
ENDBRANCH  29  32
ENDBRANCH  27  28
ENDBRANCH  26  27
ENDBRANCH  25  26
ENDBRANCH  24  25
ENDBRANCH   1  24
TORSDOF 27
ENDMDL
MODEL 5
REMARK VINA RESULT:      -6.4      3.776      6.576
REMARK  Name = Deferoxamine
REMARK  28 active torsions:
REMARK  status: ('A' for Active; 'I' for Inactive)
REMARK    1  A    between atoms: C_1  and  C_2
REMARK    2  A    between atoms: N_4  and  O_5
REMARK    3  A    between atoms: N_4  and  C_6
REMARK    4  A    between atoms: C_6  and  C_7
REMARK    5  A    between atoms: C_7  and  C_8
REMARK    6  A    between atoms: C_8  and  C_9
REMARK    7  A    between atoms: C_9  and  C_10
REMARK    8  A    between atoms: C_10  and  N_11
REMARK    9  A    between atoms: C_12  and  C_14
REMARK   10  A    between atoms: C_14  and  C_15
REMARK   11  A    between atoms: C_15  and  C_16
REMARK   12  A    between atoms: N_18  and  O_19
REMARK   13  A    between atoms: N_18  and  C_20
REMARK   14  A    between atoms: C_20  and  C_21
REMARK   15  A    between atoms: C_21  and  C_22
REMARK   16  A    between atoms: C_22  and  C_23
REMARK   17  A    between atoms: C_23  and  C_24
REMARK   18  A    between atoms: C_24  and  N_25
REMARK   19  A    between atoms: C_26  and  C_28
REMARK   20  A    between atoms: C_28  and  C_29
REMARK   21  A    between atoms: C_29  and  C_30
REMARK   22  A    between atoms: N_32  and  O_33
REMARK   23  A    between atoms: N_32  and  C_34
REMARK   24  A    between atoms: C_34  and  C_35
REMARK   25  A    between atoms: C_35  and  C_36
REMARK   26  A    between atoms: C_36  and  C_37
REMARK   27  A    between atoms: C_37  and  C_38
REMARK   28  A    between atoms: C_38  and  N_39
REMARK                            x       y       z     vdW  Elec       q    Type
REMARK                         _______ _______ _______ _____ _____    ______ ____
ROOT
ATOM      1  C   UNL     1      -8.213  -2.573 127.389  0.00  0.00    +0.000 C 
ENDROOT
BRANCH   1   4
ATOM      2  C   UNL     1      -7.629  -0.741 128.965  0.00  0.00    +0.000 C 
ATOM      3  O   UNL     1      -7.744  -1.493 129.936  0.00  0.00    +0.000 OA
ATOM      4  N   UNL     1      -7.840  -1.184 127.679  0.00  0.00    +0.000 N 
BRANCH   4   5
ATOM      5  O   UNL     1      -7.727  -0.382 126.532  0.00  0.00    +0.000 OA
ATOM      6  H   UNL     1      -7.919   0.530 126.801  0.00  0.00    +0.000 HD
ENDBRANCH   4   5
BRANCH   2   7
ATOM      7  C   UNL     1      -7.247   0.719 129.154  0.00  0.00    +0.000 C 
BRANCH   7   8
ATOM      8  C   UNL     1      -8.211   1.463 130.091  0.00  0.00    +0.000 C 
BRANCH   8  10
ATOM      9  N   UNL     1      -8.289   3.365 131.638  0.00  0.00    +0.000 N 
ATOM     10  C   UNL     1      -7.549   2.696 130.684  0.00  0.00    +0.000 C 
ATOM     11  O   UNL     1      -6.431   3.071 130.336  0.00  0.00    +0.000 OA
ATOM     12  H   UNL     1      -9.208   3.028 131.903  0.00  0.00    +0.000 HD
BRANCH   9  13
ATOM     13  C   UNL     1      -7.752   4.560 132.272  0.00  0.00    +0.000 C 
BRANCH  13  14
ATOM     14  C   UNL     1      -8.410   5.849 131.788  0.00  0.00    +0.000 C 
BRANCH  14  15
ATOM     15  C   UNL     1      -9.837   5.986 132.334  0.00  0.00    +0.000 C 
BRANCH  15  16
ATOM     16  C   UNL     1     -10.739   6.692 131.321  0.00  0.00    +0.000 C 
BRANCH  16  17
ATOM     17  C   UNL     1      -9.947   7.260 130.144  0.00  0.00    +0.000 C 
BRANCH  17  21
ATOM     18  C   UNL     1     -11.363   7.462 126.582  0.00  0.00    +0.000 C 
ATOM     19  C   UNL     1     -10.476   7.050 127.729  0.00  0.00    +0.000 C 
ATOM     20  O   UNL     1      -9.553   6.253 127.542  0.00  0.00    +0.000 OA
ATOM     21  N   UNL     1     -10.745   7.591 128.961  0.00  0.00    +0.000 N 
BRANCH  21  22
ATOM     22  O   UNL     1     -11.784   8.500 129.214  0.00  0.00    +0.000 OA
ATOM     23  H   UNL     1     -11.375   9.369 129.333  0.00  0.00    +0.000 HD
ENDBRANCH  21  22
ENDBRANCH  17  21
ENDBRANCH  16  17
ENDBRANCH  15  16
ENDBRANCH  14  15
ENDBRANCH  13  14
ENDBRANCH   9  13
ENDBRANCH   8  10
ENDBRANCH   7   8
ENDBRANCH   2   7
ENDBRANCH   1   4
BRANCH   1  24
ATOM     24  C   UNL     1      -9.071  -2.778 126.138  0.00  0.00    +0.000 C 
BRANCH  24  25
ATOM     25  C   UNL     1      -8.354  -3.618 125.078  0.00  0.00    +0.000 C 
BRANCH  25  26
ATOM     26  C   UNL     1      -7.465  -2.738 124.190  0.00  0.00    +0.000 C 
BRANCH  26  27
ATOM     27  C   UNL     1      -8.266  -2.091 123.064  0.00  0.00    +0.000 C 
BRANCH  27  28
ATOM     28  N   UNL     1      -8.321  -0.640 123.156  0.00  0.00    +0.000 N 
ATOM     29  C   UNL     1      -9.493   0.029 122.864  0.00  0.00    +0.000 C 
ATOM     30  O   UNL     1     -10.518  -0.559 122.521  0.00  0.00    +0.000 OA
ATOM     31  H   UNL     1      -7.495  -0.123 123.436  0.00  0.00    +0.000 HD
BRANCH  29  32
ATOM     32  C   UNL     1      -9.432   1.541 122.994  0.00  0.00    +0.000 C 
BRANCH  32  33
ATOM     33  C   UNL     1      -9.271   1.962 124.463  0.00  0.00    +0.000 C 
BRANCH  33  34
ATOM     34  C   UNL     1      -7.895   2.538 124.755  0.00  0.00    +0.000 C 
ATOM     35  O   UNL     1      -6.880   1.856 124.600  0.00  0.00    +0.000 OA
ATOM     36  N   UNL     1      -7.832   3.840 125.194  0.00  0.00    +0.000 N 
BRANCH  36  37
ATOM     37  O   UNL     1      -8.946   4.671 125.388  0.00  0.00    +0.000 OA
ATOM     38  H   UNL     1      -8.614   5.542 125.653  0.00  0.00    +0.000 HD
ENDBRANCH  36  37
BRANCH  36  39
ATOM     39  C   UNL     1      -6.556   4.490 125.503  0.00  0.00    +0.000 C 
BRANCH  39  40
ATOM     40  C   UNL     1      -5.868   4.010 126.780  0.00  0.00    +0.000 C 
BRANCH  40  41
ATOM     41  C   UNL     1      -4.491   4.648 126.952  0.00  0.00    +0.000 C 
BRANCH  41  42
ATOM     42  C   UNL     1      -3.419   3.801 126.265  0.00  0.00    +0.000 C 
BRANCH  42  43
ATOM     43  C   UNL     1      -2.197   3.637 127.161  0.00  0.00    +0.000 C 
BRANCH  43  44
ATOM     44  N   UNL     1      -1.305   2.628 126.604  0.00  0.00    +0.000 NA
ATOM     45  H   UNL     1      -0.343   2.960 126.651  0.00  0.00    +0.000 HD
ATOM     46  H   UNL     1      -1.517   2.496 125.617  0.00  0.00    +0.000 HD
ENDBRANCH  43  44
ENDBRANCH  42  43
ENDBRANCH  41  42
ENDBRANCH  40  41
ENDBRANCH  39  40
ENDBRANCH  36  39
ENDBRANCH  33  34
ENDBRANCH  32  33
ENDBRANCH  29  32
ENDBRANCH  27  28
ENDBRANCH  26  27
ENDBRANCH  25  26
ENDBRANCH  24  25
ENDBRANCH   1  24
TORSDOF 27
ENDMDL
MODEL 6
REMARK VINA RESULT:      -6.3      3.409      8.303
REMARK  Name = Deferoxamine
REMARK  28 active torsions:
REMARK  status: ('A' for Active; 'I' for Inactive)
REMARK    1  A    between atoms: C_1  and  C_2
REMARK    2  A    between atoms: N_4  and  O_5
REMARK    3  A    between atoms: N_4  and  C_6
REMARK    4  A    between atoms: C_6  and  C_7
REMARK    5  A    between atoms: C_7  and  C_8
REMARK    6  A    between atoms: C_8  and  C_9
REMARK    7  A    between atoms: C_9  and  C_10
REMARK    8  A    between atoms: C_10  and  N_11
REMARK    9  A    between atoms: C_12  and  C_14
REMARK   10  A    between atoms: C_14  and  C_15
REMARK   11  A    between atoms: C_15  and  C_16
REMARK   12  A    between atoms: N_18  and  O_19
REMARK   13  A    between atoms: N_18  and  C_20
REMARK   14  A    between atoms: C_20  and  C_21
REMARK   15  A    between atoms: C_21  and  C_22
REMARK   16  A    between atoms: C_22  and  C_23
REMARK   17  A    between atoms: C_23  and  C_24
REMARK   18  A    between atoms: C_24  and  N_25
REMARK   19  A    between atoms: C_26  and  C_28
REMARK   20  A    between atoms: C_28  and  C_29
REMARK   21  A    between atoms: C_29  and  C_30
REMARK   22  A    between atoms: N_32  and  O_33
REMARK   23  A    between atoms: N_32  and  C_34
REMARK   24  A    between atoms: C_34  and  C_35
REMARK   25  A    between atoms: C_35  and  C_36
REMARK   26  A    between atoms: C_36  and  C_37
REMARK   27  A    between atoms: C_37  and  C_38
REMARK   28  A    between atoms: C_38  and  N_39
REMARK                            x       y       z     vdW  Elec       q    Type
REMARK                         _______ _______ _______ _____ _____    ______ ____
ROOT
ATOM      1  C   UNL     1      -3.430   6.182 128.232  0.00  0.00    +0.000 C 
ENDROOT
BRANCH   1   4
ATOM      2  C   UNL     1      -4.585   4.559 126.744  0.00  0.00    +0.000 C 
ATOM      3  O   UNL     1      -5.681   5.078 126.971  0.00  0.00    +0.000 OA
ATOM      4  N   UNL     1      -3.427   5.033 127.318  0.00  0.00    +0.000 N 
BRANCH   4   5
ATOM      5  O   UNL     1      -2.151   4.491 127.103  0.00  0.00    +0.000 OA
ATOM      6  H   UNL     1      -1.659   4.578 127.934  0.00  0.00    +0.000 HD
ENDBRANCH   4   5
BRANCH   2   7
ATOM      7  C   UNL     1      -4.470   3.363 125.811  0.00  0.00    +0.000 C 
BRANCH   7   8
ATOM      8  C   UNL     1      -4.581   2.024 126.555  0.00  0.00    +0.000 C 
BRANCH   8  10
ATOM      9  N   UNL     1      -6.947   2.357 125.998  0.00  0.00    +0.000 N 
ATOM     10  C   UNL     1      -6.035   1.611 126.718  0.00  0.00    +0.000 C 
ATOM     11  O   UNL     1      -6.374   0.676 127.440  0.00  0.00    +0.000 OA
ATOM     12  H   UNL     1      -6.633   3.122 125.411  0.00  0.00    +0.000 HD
BRANCH   9  13
ATOM     13  C   UNL     1      -8.367   2.049 126.079  0.00  0.00    +0.000 C 
BRANCH  13  14
ATOM     14  C   UNL     1      -9.042   1.948 124.714  0.00  0.00    +0.000 C 
BRANCH  14  15
ATOM     15  C   UNL     1      -9.156   0.489 124.256  0.00  0.00    +0.000 C 
BRANCH  15  16
ATOM     16  C   UNL     1      -7.953   0.094 123.398  0.00  0.00    +0.000 C 
BRANCH  16  17
ATOM     17  C   UNL     1      -7.622  -1.394 123.525  0.00  0.00    +0.000 C 
BRANCH  17  21
ATOM     18  C   UNL     1      -9.039  -3.309 126.533  0.00  0.00    +0.000 C 
ATOM     19  C   UNL     1      -8.915  -2.775 125.129  0.00  0.00    +0.000 C 
ATOM     20  O   UNL     1      -9.759  -3.068 124.279  0.00  0.00    +0.000 OA
ATOM     21  N   UNL     1      -7.840  -1.967 124.854  0.00  0.00    +0.000 N 
BRANCH  21  22
ATOM     22  O   UNL     1      -6.860  -1.611 125.794  0.00  0.00    +0.000 OA
ATOM     23  H   UNL     1      -6.647  -0.679 125.637  0.00  0.00    +0.000 HD
ENDBRANCH  21  22
ENDBRANCH  17  21
ENDBRANCH  16  17
ENDBRANCH  15  16
ENDBRANCH  14  15
ENDBRANCH  13  14
ENDBRANCH   9  13
ENDBRANCH   8  10
ENDBRANCH   7   8
ENDBRANCH   2   7
ENDBRANCH   1   4
BRANCH   1  24
ATOM     24  C   UNL     1      -2.136   6.401 129.019  0.00  0.00    +0.000 C 
BRANCH  24  25
ATOM     25  C   UNL     1      -2.187   5.752 130.405  0.00  0.00    +0.000 C 
BRANCH  25  26
ATOM     26  C   UNL     1      -1.901   6.783 131.504  0.00  0.00    +0.000 C 
BRANCH  26  27
ATOM     27  C   UNL     1      -3.113   6.984 132.410  0.00  0.00    +0.000 C 
BRANCH  27  28
ATOM     28  N   UNL     1      -4.339   7.267 131.678  0.00  0.00    +0.000 N 
ATOM     29  C   UNL     1      -5.461   6.488 131.880  0.00  0.00    +0.000 C 
ATOM     30  O   UNL     1      -5.473   5.544 132.669  0.00  0.00    +0.000 OA
ATOM     31  H   UNL     1      -4.365   8.038 131.021  0.00  0.00    +0.000 HD
BRANCH  29  32
ATOM     32  C   UNL     1      -6.681   6.875 131.063  0.00  0.00    +0.000 C 
BRANCH  32  33
ATOM     33  C   UNL     1      -7.977   6.462 131.778  0.00  0.00    +0.000 C 
BRANCH  33  34
ATOM     34  C   UNL     1      -9.185   6.496 130.857  0.00  0.00    +0.000 C 
ATOM     35  O   UNL     1      -9.044   6.539 129.632  0.00  0.00    +0.000 OA
ATOM     36  N   UNL     1     -10.430   6.477 131.441  0.00  0.00    +0.000 N 
BRANCH  36  37
ATOM     37  O   UNL     1     -10.661   6.426 132.824  0.00  0.00    +0.000 OA
ATOM     38  H   UNL     1     -11.512   5.982 132.958  0.00  0.00    +0.000 HD
ENDBRANCH  36  37
BRANCH  36  39
ATOM     39  C   UNL     1     -11.659   6.508 130.643  0.00  0.00    +0.000 C 
BRANCH  39  40
ATOM     40  C   UNL     1     -12.364   7.861 130.575  0.00  0.00    +0.000 C 
BRANCH  40  41
ATOM     41  C   UNL     1     -12.762   8.219 129.145  0.00  0.00    +0.000 C 
BRANCH  41  42
ATOM     42  C   UNL     1     -12.243   7.166 128.165  0.00  0.00    +0.000 C 
BRANCH  42  43
ATOM     43  C   UNL     1     -11.252   7.778 127.182  0.00  0.00    +0.000 C 
BRANCH  43  44
ATOM     44  N   UNL     1     -10.801   6.766 126.235  0.00  0.00    +0.000 NA
ATOM     45  H   UNL     1     -10.988   7.080 125.284  0.00  0.00    +0.000 HD
ATOM     46  H   UNL     1     -11.341   5.913 126.369  0.00  0.00    +0.000 HD
ENDBRANCH  43  44
ENDBRANCH  42  43
ENDBRANCH  41  42
ENDBRANCH  40  41
ENDBRANCH  39  40
ENDBRANCH  36  39
ENDBRANCH  33  34
ENDBRANCH  32  33
ENDBRANCH  29  32
ENDBRANCH  27  28
ENDBRANCH  26  27
ENDBRANCH  25  26
ENDBRANCH  24  25
ENDBRANCH   1  24
TORSDOF 27
ENDMDL
MODEL 7
REMARK VINA RESULT:      -6.3      4.384      8.728
REMARK  Name = Deferoxamine
REMARK  28 active torsions:
REMARK  status: ('A' for Active; 'I' for Inactive)
REMARK    1  A    between atoms: C_1  and  C_2
REMARK    2  A    between atoms: N_4  and  O_5
REMARK    3  A    between atoms: N_4  and  C_6
REMARK    4  A    between atoms: C_6  and  C_7
REMARK    5  A    between atoms: C_7  and  C_8
REMARK    6  A    between atoms: C_8  and  C_9
REMARK    7  A    between atoms: C_9  and  C_10
REMARK    8  A    between atoms: C_10  and  N_11
REMARK    9  A    between atoms: C_12  and  C_14
REMARK   10  A    between atoms: C_14  and  C_15
REMARK   11  A    between atoms: C_15  and  C_16
REMARK   12  A    between atoms: N_18  and  O_19
REMARK   13  A    between atoms: N_18  and  C_20
REMARK   14  A    between atoms: C_20  and  C_21
REMARK   15  A    between atoms: C_21  and  C_22
REMARK   16  A    between atoms: C_22  and  C_23
REMARK   17  A    between atoms: C_23  and  C_24
REMARK   18  A    between atoms: C_24  and  N_25
REMARK   19  A    between atoms: C_26  and  C_28
REMARK   20  A    between atoms: C_28  and  C_29
REMARK   21  A    between atoms: C_29  and  C_30
REMARK   22  A    between atoms: N_32  and  O_33
REMARK   23  A    between atoms: N_32  and  C_34
REMARK   24  A    between atoms: C_34  and  C_35
REMARK   25  A    between atoms: C_35  and  C_36
REMARK   26  A    between atoms: C_36  and  C_37
REMARK   27  A    between atoms: C_37  and  C_38
REMARK   28  A    between atoms: C_38  and  N_39
REMARK                            x       y       z     vdW  Elec       q    Type
REMARK                         _______ _______ _______ _____ _____    ______ ____
ROOT
ATOM      1  C   UNL     1      -8.101  -3.050 126.940  0.00  0.00    +0.000 C 
ENDROOT
BRANCH   1   4
ATOM      2  C   UNL     1      -8.452  -3.513 124.522  0.00  0.00    +0.000 C 
ATOM      3  O   UNL     1      -7.372  -4.105 124.444  0.00  0.00    +0.000 OA
ATOM      4  N   UNL     1      -8.890  -2.963 125.706  0.00  0.00    +0.000 N 
BRANCH   4   5
ATOM      5  O   UNL     1     -10.104  -2.277 125.863  0.00  0.00    +0.000 OA
ATOM      6  H   UNL     1      -9.946  -1.354 125.611  0.00  0.00    +0.000 HD
ENDBRANCH   4   5
BRANCH   2   7
ATOM      7  C   UNL     1      -9.347  -3.366 123.302  0.00  0.00    +0.000 C 
BRANCH   7   8
ATOM      8  C   UNL     1      -8.904  -2.217 122.382  0.00  0.00    +0.000 C 
BRANCH   8  10
ATOM      9  N   UNL     1      -7.028  -0.985 123.372  0.00  0.00    +0.000 N 
ATOM     10  C   UNL     1      -8.396  -1.037 123.193  0.00  0.00    +0.000 C 
ATOM     11  O   UNL     1      -9.152  -0.186 123.657  0.00  0.00    +0.000 OA
ATOM     12  H   UNL     1      -6.432  -1.703 122.975  0.00  0.00    +0.000 HD
BRANCH   9  13
ATOM     13  C   UNL     1      -6.432   0.103 124.132  0.00  0.00    +0.000 C 
BRANCH  13  14
ATOM     14  C   UNL     1      -6.308  -0.199 125.623  0.00  0.00    +0.000 C 
BRANCH  14  15
ATOM     15  C   UNL     1      -7.112   0.801 126.464  0.00  0.00    +0.000 C 
BRANCH  15  16
ATOM     16  C   UNL     1      -6.632   2.231 126.212  0.00  0.00    +0.000 C 
BRANCH  16  17
ATOM     17  C   UNL     1      -7.792   3.182 125.916  0.00  0.00    +0.000 C 
BRANCH  17  21
ATOM     18  C   UNL     1      -8.652   2.963 122.182  0.00  0.00    +0.000 C 
ATOM     19  C   UNL     1      -7.861   3.233 123.436  0.00  0.00    +0.000 C 
ATOM     20  O   UNL     1      -6.715   3.683 123.360  0.00  0.00    +0.000 OA
ATOM     21  N   UNL     1      -8.468   2.958 124.636  0.00  0.00    +0.000 N 
BRANCH  21  22
ATOM     22  O   UNL     1      -9.769   2.446 124.764  0.00  0.00    +0.000 OA
ATOM     23  H   UNL     1      -9.842   2.084 125.658  0.00  0.00    +0.000 HD
ENDBRANCH  21  22
ENDBRANCH  17  21
ENDBRANCH  16  17
ENDBRANCH  15  16
ENDBRANCH  14  15
ENDBRANCH  13  14
ENDBRANCH   9  13
ENDBRANCH   8  10
ENDBRANCH   7   8
ENDBRANCH   2   7
ENDBRANCH   1   4
BRANCH   1  24
ATOM     24  C   UNL     1      -8.803  -3.717 128.125  0.00  0.00    +0.000 C 
BRANCH  24  25
ATOM     25  C   UNL     1      -8.350  -3.135 129.467  0.00  0.00    +0.000 C 
BRANCH  25  26
ATOM     26  C   UNL     1      -6.826  -2.962 129.503  0.00  0.00    +0.000 C 
BRANCH  26  27
ATOM     27  C   UNL     1      -6.434  -1.519 129.807  0.00  0.00    +0.000 C 
BRANCH  27  28
ATOM     28  N   UNL     1      -7.573  -0.618 129.892  0.00  0.00    +0.000 N 
ATOM     29  C   UNL     1      -7.374   0.747 129.946  0.00  0.00    +0.000 C 
ATOM     30  O   UNL     1      -6.251   1.249 129.926  0.00  0.00    +0.000 OA
ATOM     31  H   UNL     1      -8.513  -0.998 129.910  0.00  0.00    +0.000 HD
BRANCH  29  32
ATOM     32  C   UNL     1      -8.636   1.589 130.033  0.00  0.00    +0.000 C 
BRANCH  32  33
ATOM     33  C   UNL     1      -8.362   3.038 129.602  0.00  0.00    +0.000 C 
BRANCH  33  34
ATOM     34  C   UNL     1      -9.219   4.040 130.358  0.00  0.00    +0.000 C 
ATOM     35  O   UNL     1      -9.577   3.816 131.517  0.00  0.00    +0.000 OA
ATOM     36  N   UNL     1      -9.573   5.196 129.701  0.00  0.00    +0.000 N 
BRANCH  36  37
ATOM     37  O   UNL     1      -9.197   5.513 128.387  0.00  0.00    +0.000 OA
ATOM     38  H   UNL     1      -8.430   4.963 128.166  0.00  0.00    +0.000 HD
ENDBRANCH  36  37
BRANCH  36  39
ATOM     39  C   UNL     1     -10.397   6.226 130.340  0.00  0.00    +0.000 C 
BRANCH  39  40
ATOM     40  C   UNL     1     -11.898   5.946 130.359  0.00  0.00    +0.000 C 
BRANCH  40  41
ATOM     41  C   UNL     1     -12.712   7.236 130.439  0.00  0.00    +0.000 C 
BRANCH  41  42
ATOM     42  C   UNL     1     -12.077   8.325 129.572  0.00  0.00    +0.000 C 
BRANCH  42  43
ATOM     43  C   UNL     1     -13.136   9.057 128.757  0.00  0.00    +0.000 C 
BRANCH  43  44
ATOM     44  N   UNL     1     -13.074  10.487 129.032  0.00  0.00    +0.000 NA
ATOM     45  H   UNL     1     -12.246  10.692 129.590  0.00  0.00    +0.000 HD
ATOM     46  H   UNL     1     -13.877  10.759 129.595  0.00  0.00    +0.000 HD
ENDBRANCH  43  44
ENDBRANCH  42  43
ENDBRANCH  41  42
ENDBRANCH  40  41
ENDBRANCH  39  40
ENDBRANCH  36  39
ENDBRANCH  33  34
ENDBRANCH  32  33
ENDBRANCH  29  32
ENDBRANCH  27  28
ENDBRANCH  26  27
ENDBRANCH  25  26
ENDBRANCH  24  25
ENDBRANCH   1  24
TORSDOF 27
ENDMDL
MODEL 8
REMARK VINA RESULT:      -6.3      3.740      8.642
REMARK  Name = Deferoxamine
REMARK  28 active torsions:
REMARK  status: ('A' for Active; 'I' for Inactive)
REMARK    1  A    between atoms: C_1  and  C_2
REMARK    2  A    between atoms: N_4  and  O_5
REMARK    3  A    between atoms: N_4  and  C_6
REMARK    4  A    between atoms: C_6  and  C_7
REMARK    5  A    between atoms: C_7  and  C_8
REMARK    6  A    between atoms: C_8  and  C_9
REMARK    7  A    between atoms: C_9  and  C_10
REMARK    8  A    between atoms: C_10  and  N_11
REMARK    9  A    between atoms: C_12  and  C_14
REMARK   10  A    between atoms: C_14  and  C_15
REMARK   11  A    between atoms: C_15  and  C_16
REMARK   12  A    between atoms: N_18  and  O_19
REMARK   13  A    between atoms: N_18  and  C_20
REMARK   14  A    between atoms: C_20  and  C_21
REMARK   15  A    between atoms: C_21  and  C_22
REMARK   16  A    between atoms: C_22  and  C_23
REMARK   17  A    between atoms: C_23  and  C_24
REMARK   18  A    between atoms: C_24  and  N_25
REMARK   19  A    between atoms: C_26  and  C_28
REMARK   20  A    between atoms: C_28  and  C_29
REMARK   21  A    between atoms: C_29  and  C_30
REMARK   22  A    between atoms: N_32  and  O_33
REMARK   23  A    between atoms: N_32  and  C_34
REMARK   24  A    between atoms: C_34  and  C_35
REMARK   25  A    between atoms: C_35  and  C_36
REMARK   26  A    between atoms: C_36  and  C_37
REMARK   27  A    between atoms: C_37  and  C_38
REMARK   28  A    between atoms: C_38  and  N_39
REMARK                            x       y       z     vdW  Elec       q    Type
REMARK                         _______ _______ _______ _____ _____    ______ ____
ROOT
ATOM      1  C   UNL     1      -5.797   4.551 125.009  0.00  0.00    +0.000 C 
ENDROOT
BRANCH   1   4
ATOM      2  C   UNL     1      -7.752   3.118 124.456  0.00  0.00    +0.000 C 
ATOM      3  O   UNL     1      -7.953   2.873 125.649  0.00  0.00    +0.000 OA
ATOM      4  N   UNL     1      -6.718   3.931 124.050  0.00  0.00    +0.000 N 
BRANCH   4   5
ATOM      5  O   UNL     1      -6.435   4.250 122.713  0.00  0.00    +0.000 OA
ATOM      6  H   UNL     1      -7.271   4.520 122.300  0.00  0.00    +0.000 HD
ENDBRANCH   4   5
BRANCH   2   7
ATOM      7  C   UNL     1      -8.649   2.527 123.380  0.00  0.00    +0.000 C 
BRANCH   7   8
ATOM      8  C   UNL     1      -9.737   1.610 123.960  0.00  0.00    +0.000 C 
BRANCH   8  10
ATOM      9  N   UNL     1      -9.026  -0.717 123.638  0.00  0.00    +0.000 N 
ATOM     10  C   UNL     1      -9.826   0.310 123.177  0.00  0.00    +0.000 C 
ATOM     11  O   UNL     1     -10.561   0.183 122.200  0.00  0.00    +0.000 OA
ATOM     12  H   UNL     1      -8.433  -0.578 124.448  0.00  0.00    +0.000 HD
BRANCH   9  13
ATOM     13  C   UNL     1      -9.033  -2.006 122.964  0.00  0.00    +0.000 C 
BRANCH  13  14
ATOM     14  C   UNL     1      -9.304  -3.178 123.903  0.00  0.00    +0.000 C 
BRANCH  14  15
ATOM     15  C   UNL     1      -8.249  -3.257 125.014  0.00  0.00    +0.000 C 
BRANCH  15  16
ATOM     16  C   UNL     1      -8.908  -3.208 126.393  0.00  0.00    +0.000 C 
BRANCH  16  17
ATOM     17  C   UNL     1      -8.115  -2.351 127.379  0.00  0.00    +0.000 C 
BRANCH  17  21
ATOM     18  C   UNL     1      -5.544   0.119 125.956  0.00  0.00    +0.000 C 
ATOM     19  C   UNL     1      -6.109  -1.141 126.561  0.00  0.00    +0.000 C 
ATOM     20  O   UNL     1      -5.364  -2.088 126.825  0.00  0.00    +0.000 OA
ATOM     21  N   UNL     1      -7.460  -1.178 126.795  0.00  0.00    +0.000 N 
BRANCH  21  22
ATOM     22  O   UNL     1      -8.340  -0.122 126.509  0.00  0.00    +0.000 OA
ATOM     23  H   UNL     1      -8.137   0.178 125.611  0.00  0.00    +0.000 HD
ENDBRANCH  21  22
ENDBRANCH  17  21
ENDBRANCH  16  17
ENDBRANCH  15  16
ENDBRANCH  14  15
ENDBRANCH  13  14
ENDBRANCH   9  13
ENDBRANCH   8  10
ENDBRANCH   7   8
ENDBRANCH   2   7
ENDBRANCH   1   4
BRANCH   1  24
ATOM     24  C   UNL     1      -4.542   3.738 125.336  0.00  0.00    +0.000 C 
BRANCH  24  25
ATOM     25  C   UNL     1      -4.146   3.858 126.810  0.00  0.00    +0.000 C 
BRANCH  25  26
ATOM     26  C   UNL     1      -4.477   5.253 127.356  0.00  0.00    +0.000 C 
BRANCH  26  27
ATOM     27  C   UNL     1      -4.169   5.357 128.847  0.00  0.00    +0.000 C 
BRANCH  27  28
ATOM     28  N   UNL     1      -5.356   5.295 129.686  0.00  0.00    +0.000 N 
ATOM     29  C   UNL     1      -5.246   4.948 131.018  0.00  0.00    +0.000 C 
ATOM     30  O   UNL     1      -4.164   4.682 131.541  0.00  0.00    +0.000 OA
ATOM     31  H   UNL     1      -6.263   5.509 129.289  0.00  0.00    +0.000 HD
BRANCH  29  32
ATOM     32  C   UNL     1      -6.550   4.917 131.796  0.00  0.00    +0.000 C 
BRANCH  32  33
ATOM     33  C   UNL     1      -7.752   4.776 130.850  0.00  0.00    +0.000 C 
BRANCH  33  34
ATOM     34  C   UNL     1      -8.803   5.849 131.082  0.00  0.00    +0.000 C 
ATOM     35  O   UNL     1      -8.715   6.621 132.039  0.00  0.00    +0.000 OA
ATOM     36  N   UNL     1      -9.846   5.920 130.188  0.00  0.00    +0.000 N 
BRANCH  36  37
ATOM     37  O   UNL     1     -10.005   5.075 129.079  0.00  0.00    +0.000 OA
ATOM     38  H   UNL     1      -9.140   4.997 128.650  0.00  0.00    +0.000 HD
ENDBRANCH  36  37
BRANCH  36  39
ATOM     39  C   UNL     1     -10.912   6.917 130.322  0.00  0.00    +0.000 C 
BRANCH  39  40
ATOM     40  C   UNL     1     -12.164   6.656 129.488  0.00  0.00    +0.000 C 
BRANCH  40  41
ATOM     41  C   UNL     1     -12.397   7.760 128.459  0.00  0.00    +0.000 C 
BRANCH  41  42
ATOM     42  C   UNL     1     -11.065   8.262 127.900  0.00  0.00    +0.000 C 
BRANCH  42  43
ATOM     43  C   UNL     1     -10.897   7.852 126.442  0.00  0.00    +0.000 C 
BRANCH  43  44
ATOM     44  N   UNL     1     -10.455   6.466 126.363  0.00  0.00    +0.000 NA
ATOM     45  H   UNL     1     -11.199   5.851 126.691  0.00  0.00    +0.000 HD
ATOM     46  H   UNL     1      -9.666   6.325 126.992  0.00  0.00    +0.000 HD
ENDBRANCH  43  44
ENDBRANCH  42  43
ENDBRANCH  41  42
ENDBRANCH  40  41
ENDBRANCH  39  40
ENDBRANCH  36  39
ENDBRANCH  33  34
ENDBRANCH  32  33
ENDBRANCH  29  32
ENDBRANCH  27  28
ENDBRANCH  26  27
ENDBRANCH  25  26
ENDBRANCH  24  25
ENDBRANCH   1  24
TORSDOF 27
ENDMDL
MODEL 9
REMARK VINA RESULT:      -6.2      4.151      8.013
REMARK  Name = Deferoxamine
REMARK  28 active torsions:
REMARK  status: ('A' for Active; 'I' for Inactive)
REMARK    1  A    between atoms: C_1  and  C_2
REMARK    2  A    between atoms: N_4  and  O_5
REMARK    3  A    between atoms: N_4  and  C_6
REMARK    4  A    between atoms: C_6  and  C_7
REMARK    5  A    between atoms: C_7  and  C_8
REMARK    6  A    between atoms: C_8  and  C_9
REMARK    7  A    between atoms: C_9  and  C_10
REMARK    8  A    between atoms: C_10  and  N_11
REMARK    9  A    between atoms: C_12  and  C_14
REMARK   10  A    between atoms: C_14  and  C_15
REMARK   11  A    between atoms: C_15  and  C_16
REMARK   12  A    between atoms: N_18  and  O_19
REMARK   13  A    between atoms: N_18  and  C_20
REMARK   14  A    between atoms: C_20  and  C_21
REMARK   15  A    between atoms: C_21  and  C_22
REMARK   16  A    between atoms: C_22  and  C_23
REMARK   17  A    between atoms: C_23  and  C_24
REMARK   18  A    between atoms: C_24  and  N_25
REMARK   19  A    between atoms: C_26  and  C_28
REMARK   20  A    between atoms: C_28  and  C_29
REMARK   21  A    between atoms: C_29  and  C_30
REMARK   22  A    between atoms: N_32  and  O_33
REMARK   23  A    between atoms: N_32  and  C_34
REMARK   24  A    between atoms: C_34  and  C_35
REMARK   25  A    between atoms: C_35  and  C_36
REMARK   26  A    between atoms: C_36  and  C_37
REMARK   27  A    between atoms: C_37  and  C_38
REMARK   28  A    between atoms: C_38  and  N_39
REMARK                            x       y       z     vdW  Elec       q    Type
REMARK                         _______ _______ _______ _____ _____    ______ ____
ROOT
ATOM      1  C   UNL     1      -7.570  -0.804 132.291  0.00  0.00    +0.000 C 
ENDROOT
BRANCH   1   4
ATOM      2  C   UNL     1      -6.050  -2.489 131.274  0.00  0.00    +0.000 C 
ATOM      3  O   UNL     1      -6.849  -3.400 131.506  0.00  0.00    +0.000 OA
ATOM      4  N   UNL     1      -6.320  -1.184 131.623  0.00  0.00    +0.000 N 
BRANCH   4   5
ATOM      5  O   UNL     1      -5.457  -0.103 131.389  0.00  0.00    +0.000 OA
ATOM      6  H   UNL     1      -5.104   0.172 132.249  0.00  0.00    +0.000 HD
ENDBRANCH   4   5
BRANCH   2   7
ATOM      7  C   UNL     1      -4.725  -2.774 130.585  0.00  0.00    +0.000 C 
BRANCH   7   8
ATOM      8  C   UNL     1      -4.896  -3.116 129.097  0.00  0.00    +0.000 C 
BRANCH   8  10
ATOM      9  N   UNL     1      -5.125  -0.818 128.268  0.00  0.00    +0.000 N 
ATOM     10  C   UNL     1      -5.723  -2.057 128.388  0.00  0.00    +0.000 C 
ATOM     11  O   UNL     1      -6.849  -2.288 127.950  0.00  0.00    +0.000 OA
ATOM     12  H   UNL     1      -4.194  -0.662 128.639  0.00  0.00    +0.000 HD
BRANCH   9  13
ATOM     13  C   UNL     1      -5.827   0.270 127.605  0.00  0.00    +0.000 C 
BRANCH  13  14
ATOM     14  C   UNL     1      -5.281   0.583 126.215  0.00  0.00    +0.000 C 
BRANCH  14  15
ATOM     15  C   UNL     1      -6.069  -0.158 125.127  0.00  0.00    +0.000 C 
BRANCH  15  16
ATOM     16  C   UNL     1      -6.897   0.822 124.294  0.00  0.00    +0.000 C 
BRANCH  16  17
ATOM     17  C   UNL     1      -8.231   0.217 123.855  0.00  0.00    +0.000 C 
BRANCH  17  21
ATOM     18  C   UNL     1      -8.847  -3.536 124.373  0.00  0.00    +0.000 C 
ATOM     19  C   UNL     1      -8.910  -2.048 124.607  0.00  0.00    +0.000 C 
ATOM     20  O   UNL     1      -9.549  -1.598 125.561  0.00  0.00    +0.000 OA
ATOM     21  N   UNL     1      -8.237  -1.242 123.723  0.00  0.00    +0.000 N 
BRANCH  21  22
ATOM     22  O   UNL     1      -7.499  -1.715 122.627  0.00  0.00    +0.000 OA
ATOM     23  H   UNL     1      -7.921  -2.537 122.338  0.00  0.00    +0.000 HD
ENDBRANCH  21  22
ENDBRANCH  17  21
ENDBRANCH  16  17
ENDBRANCH  15  16
ENDBRANCH  14  15
ENDBRANCH  13  14
ENDBRANCH   9  13
ENDBRANCH   8  10
ENDBRANCH   7   8
ENDBRANCH   2   7
ENDBRANCH   1   4
BRANCH   1  24
ATOM     24  C   UNL     1      -7.813   0.701 132.427  0.00  0.00    +0.000 C 
BRANCH  24  25
ATOM     25  C   UNL     1      -9.006   1.171 131.591  0.00  0.00    +0.000 C 
BRANCH  25  26
ATOM     26  C   UNL     1      -8.542   1.740 130.244  0.00  0.00    +0.000 C 
BRANCH  26  27
ATOM     27  C   UNL     1      -7.344   2.670 130.413  0.00  0.00    +0.000 C 
BRANCH  27  28
ATOM     28  N   UNL     1      -7.692   3.958 130.993  0.00  0.00    +0.000 N 
ATOM     29  C   UNL     1      -7.277   5.126 130.385  0.00  0.00    +0.000 C 
ATOM     30  O   UNL     1      -6.610   5.128 129.351  0.00  0.00    +0.000 OA
ATOM     31  H   UNL     1      -8.241   3.993 131.844  0.00  0.00    +0.000 HD
BRANCH  29  32
ATOM     32  C   UNL     1      -7.699   6.410 131.079  0.00  0.00    +0.000 C 
BRANCH  32  33
ATOM     33  C   UNL     1      -9.155   6.322 131.562  0.00  0.00    +0.000 C 
BRANCH  33  34
ATOM     34  C   UNL     1     -10.127   6.984 130.599  0.00  0.00    +0.000 C 
ATOM     35  O   UNL     1      -9.716   7.620 129.625  0.00  0.00    +0.000 OA
ATOM     36  N   UNL     1     -11.471   6.845 130.858  0.00  0.00    +0.000 N 
BRANCH  36  37
ATOM     37  O   UNL     1     -12.004   6.135 131.944  0.00  0.00    +0.000 OA
ATOM     38  H   UNL     1     -11.259   5.825 132.480  0.00  0.00    +0.000 HD
ENDBRANCH  36  37
BRANCH  36  39
ATOM     39  C   UNL     1     -12.490   7.445 129.993  0.00  0.00    +0.000 C 
BRANCH  39  40
ATOM     40  C   UNL     1     -12.925   6.592 128.803  0.00  0.00    +0.000 C 
BRANCH  40  41
ATOM     41  C   UNL     1     -13.270   7.451 127.588  0.00  0.00    +0.000 C 
BRANCH  41  42
ATOM     42  C   UNL     1     -12.404   7.059 126.391  0.00  0.00    +0.000 C 
BRANCH  42  43
ATOM     43  C   UNL     1     -10.996   7.625 126.528  0.00  0.00    +0.000 C 
BRANCH  43  44
ATOM     44  N   UNL     1     -10.027   6.539 126.594  0.00  0.00    +0.000 NA
ATOM     45  H   UNL     1     -10.225   5.860 125.860  0.00  0.00    +0.000 HD
ATOM     46  H   UNL     1     -10.130   6.046 127.479  0.00  0.00    +0.000 HD
ENDBRANCH  43  44
ENDBRANCH  42  43
ENDBRANCH  41  42
ENDBRANCH  40  41
ENDBRANCH  39  40
ENDBRANCH  36  39
ENDBRANCH  33  34
ENDBRANCH  32  33
ENDBRANCH  29  32
ENDBRANCH  27  28
ENDBRANCH  26  27
ENDBRANCH  25  26
ENDBRANCH  24  25
ENDBRANCH   1  24
TORSDOF 27
ENDMDL
