MODEL 1
REMARK VINA RESULT:      -8.6      0.000      0.000
REMARK  Name = Deferasirox
REMARK  7 active torsions:
REMARK  status: ('A' for Active; 'I' for Inactive)
REMARK    1  A    between atoms: O_1  and  C_2
REMARK    2  A    between atoms: C_2  and  C_4
REMARK    3  A    between atoms: C_7  and  N_10
REMARK    4  A    between atoms: C_12  and  C_22
REMARK    5  A    between atoms: C_14  and  C_15
REMARK    6  A    between atoms: C_20  and  O_21
REMARK    7  A    between atoms: C_27  and  O_28
REMARK                            x       y       z     vdW  Elec       q    Type
REMARK                         _______ _______ _______ _____ _____    ______ ____
ROOT
ATOM      1  N   UNL     1      -5.661   3.580 124.598  0.00  0.00    +0.000 N 
ATOM      2  N   UNL     1      -5.320   4.400 123.509  0.00  0.00    +0.000 NA
ATOM      3  C   UNL     1      -5.980   3.826 122.455  0.00  0.00    +0.000 A 
ATOM      4  N   UNL     1      -6.665   2.694 122.825  0.00  0.00    +0.000 NA
ATOM      5  C   UNL     1      -6.517   2.593 124.132  0.00  0.00    +0.000 A 
ENDROOT
BRANCH   1   9
ATOM      6  C   UNL     1      -4.010   4.015 128.627  0.00  0.00    +0.000 A 
ATOM      7  C   UNL     1      -3.230   3.539 127.561  0.00  0.00    +0.000 A 
ATOM      8  C   UNL     1      -3.767   3.393 126.244  0.00  0.00    +0.000 A 
ATOM      9  C   UNL     1      -5.111   3.684 125.963  0.00  0.00    +0.000 A 
ATOM     10  C   UNL     1      -5.863   4.238 127.033  0.00  0.00    +0.000 A 
ATOM     11  C   UNL     1      -5.329   4.377 128.351  0.00  0.00    +0.000 A 
BRANCH   6  12
ATOM     12  C   UNL     1      -3.386   4.275 129.964  0.00  0.00    +0.000 C 
ATOM     13  O   UNL     1      -2.591   5.195 130.150  0.00  0.00    +0.000 OA
BRANCH  12  14
ATOM     14  O   UNL     1      -3.751   3.440 130.957  0.00  0.00    +0.000 OA
ATOM     15  H   UNL     1      -4.708   3.323 131.103  0.00  0.00    +0.000 HD
ENDBRANCH  12  14
ENDBRANCH   6  12
ENDBRANCH   1   9
BRANCH   5  16
ATOM     16  C   UNL     1      -7.248   1.631 124.943  0.00  0.00    +0.000 A 
ATOM     17  C   UNL     1      -6.590   0.449 125.302  0.00  0.00    +0.000 A 
ATOM     18  C   UNL     1      -7.289  -0.583 125.920  0.00  0.00    +0.000 A 
ATOM     19  C   UNL     1      -8.632  -0.411 126.252  0.00  0.00    +0.000 A 
ATOM     20  C   UNL     1      -9.293   0.776 125.929  0.00  0.00    +0.000 A 
ATOM     21  C   UNL     1      -8.604   1.789 125.265  0.00  0.00    +0.000 A 
BRANCH  21  22
ATOM     22  O   UNL     1      -9.255   2.936 124.904  0.00  0.00    +0.000 OA
ATOM     23  H   UNL     1      -9.503   2.892 123.965  0.00  0.00    +0.000 HD
ENDBRANCH  21  22
ENDBRANCH   5  16
BRANCH   3  24
ATOM     24  C   UNL     1      -6.112   4.280 121.013  0.00  0.00    +0.000 A 
ATOM     25  C   UNL     1      -7.171   3.904 120.152  0.00  0.00    +0.000 A 
ATOM     26  C   UNL     1      -7.279   4.401 118.819  0.00  0.00    +0.000 A 
ATOM     27  C   UNL     1      -6.390   5.355 118.332  0.00  0.00    +0.000 A 
ATOM     28  C   UNL     1      -5.376   5.798 119.172  0.00  0.00    +0.000 A 
ATOM     29  C   UNL     1      -5.246   5.270 120.483  0.00  0.00    +0.000 A 
BRANCH  29  30
ATOM     30  O   UNL     1      -4.234   5.766 121.264  0.00  0.00    +0.000 OA
ATOM     31  H   UNL     1      -3.473   5.980 120.702  0.00  0.00    +0.000 HD
ENDBRANCH  29  30
ENDBRANCH   3  24
TORSDOF 7
ENDMDL
MODEL 2
REMARK VINA RESULT:      -8.4      7.460      9.316
REMARK  Name = Deferasirox
REMARK  7 active torsions:
REMARK  status: ('A' for Active; 'I' for Inactive)
REMARK    1  A    between atoms: O_1  and  C_2
REMARK    2  A    between atoms: C_2  and  C_4
REMARK    3  A    between atoms: C_7  and  N_10
REMARK    4  A    between atoms: C_12  and  C_22
REMARK    5  A    between atoms: C_14  and  C_15
REMARK    6  A    between atoms: C_20  and  O_21
REMARK    7  A    between atoms: C_27  and  O_28
REMARK                            x       y       z     vdW  Elec       q    Type
REMARK                         _______ _______ _______ _____ _____    ______ ____
ROOT
ATOM      1  N   UNL     1      -9.984   4.414 130.812  0.00  0.00    +0.000 N 
ATOM      2  N   UNL     1     -10.965   4.939 129.954  0.00  0.00    +0.000 NA
ATOM      3  C   UNL     1     -11.152   6.213 130.421  0.00  0.00    +0.000 A 
ATOM      4  N   UNL     1     -10.380   6.480 131.525  0.00  0.00    +0.000 NA
ATOM      5  C   UNL     1      -9.633   5.409 131.711  0.00  0.00    +0.000 A 
ENDROOT
BRANCH   1   9
ATOM      6  C   UNL     1      -8.489   0.303 130.947  0.00  0.00    +0.000 A 
ATOM      7  C   UNL     1      -7.943   1.255 130.072  0.00  0.00    +0.000 A 
ATOM      8  C   UNL     1      -8.430   2.598 130.022  0.00  0.00    +0.000 A 
ATOM      9  C   UNL     1      -9.505   3.019 130.823  0.00  0.00    +0.000 A 
ATOM     10  C   UNL     1      -9.992   2.067 131.758  0.00  0.00    +0.000 A 
ATOM     11  C   UNL     1      -9.510   0.723 131.801  0.00  0.00    +0.000 A 
BRANCH   6  12
ATOM     12  C   UNL     1      -7.875  -1.058 131.064  0.00  0.00    +0.000 C 
ATOM     13  O   UNL     1      -7.368  -1.462 132.109  0.00  0.00    +0.000 OA
BRANCH  12  14
ATOM     14  O   UNL     1      -7.914  -1.819 129.952  0.00  0.00    +0.000 OA
ATOM     15  H   UNL     1      -8.620  -2.489 129.904  0.00  0.00    +0.000 HD
ENDBRANCH  12  14
ENDBRANCH   6  12
ENDBRANCH   1   9
BRANCH   5  16
ATOM     16  C   UNL     1      -8.538   5.360 132.669  0.00  0.00    +0.000 A 
ATOM     17  C   UNL     1      -7.309   5.906 132.283  0.00  0.00    +0.000 A 
ATOM     18  C   UNL     1      -6.182   5.730 133.080  0.00  0.00    +0.000 A 
ATOM     19  C   UNL     1      -6.293   5.073 134.304  0.00  0.00    +0.000 A 
ATOM     20  C   UNL     1      -7.521   4.552 134.718  0.00  0.00    +0.000 A 
ATOM     21  C   UNL     1      -8.637   4.686 133.895  0.00  0.00    +0.000 A 
BRANCH  21  22
ATOM     22  O   UNL     1      -9.833   4.138 134.271  0.00  0.00    +0.000 OA
ATOM     23  H   UNL     1     -10.453   4.158 133.523  0.00  0.00    +0.000 HD
ENDBRANCH  21  22
ENDBRANCH   5  16
BRANCH   3  24
ATOM     24  C   UNL     1     -12.004   7.345 129.875  0.00  0.00    +0.000 A 
ATOM     25  C   UNL     1     -12.443   8.453 130.640  0.00  0.00    +0.000 A 
ATOM     26  C   UNL     1     -13.198   9.519 130.068  0.00  0.00    +0.000 A 
ATOM     27  C   UNL     1     -13.461   9.562 128.702  0.00  0.00    +0.000 A 
ATOM     28  C   UNL     1     -12.989   8.525 127.908  0.00  0.00    +0.000 A 
ATOM     29  C   UNL     1     -12.275   7.444 128.487  0.00  0.00    +0.000 A 
BRANCH  29  30
ATOM     30  O   UNL     1     -11.820   6.464 127.642  0.00  0.00    +0.000 OA
ATOM     31  H   UNL     1     -10.856   6.532 127.564  0.00  0.00    +0.000 HD
ENDBRANCH  29  30
ENDBRANCH   3  24
TORSDOF 7
ENDMDL
MODEL 3
REMARK VINA RESULT:      -8.2      2.218      4.709
REMARK  Name = Deferasirox
REMARK  7 active torsions:
REMARK  status: ('A' for Active; 'I' for Inactive)
REMARK    1  A    between atoms: O_1  and  C_2
REMARK    2  A    between atoms: C_2  and  C_4
REMARK    3  A    between atoms: C_7  and  N_10
REMARK    4  A    between atoms: C_12  and  C_22
REMARK    5  A    between atoms: C_14  and  C_15
REMARK    6  A    between atoms: C_20  and  O_21
REMARK    7  A    between atoms: C_27  and  O_28
REMARK                            x       y       z     vdW  Elec       q    Type
REMARK                         _______ _______ _______ _____ _____    ______ ____
ROOT
ATOM      1  N   UNL     1      -6.537   1.811 124.290  0.00  0.00    +0.000 N 
ATOM      2  N   UNL     1      -6.816   1.876 122.914  0.00  0.00    +0.000 NA
ATOM      3  C   UNL     1      -6.453   3.152 122.574  0.00  0.00    +0.000 A 
ATOM      4  N   UNL     1      -6.010   3.873 123.656  0.00  0.00    +0.000 NA
ATOM      5  C   UNL     1      -6.005   3.032 124.672  0.00  0.00    +0.000 A 
ENDROOT
BRANCH   1   9
ATOM      6  C   UNL     1      -7.544  -1.601 126.839  0.00  0.00    +0.000 A 
ATOM      7  C   UNL     1      -8.421  -0.516 126.684  0.00  0.00    +0.000 A 
ATOM      8  C   UNL     1      -8.094   0.602 125.855  0.00  0.00    +0.000 A 
ATOM      9  C   UNL     1      -6.863   0.683 125.184  0.00  0.00    +0.000 A 
ATOM     10  C   UNL     1      -6.024  -0.458 125.288  0.00  0.00    +0.000 A 
ATOM     11  C   UNL     1      -6.346  -1.571 126.123  0.00  0.00    +0.000 A 
BRANCH   6  12
ATOM     12  C   UNL     1      -7.968  -2.811 127.614  0.00  0.00    +0.000 C 
ATOM     13  O   UNL     1      -8.798  -3.610 127.182  0.00  0.00    +0.000 OA
BRANCH  12  14
ATOM     14  O   UNL     1      -7.381  -2.976 128.816  0.00  0.00    +0.000 OA
ATOM     15  H   UNL     1      -6.417  -3.115 128.818  0.00  0.00    +0.000 HD
ENDBRANCH  12  14
ENDBRANCH   6  12
ENDBRANCH   1   9
BRANCH   5  16
ATOM     16  C   UNL     1      -5.421   3.353 125.966  0.00  0.00    +0.000 A 
ATOM     17  C   UNL     1      -4.219   2.724 126.313  0.00  0.00    +0.000 A 
ATOM     18  C   UNL     1      -3.708   2.849 127.601  0.00  0.00    +0.000 A 
ATOM     19  C   UNL     1      -4.353   3.667 128.527  0.00  0.00    +0.000 A 
ATOM     20  C   UNL     1      -5.535   4.327 128.185  0.00  0.00    +0.000 A 
ATOM     21  C   UNL     1      -6.072   4.160 126.911  0.00  0.00    +0.000 A 
BRANCH  21  22
ATOM     22  O   UNL     1      -7.254   4.766 126.582  0.00  0.00    +0.000 OA
ATOM     23  H   UNL     1      -7.246   5.014 125.642  0.00  0.00    +0.000 HD
ENDBRANCH  21  22
ENDBRANCH   5  16
BRANCH   3  24
ATOM     24  C   UNL     1      -6.407   3.832 121.218  0.00  0.00    +0.000 A 
ATOM     25  C   UNL     1      -7.484   3.853 120.299  0.00  0.00    +0.000 A 
ATOM     26  C   UNL     1      -7.411   4.552 119.057  0.00  0.00    +0.000 A 
ATOM     27  C   UNL     1      -6.301   5.325 118.732  0.00  0.00    +0.000 A 
ATOM     28  C   UNL     1      -5.250   5.383 119.639  0.00  0.00    +0.000 A 
ATOM     29  C   UNL     1      -5.309   4.652 120.854  0.00  0.00    +0.000 A 
BRANCH  29  30
ATOM     30  O   UNL     1      -4.245   4.770 121.713  0.00  0.00    +0.000 OA
ATOM     31  H   UNL     1      -4.481   4.379 122.568  0.00  0.00    +0.000 HD
ENDBRANCH  29  30
ENDBRANCH   3  24
TORSDOF 7
ENDMDL
MODEL 4
REMARK VINA RESULT:      -8.1      3.474      7.981
REMARK  Name = Deferasirox
REMARK  7 active torsions:
REMARK  status: ('A' for Active; 'I' for Inactive)
REMARK    1  A    between atoms: O_1  and  C_2
REMARK    2  A    between atoms: C_2  and  C_4
REMARK    3  A    between atoms: C_7  and  N_10
REMARK    4  A    between atoms: C_12  and  C_22
REMARK    5  A    between atoms: C_14  and  C_15
REMARK    6  A    between atoms: C_20  and  O_21
REMARK    7  A    between atoms: C_27  and  O_28
REMARK                            x       y       z     vdW  Elec       q    Type
REMARK                         _______ _______ _______ _____ _____    ______ ____
ROOT
ATOM      1  N   UNL     1      -7.997   1.674 126.091  0.00  0.00    +0.000 N 
ATOM      2  N   UNL     1      -8.361   2.457 127.200  0.00  0.00    +0.000 NA
ATOM      3  C   UNL     1      -8.474   1.543 128.214  0.00  0.00    +0.000 A 
ATOM      4  N   UNL     1      -8.241   0.259 127.786  0.00  0.00    +0.000 NA
ATOM      5  C   UNL     1      -7.891   0.359 126.518  0.00  0.00    +0.000 A 
ENDROOT
BRANCH   1   9
ATOM      6  C   UNL     1      -7.632   3.215 122.011  0.00  0.00    +0.000 A 
ATOM      7  C   UNL     1      -8.836   2.672 122.486  0.00  0.00    +0.000 A 
ATOM      8  C   UNL     1      -8.958   2.164 123.817  0.00  0.00    +0.000 A 
ATOM      9  C   UNL     1      -7.867   2.153 124.702  0.00  0.00    +0.000 A 
ATOM     10  C   UNL     1      -6.681   2.778 124.232  0.00  0.00    +0.000 A 
ATOM     11  C   UNL     1      -6.557   3.277 122.900  0.00  0.00    +0.000 A 
BRANCH   6  12
ATOM     12  C   UNL     1      -7.571   3.851 120.656  0.00  0.00    +0.000 C 
ATOM     13  O   UNL     1      -6.507   4.179 120.132  0.00  0.00    +0.000 OA
BRANCH  12  14
ATOM     14  O   UNL     1      -8.755   4.040 120.040  0.00  0.00    +0.000 OA
ATOM     15  H   UNL     1      -9.388   3.300 120.072  0.00  0.00    +0.000 HD
ENDBRANCH  12  14
ENDBRANCH   6  12
ENDBRANCH   1   9
BRANCH   5  16
ATOM     16  C   UNL     1      -7.377  -0.761 125.744  0.00  0.00    +0.000 A 
ATOM     17  C   UNL     1      -6.005  -0.790 125.471  0.00  0.00    +0.000 A 
ATOM     18  C   UNL     1      -5.484  -1.732 124.590  0.00  0.00    +0.000 A 
ATOM     19  C   UNL     1      -6.320  -2.701 124.036  0.00  0.00    +0.000 A 
ATOM     20  C   UNL     1      -7.686  -2.705 124.326  0.00  0.00    +0.000 A 
ATOM     21  C   UNL     1      -8.213  -1.729 125.169  0.00  0.00    +0.000 A 
BRANCH  21  22
ATOM     22  O   UNL     1      -9.557  -1.698 125.422  0.00  0.00    +0.000 OA
ATOM     23  H   UNL     1      -9.914  -0.823 125.196  0.00  0.00    +0.000 HD
ENDBRANCH  21  22
ENDBRANCH   5  16
BRANCH   3  24
ATOM     24  C   UNL     1      -8.742   1.746 129.694  0.00  0.00    +0.000 A 
ATOM     25  C   UNL     1      -8.434   0.797 130.699  0.00  0.00    +0.000 A 
ATOM     26  C   UNL     1      -8.657   1.057 132.084  0.00  0.00    +0.000 A 
ATOM     27  C   UNL     1      -9.107   2.299 132.519  0.00  0.00    +0.000 A 
ATOM     28  C   UNL     1      -9.357   3.279 131.567  0.00  0.00    +0.000 A 
ATOM     29  C   UNL     1      -9.175   3.003 130.187  0.00  0.00    +0.000 A 
BRANCH  29  30
ATOM     30  O   UNL     1      -9.422   4.023 129.303  0.00  0.00    +0.000 OA
ATOM     31  H   UNL     1      -8.580   4.420 129.030  0.00  0.00    +0.000 HD
ENDBRANCH  29  30
ENDBRANCH   3  24
TORSDOF 7
ENDMDL
MODEL 5
REMARK VINA RESULT:      -8.0      5.807      8.471
REMARK  Name = Deferasirox
REMARK  7 active torsions:
REMARK  status: ('A' for Active; 'I' for Inactive)
REMARK    1  A    between atoms: O_1  and  C_2
REMARK    2  A    between atoms: C_2  and  C_4
REMARK    3  A    between atoms: C_7  and  N_10
REMARK    4  A    between atoms: C_12  and  C_22
REMARK    5  A    between atoms: C_14  and  C_15
REMARK    6  A    between atoms: C_20  and  O_21
REMARK    7  A    between atoms: C_27  and  O_28
REMARK                            x       y       z     vdW  Elec       q    Type
REMARK                         _______ _______ _______ _____ _____    ______ ____
ROOT
ATOM      1  N   UNL     1      -8.879   3.489 130.026  0.00  0.00    +0.000 N 
ATOM      2  N   UNL     1     -10.131   4.121 129.941  0.00  0.00    +0.000 NA
ATOM      3  C   UNL     1      -9.818   5.455 129.938  0.00  0.00    +0.000 A 
ATOM      4  N   UNL     1      -8.466   5.671 130.054  0.00  0.00    +0.000 NA
ATOM      5  C   UNL     1      -7.907   4.477 130.041  0.00  0.00    +0.000 A 
ENDROOT
BRANCH   1   9
ATOM      6  C   UNL     1      -8.100  -0.783 130.569  0.00  0.00    +0.000 A 
ATOM      7  C   UNL     1      -7.800  -0.129 129.364  0.00  0.00    +0.000 A 
ATOM      8  C   UNL     1      -8.056   1.265 129.181  0.00  0.00    +0.000 A 
ATOM      9  C   UNL     1      -8.654   2.040 130.189  0.00  0.00    +0.000 A 
ATOM     10  C   UNL     1      -8.876   1.381 131.428  0.00  0.00    +0.000 A 
ATOM     11  C   UNL     1      -8.628  -0.014 131.607  0.00  0.00    +0.000 A 
BRANCH   6  12
ATOM     12  C   UNL     1      -7.706  -2.214 130.773  0.00  0.00    +0.000 C 
ATOM     13  O   UNL     1      -7.108  -2.594 131.779  0.00  0.00    +0.000 OA
BRANCH  12  14
ATOM     14  O   UNL     1      -8.049  -3.066 129.786  0.00  0.00    +0.000 OA
ATOM     15  H   UNL     1      -7.356  -3.676 129.473  0.00  0.00    +0.000 HD
ENDBRANCH  12  14
ENDBRANCH   6  12
ENDBRANCH   1   9
BRANCH   5  16
ATOM     16  C   UNL     1      -6.468   4.274 129.953  0.00  0.00    +0.000 A 
ATOM     17  C   UNL     1      -5.768   4.051 131.145  0.00  0.00    +0.000 A 
ATOM     18  C   UNL     1      -4.376   4.030 131.147  0.00  0.00    +0.000 A 
ATOM     19  C   UNL     1      -3.679   4.153 129.947  0.00  0.00    +0.000 A 
ATOM     20  C   UNL     1      -4.366   4.343 128.745  0.00  0.00    +0.000 A 
ATOM     21  C   UNL     1      -5.757   4.414 128.753  0.00  0.00    +0.000 A 
BRANCH  21  22
ATOM     22  O   UNL     1      -6.436   4.646 127.588  0.00  0.00    +0.000 OA
ATOM     23  H   UNL     1      -7.163   4.008 127.499  0.00  0.00    +0.000 HD
ENDBRANCH  21  22
ENDBRANCH   5  16
BRANCH   3  24
ATOM     24  C   UNL     1     -10.706   6.673 129.764  0.00  0.00    +0.000 A 
ATOM     25  C   UNL     1     -10.645   7.554 128.658  0.00  0.00    +0.000 A 
ATOM     26  C   UNL     1     -11.538   8.657 128.513  0.00  0.00    +0.000 A 
ATOM     27  C   UNL     1     -12.577   8.863 129.416  0.00  0.00    +0.000 A 
ATOM     28  C   UNL     1     -12.710   7.979 130.480  0.00  0.00    +0.000 A 
ATOM     29  C   UNL     1     -11.793   6.909 130.643  0.00  0.00    +0.000 A 
BRANCH  29  30
ATOM     30  O   UNL     1     -11.996   6.063 131.705  0.00  0.00    +0.000 OA
ATOM     31  H   UNL     1     -11.424   6.332 132.440  0.00  0.00    +0.000 HD
ENDBRANCH  29  30
ENDBRANCH   3  24
TORSDOF 7
ENDMDL
MODEL 6
REMARK VINA RESULT:      -7.9      2.449      3.162
REMARK  Name = Deferasirox
REMARK  7 active torsions:
REMARK  status: ('A' for Active; 'I' for Inactive)
REMARK    1  A    between atoms: O_1  and  C_2
REMARK    2  A    between atoms: C_2  and  C_4
REMARK    3  A    between atoms: C_7  and  N_10
REMARK    4  A    between atoms: C_12  and  C_22
REMARK    5  A    between atoms: C_14  and  C_15
REMARK    6  A    between atoms: C_20  and  O_21
REMARK    7  A    between atoms: C_27  and  O_28
REMARK                            x       y       z     vdW  Elec       q    Type
REMARK                         _______ _______ _______ _____ _____    ______ ____
ROOT
ATOM      1  N   UNL     1      -7.085   2.061 124.369  0.00  0.00    +0.000 N 
ATOM      2  N   UNL     1      -6.836   3.269 123.696  0.00  0.00    +0.000 NA
ATOM      3  C   UNL     1      -6.660   2.881 122.394  0.00  0.00    +0.000 A 
ATOM      4  N   UNL     1      -6.747   1.518 122.242  0.00  0.00    +0.000 NA
ATOM      5  C   UNL     1      -7.068   1.042 123.429  0.00  0.00    +0.000 A 
ENDROOT
BRANCH   1   9
ATOM      6  C   UNL     1      -7.466   1.456 128.687  0.00  0.00    +0.000 A 
ATOM      7  C   UNL     1      -8.593   1.521 127.852  0.00  0.00    +0.000 A 
ATOM      8  C   UNL     1      -8.473   1.721 126.441  0.00  0.00    +0.000 A 
ATOM      9  C   UNL     1      -7.221   1.899 125.829  0.00  0.00    +0.000 A 
ATOM     10  C   UNL     1      -6.090   1.751 126.676  0.00  0.00    +0.000 A 
ATOM     11  C   UNL     1      -6.211   1.559 128.086  0.00  0.00    +0.000 A 
BRANCH   6  12
ATOM     12  C   UNL     1      -7.619   1.121 130.139  0.00  0.00    +0.000 C 
ATOM     13  O   UNL     1      -7.309   1.910 131.031  0.00  0.00    +0.000 OA
BRANCH  12  14
ATOM     14  O   UNL     1      -8.121  -0.100 130.412  0.00  0.00    +0.000 OA
ATOM     15  H   UNL     1      -8.163  -0.732 129.672  0.00  0.00    +0.000 HD
ENDBRANCH  12  14
ENDBRANCH   6  12
ENDBRANCH   1   9
BRANCH   5  16
ATOM     16  C   UNL     1      -7.442  -0.347 123.655  0.00  0.00    +0.000 A 
ATOM     17  C   UNL     1      -6.427  -1.247 124.000  0.00  0.00    +0.000 A 
ATOM     18  C   UNL     1      -6.689  -2.613 124.051  0.00  0.00    +0.000 A 
ATOM     19  C   UNL     1      -7.984  -3.080 123.834  0.00  0.00    +0.000 A 
ATOM     20  C   UNL     1      -9.014  -2.190 123.522  0.00  0.00    +0.000 A 
ATOM     21  C   UNL     1      -8.738  -0.828 123.421  0.00  0.00    +0.000 A 
BRANCH  21  22
ATOM     22  O   UNL     1      -9.731   0.046 123.070  0.00  0.00    +0.000 OA
ATOM     23  H   UNL     1      -9.407   0.653 122.383  0.00  0.00    +0.000 HD
ENDBRANCH  21  22
ENDBRANCH   5  16
BRANCH   3  24
ATOM     24  C   UNL     1      -6.458   3.711 121.140  0.00  0.00    +0.000 A 
ATOM     25  C   UNL     1      -7.408   3.822 120.095  0.00  0.00    +0.000 A 
ATOM     26  C   UNL     1      -7.194   4.658 118.959  0.00  0.00    +0.000 A 
ATOM     27  C   UNL     1      -6.072   5.477 118.870  0.00  0.00    +0.000 A 
ATOM     28  C   UNL     1      -5.148   5.443 119.908  0.00  0.00    +0.000 A 
ATOM     29  C   UNL     1      -5.344   4.579 121.016  0.00  0.00    +0.000 A 
BRANCH  29  30
ATOM     30  O   UNL     1      -4.403   4.612 122.014  0.00  0.00    +0.000 OA
ATOM     31  H   UNL     1      -4.756   5.110 122.768  0.00  0.00    +0.000 HD
ENDBRANCH  29  30
ENDBRANCH   3  24
TORSDOF 7
ENDMDL
MODEL 7
REMARK VINA RESULT:      -7.9      4.290      8.408
REMARK  Name = Deferasirox
REMARK  7 active torsions:
REMARK  status: ('A' for Active; 'I' for Inactive)
REMARK    1  A    between atoms: O_1  and  C_2
REMARK    2  A    between atoms: C_2  and  C_4
REMARK    3  A    between atoms: C_7  and  N_10
REMARK    4  A    between atoms: C_12  and  C_22
REMARK    5  A    between atoms: C_14  and  C_15
REMARK    6  A    between atoms: C_20  and  O_21
REMARK    7  A    between atoms: C_27  and  O_28
REMARK                            x       y       z     vdW  Elec       q    Type
REMARK                         _______ _______ _______ _____ _____    ______ ____
ROOT
ATOM      1  N   UNL     1      -6.455  -0.415 127.288  0.00  0.00    +0.000 N 
ATOM      2  N   UNL     1      -6.180  -0.664 128.643  0.00  0.00    +0.000 NA
ATOM      3  C   UNL     1      -6.536  -1.977 128.807  0.00  0.00    +0.000 A 
ATOM      4  N   UNL     1      -7.043  -2.526 127.654  0.00  0.00    +0.000 NA
ATOM      5  C   UNL     1      -6.928  -1.593 126.729  0.00  0.00    +0.000 A 
ENDROOT
BRANCH   1   9
ATOM      6  C   UNL     1      -6.181   3.412 125.183  0.00  0.00    +0.000 A 
ATOM      7  C   UNL     1      -5.062   2.832 125.801  0.00  0.00    +0.000 A 
ATOM      8  C   UNL     1      -5.148   1.583 126.493  0.00  0.00    +0.000 A 
ATOM      9  C   UNL     1      -6.366   0.895 126.616  0.00  0.00    +0.000 A 
ATOM     10  C   UNL     1      -7.469   1.456 125.918  0.00  0.00    +0.000 A 
ATOM     11  C   UNL     1      -7.385   2.707 125.235  0.00  0.00    +0.000 A 
BRANCH   6  12
ATOM     12  C   UNL     1      -6.032   4.656 124.362  0.00  0.00    +0.000 C 
ATOM     13  O   UNL     1      -5.597   4.634 123.211  0.00  0.00    +0.000 OA
BRANCH  12  14
ATOM     14  O   UNL     1      -6.406   5.805 124.960  0.00  0.00    +0.000 OA
ATOM     15  H   UNL     1      -6.130   5.927 125.886  0.00  0.00    +0.000 HD
ENDBRANCH  12  14
ENDBRANCH   6  12
ENDBRANCH   1   9
BRANCH   5  16
ATOM     16  C   UNL     1      -7.179  -1.838 125.316  0.00  0.00    +0.000 A 
ATOM     17  C   UNL     1      -6.086  -1.792 124.443  0.00  0.00    +0.000 A 
ATOM     18  C   UNL     1      -6.285  -1.839 123.067  0.00  0.00    +0.000 A 
ATOM     19  C   UNL     1      -7.571  -2.011 122.558  0.00  0.00    +0.000 A 
ATOM     20  C   UNL     1      -8.668  -2.092 123.418  0.00  0.00    +0.000 A 
ATOM     21  C   UNL     1      -8.471  -1.994 124.794  0.00  0.00    +0.000 A 
BRANCH  21  22
ATOM     22  O   UNL     1      -9.544  -2.026 125.642  0.00  0.00    +0.000 OA
ATOM     23  H   UNL     1      -9.639  -1.167 126.085  0.00  0.00    +0.000 HD
ENDBRANCH  21  22
ENDBRANCH   5  16
BRANCH   3  24
ATOM     24  C   UNL     1      -6.394  -2.891 130.010  0.00  0.00    +0.000 A 
ATOM     25  C   UNL     1      -5.554  -4.031 130.051  0.00  0.00    +0.000 A 
ATOM     26  C   UNL     1      -5.414  -4.830 131.225  0.00  0.00    +0.000 A 
ATOM     27  C   UNL     1      -6.033  -4.469 132.418  0.00  0.00    +0.000 A 
ATOM     28  C   UNL     1      -6.813  -3.319 132.434  0.00  0.00    +0.000 A 
ATOM     29  C   UNL     1      -6.984  -2.551 131.253  0.00  0.00    +0.000 A 
BRANCH  29  30
ATOM     30  O   UNL     1      -7.751  -1.417 131.345  0.00  0.00    +0.000 OA
ATOM     31  H   UNL     1      -8.363  -1.385 130.594  0.00  0.00    +0.000 HD
ENDBRANCH  29  30
ENDBRANCH   3  24
TORSDOF 7
ENDMDL
MODEL 8
REMARK VINA RESULT:      -7.7      1.417      2.050
REMARK  Name = Deferasirox
REMARK  7 active torsions:
REMARK  status: ('A' for Active; 'I' for Inactive)
REMARK    1  A    between atoms: O_1  and  C_2
REMARK    2  A    between atoms: C_2  and  C_4
REMARK    3  A    between atoms: C_7  and  N_10
REMARK    4  A    between atoms: C_12  and  C_22
REMARK    5  A    between atoms: C_14  and  C_15
REMARK    6  A    between atoms: C_20  and  O_21
REMARK    7  A    between atoms: C_27  and  O_28
REMARK                            x       y       z     vdW  Elec       q    Type
REMARK                         _______ _______ _______ _____ _____    ______ ____
ROOT
ATOM      1  N   UNL     1      -5.541   3.611 125.270  0.00  0.00    +0.000 N 
ATOM      2  N   UNL     1      -5.566   4.439 124.134  0.00  0.00    +0.000 NA
ATOM      3  C   UNL     1      -6.145   3.651 123.175  0.00  0.00    +0.000 A 
ATOM      4  N   UNL     1      -6.436   2.392 123.643  0.00  0.00    +0.000 NA
ATOM      5  C   UNL     1      -6.126   2.403 124.925  0.00  0.00    +0.000 A 
ENDROOT
BRANCH   1   9
ATOM      6  C   UNL     1      -3.636   4.444 129.121  0.00  0.00    +0.000 A 
ATOM      7  C   UNL     1      -5.025   4.554 128.949  0.00  0.00    +0.000 A 
ATOM      8  C   UNL     1      -5.651   4.286 127.692  0.00  0.00    +0.000 A 
ATOM      9  C   UNL     1      -4.900   3.934 126.559  0.00  0.00    +0.000 A 
ATOM     10  C   UNL     1      -3.507   3.749 126.770  0.00  0.00    +0.000 A 
ATOM     11  C   UNL     1      -2.881   4.025 128.024  0.00  0.00    +0.000 A 
BRANCH   6  12
ATOM     12  C   UNL     1      -3.026   4.609 130.479  0.00  0.00    +0.000 C 
ATOM     13  O   UNL     1      -3.277   3.845 131.410  0.00  0.00    +0.000 OA
BRANCH  12  14
ATOM     14  O   UNL     1      -2.178   5.648 130.622  0.00  0.00    +0.000 OA
ATOM     15  H   UNL     1      -1.576   5.620 131.387  0.00  0.00    +0.000 HD
ENDBRANCH  12  14
ENDBRANCH   6  12
ENDBRANCH   1   9
BRANCH   5  16
ATOM     16  C   UNL     1      -6.461   1.316 125.833  0.00  0.00    +0.000 A 
ATOM     17  C   UNL     1      -5.495   0.326 126.050  0.00  0.00    +0.000 A 
ATOM     18  C   UNL     1      -5.818  -0.826 126.761  0.00  0.00    +0.000 A 
ATOM     19  C   UNL     1      -7.085  -0.961 127.325  0.00  0.00    +0.000 A 
ATOM     20  C   UNL     1      -8.049   0.034 127.145  0.00  0.00    +0.000 A 
ATOM     21  C   UNL     1      -7.739   1.163 126.391  0.00  0.00    +0.000 A 
BRANCH  21  22
ATOM     22  O   UNL     1      -8.692   2.121 126.170  0.00  0.00    +0.000 OA
ATOM     23  H   UNL     1      -9.577   1.737 126.288  0.00  0.00    +0.000 HD
ENDBRANCH  21  22
ENDBRANCH   5  16
BRANCH   3  24
ATOM     24  C   UNL     1      -6.556   3.977 121.751  0.00  0.00    +0.000 A 
ATOM     25  C   UNL     1      -5.652   4.333 120.722  0.00  0.00    +0.000 A 
ATOM     26  C   UNL     1      -6.082   4.579 119.384  0.00  0.00    +0.000 A 
ATOM     27  C   UNL     1      -7.409   4.391 119.009  0.00  0.00    +0.000 A 
ATOM     28  C   UNL     1      -8.314   3.978 119.979  0.00  0.00    +0.000 A 
ATOM     29  C   UNL     1      -7.890   3.776 121.318  0.00  0.00    +0.000 A 
BRANCH  29  30
ATOM     30  O   UNL     1      -8.833   3.349 122.219  0.00  0.00    +0.000 OA
ATOM     31  H   UNL     1      -9.671   3.196 121.755  0.00  0.00    +0.000 HD
ENDBRANCH  29  30
ENDBRANCH   3  24
TORSDOF 7
ENDMDL
MODEL 9
REMARK VINA RESULT:      -7.7      7.045     10.428
REMARK  Name = Deferasirox
REMARK  7 active torsions:
REMARK  status: ('A' for Active; 'I' for Inactive)
REMARK    1  A    between atoms: O_1  and  C_2
REMARK    2  A    between atoms: C_2  and  C_4
REMARK    3  A    between atoms: C_7  and  N_10
REMARK    4  A    between atoms: C_12  and  C_22
REMARK    5  A    between atoms: C_14  and  C_15
REMARK    6  A    between atoms: C_20  and  O_21
REMARK    7  A    between atoms: C_27  and  O_28
REMARK                            x       y       z     vdW  Elec       q    Type
REMARK                         _______ _______ _______ _____ _____    ______ ____
ROOT
ATOM      1  N   UNL     1      -7.558  -0.763 130.425  0.00  0.00    +0.000 N 
ATOM      2  N   UNL     1      -8.047   0.517 130.738  0.00  0.00    +0.000 NA
ATOM      3  C   UNL     1      -7.710   0.677 132.056  0.00  0.00    +0.000 A 
ATOM      4  N   UNL     1      -7.087  -0.434 132.571  0.00  0.00    +0.000 NA
ATOM      5  C   UNL     1      -6.943  -1.269 131.560  0.00  0.00    +0.000 A 
ENDROOT
BRANCH   1   9
ATOM      6  C   UNL     1      -8.290  -2.824 126.635  0.00  0.00    +0.000 A 
ATOM      7  C   UNL     1      -8.631  -3.406 127.866  0.00  0.00    +0.000 A 
ATOM      8  C   UNL     1      -8.391  -2.738 129.106  0.00  0.00    +0.000 A 
ATOM      9  C   UNL     1      -7.768  -1.480 129.153  0.00  0.00    +0.000 A 
ATOM     10  C   UNL     1      -7.503  -0.872 127.898  0.00  0.00    +0.000 A 
ATOM     11  C   UNL     1      -7.735  -1.544 126.659  0.00  0.00    +0.000 A 
BRANCH   6  12
ATOM     12  C   UNL     1      -8.668  -3.495 125.350  0.00  0.00    +0.000 C 
ATOM     13  O   UNL     1      -7.907  -4.262 124.761  0.00  0.00    +0.000 OA
BRANCH  12  14
ATOM     14  O   UNL     1      -9.897  -3.209 124.875  0.00  0.00    +0.000 OA
ATOM     15  H   UNL     1     -10.057  -2.289 124.598  0.00  0.00    +0.000 HD
ENDBRANCH  12  14
ENDBRANCH   6  12
ENDBRANCH   1   9
BRANCH   5  16
ATOM     16  C   UNL     1      -6.157  -2.491 131.644  0.00  0.00    +0.000 A 
ATOM     17  C   UNL     1      -5.081  -2.635 130.760  0.00  0.00    +0.000 A 
ATOM     18  C   UNL     1      -4.406  -3.849 130.669  0.00  0.00    +0.000 A 
ATOM     19  C   UNL     1      -4.753  -4.901 131.515  0.00  0.00    +0.000 A 
ATOM     20  C   UNL     1      -5.803  -4.760 132.425  0.00  0.00    +0.000 A 
ATOM     21  C   UNL     1      -6.510  -3.561 132.479  0.00  0.00    +0.000 A 
BRANCH  21  22
ATOM     22  O   UNL     1      -7.569  -3.430 133.335  0.00  0.00    +0.000 OA
ATOM     23  H   UNL     1      -8.267  -2.900 132.915  0.00  0.00    +0.000 HD
ENDBRANCH  21  22
ENDBRANCH   5  16
BRANCH   3  24
ATOM     24  C   UNL     1      -7.861   1.878 132.970  0.00  0.00    +0.000 A 
ATOM     25  C   UNL     1      -6.795   2.477 133.684  0.00  0.00    +0.000 A 
ATOM     26  C   UNL     1      -6.977   3.639 134.491  0.00  0.00    +0.000 A 
ATOM     27  C   UNL     1      -8.204   4.294 134.541  0.00  0.00    +0.000 A 
ATOM     28  C   UNL     1      -9.259   3.774 133.801  0.00  0.00    +0.000 A 
ATOM     29  C   UNL     1      -9.084   2.593 133.033  0.00  0.00    +0.000 A 
BRANCH  29  30
ATOM     30  O   UNL     1     -10.162   2.146 132.311  0.00  0.00    +0.000 OA
ATOM     31  H   UNL     1     -10.645   1.488 132.836  0.00  0.00    +0.000 HD
ENDBRANCH  29  30
ENDBRANCH   3  24
TORSDOF 7
ENDMDL
