MODEL 1
REMARK VINA RESULT:      -4.9      0.000      0.000
REMARK  Name = Deferiprone
REMARK  3 active torsions:
REMARK  status: ('A' for Active; 'I' for Inactive)
REMARK    1  A    between atoms: C_1  and  N_2
REMARK    2  A    between atoms: C_7  and  O_8
REMARK    3  A    between atoms: C_9  and  C_10
REMARK                            x       y       z     vdW  Elec       q    Type
REMARK                         _______ _______ _______ _____ _____    ______ ____
ROOT
ATOM      1  C   UNL     1     -13.359   8.192 128.454  0.00  0.00    +0.000 C 
ATOM      2  N   UNL     1     -12.379   7.791 129.473  0.00  0.00    +0.000 N 
ATOM      3  C   UNL     1     -12.813   7.213 130.660  0.00  0.00    +0.000 A 
ATOM      4  C   UNL     1     -12.019   6.577 131.529  0.00  0.00    +0.000 A 
ATOM      5  C   UNL     1     -10.565   6.723 131.339  0.00  0.00    +0.000 A 
ATOM      6  O   UNL     1      -9.757   6.322 132.181  0.00  0.00    +0.000 OA
ATOM      7  C   UNL     1     -10.079   7.393 130.099  0.00  0.00    +0.000 A 
ATOM      8  C   UNL     1     -10.993   7.803 129.194  0.00  0.00    +0.000 A 
ATOM      9  C   UNL     1     -10.536   8.248 127.828  0.00  0.00    +0.000 C 
ENDROOT
BRANCH   7  10
ATOM     10  O   UNL     1      -8.716   7.543 129.928  0.00  0.00    +0.000 OA
ATOM     11  H   UNL     1      -8.594   8.486 129.697  0.00  0.00    +0.000 HD
ENDBRANCH   7  10
TORSDOF 1
ENDMDL
MODEL 2
REMARK VINA RESULT:      -4.8      2.123      3.447
REMARK  Name = Deferiprone
REMARK  3 active torsions:
REMARK  status: ('A' for Active; 'I' for Inactive)
REMARK    1  A    between atoms: C_1  and  N_2
REMARK    2  A    between atoms: C_7  and  O_8
REMARK    3  A    between atoms: C_9  and  C_10
REMARK                            x       y       z     vdW  Elec       q    Type
REMARK                         _______ _______ _______ _____ _____    ______ ____
ROOT
ATOM      1  C   UNL     1     -12.563   7.216 131.334  0.00  0.00    +0.000 C 
ATOM      2  N   UNL     1     -12.382   7.108 129.880  0.00  0.00    +0.000 N 
ATOM      3  C   UNL     1     -13.463   7.319 129.032  0.00  0.00    +0.000 A 
ATOM      4  C   UNL     1     -13.364   7.509 127.711  0.00  0.00    +0.000 A 
ATOM      5  C   UNL     1     -12.060   7.221 127.088  0.00  0.00    +0.000 A 
ATOM      6  O   UNL     1     -11.918   7.198 125.862  0.00  0.00    +0.000 OA
ATOM      7  C   UNL     1     -10.900   6.934 127.980  0.00  0.00    +0.000 A 
ATOM      8  C   UNL     1     -11.092   6.985 129.315  0.00  0.00    +0.000 A 
ATOM      9  C   UNL     1      -9.900   6.953 130.237  0.00  0.00    +0.000 C 
ENDROOT
BRANCH   7  10
ATOM     10  O   UNL     1      -9.680   6.650 127.395  0.00  0.00    +0.000 OA
ATOM     11  H   UNL     1      -9.830   6.765 126.434  0.00  0.00    +0.000 HD
ENDBRANCH   7  10
TORSDOF 1
ENDMDL
MODEL 3
REMARK VINA RESULT:      -4.8      1.957      3.162
REMARK  Name = Deferiprone
REMARK  3 active torsions:
REMARK  status: ('A' for Active; 'I' for Inactive)
REMARK    1  A    between atoms: C_1  and  N_2
REMARK    2  A    between atoms: C_7  and  O_8
REMARK    3  A    between atoms: C_9  and  C_10
REMARK                            x       y       z     vdW  Elec       q    Type
REMARK                         _______ _______ _______ _____ _____    ______ ____
ROOT
ATOM      1  C   UNL     1     -10.205   5.773 132.590  0.00  0.00    +0.000 C 
ATOM      2  N   UNL     1     -10.845   6.488 131.477  0.00  0.00    +0.000 N 
ATOM      3  C   UNL     1     -12.214   6.722 131.503  0.00  0.00    +0.000 A 
ATOM      4  C   UNL     1     -12.853   7.577 130.695  0.00  0.00    +0.000 A 
ATOM      5  C   UNL     1     -12.096   8.104 129.546  0.00  0.00    +0.000 A 
ATOM      6  O   UNL     1     -12.644   8.757 128.653  0.00  0.00    +0.000 OA
ATOM      7  C   UNL     1     -10.636   7.814 129.469  0.00  0.00    +0.000 A 
ATOM      8  C   UNL     1     -10.070   7.112 130.473  0.00  0.00    +0.000 A 
ATOM      9  C   UNL     1      -8.568   7.020 130.558  0.00  0.00    +0.000 C 
ENDROOT
BRANCH   7  10
ATOM     10  O   UNL     1      -9.930   8.297 128.383  0.00  0.00    +0.000 OA
ATOM     11  H   UNL     1     -10.261   9.209 128.254  0.00  0.00    +0.000 HD
ENDBRANCH   7  10
TORSDOF 1
ENDMDL
MODEL 4
REMARK VINA RESULT:      -4.6      1.940      2.699
REMARK  Name = Deferiprone
REMARK  3 active torsions:
REMARK  status: ('A' for Active; 'I' for Inactive)
REMARK    1  A    between atoms: C_1  and  N_2
REMARK    2  A    between atoms: C_7  and  O_8
REMARK    3  A    between atoms: C_9  and  C_10
REMARK                            x       y       z     vdW  Elec       q    Type
REMARK                         _______ _______ _______ _____ _____    ______ ____
ROOT
ATOM      1  C   UNL     1     -13.086   7.764 131.482  0.00  0.00    +0.000 C 
ATOM      2  N   UNL     1     -12.033   7.414 130.518  0.00  0.00    +0.000 N 
ATOM      3  C   UNL     1     -11.259   6.279 130.724  0.00  0.00    +0.000 A 
ATOM      4  C   UNL     1     -10.468   5.722 129.799  0.00  0.00    +0.000 A 
ATOM      5  C   UNL     1     -10.211   6.506 128.578  0.00  0.00    +0.000 A 
ATOM      6  O   UNL     1      -9.364   6.158 127.750  0.00  0.00    +0.000 OA
ATOM      7  C   UNL     1     -10.991   7.759 128.366  0.00  0.00    +0.000 A 
ATOM      8  C   UNL     1     -11.919   8.097 129.286  0.00  0.00    +0.000 A 
ATOM      9  C   UNL     1     -12.894   9.206 128.982  0.00  0.00    +0.000 C 
ENDROOT
BRANCH   7  10
ATOM     10  O   UNL     1     -10.739   8.502 127.228  0.00  0.00    +0.000 OA
ATOM     11  H   UNL     1     -11.526   9.075 127.123  0.00  0.00    +0.000 HD
ENDBRANCH   7  10
TORSDOF 1
ENDMDL
MODEL 5
REMARK VINA RESULT:      -4.5      2.329      3.954
REMARK  Name = Deferiprone
REMARK  3 active torsions:
REMARK  status: ('A' for Active; 'I' for Inactive)
REMARK    1  A    between atoms: C_1  and  N_2
REMARK    2  A    between atoms: C_7  and  O_8
REMARK    3  A    between atoms: C_9  and  C_10
REMARK                            x       y       z     vdW  Elec       q    Type
REMARK                         _______ _______ _______ _____ _____    ______ ____
ROOT
ATOM      1  C   UNL     1      -8.425   6.813 130.729  0.00  0.00    +0.000 C 
ATOM      2  N   UNL     1      -9.755   7.269 130.301  0.00  0.00    +0.000 N 
ATOM      3  C   UNL     1      -9.910   7.876 129.061  0.00  0.00    +0.000 A 
ATOM      4  C   UNL     1     -11.089   8.086 128.462  0.00  0.00    +0.000 A 
ATOM      5  C   UNL     1     -12.299   7.895 129.280  0.00  0.00    +0.000 A 
ATOM      6  O   UNL     1     -13.416   8.228 128.874  0.00  0.00    +0.000 OA
ATOM      7  C   UNL     1     -12.147   7.298 130.638  0.00  0.00    +0.000 A 
ATOM      8  C   UNL     1     -10.912   6.931 131.039  0.00  0.00    +0.000 A 
ATOM      9  C   UNL     1     -10.755   6.100 132.287  0.00  0.00    +0.000 C 
ENDROOT
BRANCH   7  10
ATOM     10  O   UNL     1     -13.281   7.132 131.410  0.00  0.00    +0.000 OA
ATOM     11  H   UNL     1     -13.390   7.982 131.882  0.00  0.00    +0.000 HD
ENDBRANCH   7  10
TORSDOF 1
ENDMDL
MODEL 6
REMARK VINA RESULT:      -4.4     11.433     12.110
REMARK  Name = Deferiprone
REMARK  3 active torsions:
REMARK  status: ('A' for Active; 'I' for Inactive)
REMARK    1  A    between atoms: C_1  and  N_2
REMARK    2  A    between atoms: C_7  and  O_8
REMARK    3  A    between atoms: C_9  and  C_10
REMARK                            x       y       z     vdW  Elec       q    Type
REMARK                         _______ _______ _______ _____ _____    ______ ____
ROOT
ATOM      1  C   UNL     1      -5.730  -2.199 125.258  0.00  0.00    +0.000 C 
ATOM      2  N   UNL     1      -6.966  -1.761 124.595  0.00  0.00    +0.000 N 
ATOM      3  C   UNL     1      -7.074  -0.457 124.129  0.00  0.00    +0.000 A 
ATOM      4  C   UNL     1      -8.025  -0.027 123.290  0.00  0.00    +0.000 A 
ATOM      5  C   UNL     1      -9.166  -0.929 123.054  0.00  0.00    +0.000 A 
ATOM      6  O   UNL     1     -10.170  -0.558 122.439  0.00  0.00    +0.000 OA
ATOM      7  C   UNL     1      -9.094  -2.316 123.596  0.00  0.00    +0.000 A 
ATOM      8  C   UNL     1      -7.974  -2.690 124.249  0.00  0.00    +0.000 A 
ATOM      9  C   UNL     1      -7.762  -4.144 124.584  0.00  0.00    +0.000 C 
ENDROOT
BRANCH   7  10
ATOM     10  O   UNL     1     -10.172  -3.157 123.387  0.00  0.00    +0.000 OA
ATOM     11  H   UNL     1     -10.959  -2.607 123.576  0.00  0.00    +0.000 HD
ENDBRANCH   7  10
TORSDOF 1
ENDMDL
MODEL 7
REMARK VINA RESULT:      -4.3      1.680      2.649
REMARK  Name = Deferiprone
REMARK  3 active torsions:
REMARK  status: ('A' for Active; 'I' for Inactive)
REMARK    1  A    between atoms: C_1  and  N_2
REMARK    2  A    between atoms: C_7  and  O_8
REMARK    3  A    between atoms: C_9  and  C_10
REMARK                            x       y       z     vdW  Elec       q    Type
REMARK                         _______ _______ _______ _____ _____    ______ ____
ROOT
ATOM      1  C   UNL     1     -10.514   7.212 126.991  0.00  0.00    +0.000 C 
ATOM      2  N   UNL     1     -11.189   7.344 128.290  0.00  0.00    +0.000 N 
ATOM      3  C   UNL     1     -12.412   7.997 128.370  0.00  0.00    +0.000 A 
ATOM      4  C   UNL     1     -13.231   7.947 129.427  0.00  0.00    +0.000 A 
ATOM      5  C   UNL     1     -12.685   7.376 130.671  0.00  0.00    +0.000 A 
ATOM      6  O   UNL     1     -13.299   7.443 131.740  0.00  0.00    +0.000 OA
ATOM      7  C   UNL     1     -11.347   6.721 130.619  0.00  0.00    +0.000 A 
ATOM      8  C   UNL     1     -10.714   6.653 129.429  0.00  0.00    +0.000 A 
ATOM      9  C   UNL     1      -9.491   5.784 129.288  0.00  0.00    +0.000 C 
ENDROOT
BRANCH   7  10
ATOM     10  O   UNL     1     -10.828   6.198 131.789  0.00  0.00    +0.000 OA
ATOM     11  H   UNL     1     -10.619   5.266 131.576  0.00  0.00    +0.000 HD
ENDBRANCH   7  10
TORSDOF 1
ENDMDL
MODEL 8
REMARK VINA RESULT:      -4.3     11.554     12.172
REMARK  Name = Deferiprone
REMARK  3 active torsions:
REMARK  status: ('A' for Active; 'I' for Inactive)
REMARK    1  A    between atoms: C_1  and  N_2
REMARK    2  A    between atoms: C_7  and  O_8
REMARK    3  A    between atoms: C_9  and  C_10
REMARK                            x       y       z     vdW  Elec       q    Type
REMARK                         _______ _______ _______ _____ _____    ______ ____
ROOT
ATOM      1  C   UNL     1      -5.706  -2.190 126.828  0.00  0.00    +0.000 C 
ATOM      2  N   UNL     1      -6.846  -2.334 125.912  0.00  0.00    +0.000 N 
ATOM      3  C   UNL     1      -6.642  -2.267 124.539  0.00  0.00    +0.000 A 
ATOM      4  C   UNL     1      -7.539  -2.642 123.620  0.00  0.00    +0.000 A 
ATOM      5  C   UNL     1      -8.913  -2.897 124.089  0.00  0.00    +0.000 A 
ATOM      6  O   UNL     1      -9.845  -3.077 123.301  0.00  0.00    +0.000 OA
ATOM      7  C   UNL     1      -9.165  -2.914 125.559  0.00  0.00    +0.000 A 
ATOM      8  C   UNL     1      -8.117  -2.729 126.389  0.00  0.00    +0.000 A 
ATOM      9  C   UNL     1      -8.285  -2.991 127.864  0.00  0.00    +0.000 C 
ENDROOT
BRANCH   7  10
ATOM     10  O   UNL     1     -10.456  -3.138 125.998  0.00  0.00    +0.000 OA
ATOM     11  H   UNL     1     -10.710  -2.314 126.461  0.00  0.00    +0.000 HD
ENDBRANCH   7  10
TORSDOF 1
ENDMDL
MODEL 9
REMARK VINA RESULT:      -4.2     11.475     11.921
REMARK  Name = Deferiprone
REMARK  3 active torsions:
REMARK  status: ('A' for Active; 'I' for Inactive)
REMARK    1  A    between atoms: C_1  and  N_2
REMARK    2  A    between atoms: C_7  and  O_8
REMARK    3  A    between atoms: C_9  and  C_10
REMARK                            x       y       z     vdW  Elec       q    Type
REMARK                         _______ _______ _______ _____ _____    ______ ____
ROOT
ATOM      1  C   UNL     1      -7.137   0.744 123.224  0.00  0.00    +0.000 C 
ATOM      2  N   UNL     1      -7.382  -0.669 123.542  0.00  0.00    +0.000 N 
ATOM      3  C   UNL     1      -6.424  -1.397 124.237  0.00  0.00    +0.000 A 
ATOM      4  C   UNL     1      -6.642  -2.588 124.806  0.00  0.00    +0.000 A 
ATOM      5  C   UNL     1      -7.894  -3.280 124.452  0.00  0.00    +0.000 A 
ATOM      6  O   UNL     1      -8.105  -4.450 124.785  0.00  0.00    +0.000 OA
ATOM      7  C   UNL     1      -8.911  -2.536 123.656  0.00  0.00    +0.000 A 
ATOM      8  C   UNL     1      -8.651  -1.253 123.326  0.00  0.00    +0.000 A 
ATOM      9  C   UNL     1      -9.751  -0.399 122.749  0.00  0.00    +0.000 C 
ENDROOT
BRANCH   7  10
ATOM     10  O   UNL     1     -10.080  -3.190 123.313  0.00  0.00    +0.000 OA
ATOM     11  H   UNL     1     -10.770  -2.496 123.329  0.00  0.00    +0.000 HD
ENDBRANCH   7  10
TORSDOF 1
ENDMDL
