MODEL 1
REMARK VINA RESULT:      -8.2      0.000      0.000
REMARK  Name = Deflazacort
REMARK  9 active torsions:
REMARK  status: ('A' for Active; 'I' for Inactive)
REMARK    1  A    between atoms: C_16  and  C_17
REMARK    2  A    between atoms: C_20  and  O_22
REMARK    3  A    between atoms: C_24  and  C_25
REMARK    4  A    between atoms: C_26  and  C_31
REMARK    5  A    between atoms: C_28  and  C_29
REMARK    6  A    between atoms: C_31  and  C_33
REMARK    7  A    between atoms: C_33  and  O_34
REMARK    8  A    between atoms: O_34  and  C_35
REMARK    9  A    between atoms: C_35  and  C_36
REMARK                            x       y       z     vdW  Elec       q    Type
REMARK                         _______ _______ _______ _____ _____    ______ ____
ROOT
ATOM      1  C   UNL     1      -5.280   2.434 127.946  0.00  0.00    +0.000 C 
ATOM      2  C   UNL     1      -5.527   1.082 128.611  0.00  0.00    +0.000 C 
ATOM      3  C   UNL     1      -6.824   0.559 128.000  0.00  0.00    +0.000 C 
ATOM      4  C   UNL     1      -6.565   0.117 126.509  0.00  0.00    +0.000 C 
ATOM      5  C   UNL     1      -5.405  -0.874 126.505  0.00  0.00    +0.000 C 
ATOM      6  C   UNL     1      -5.227  -1.303 125.116  0.00  0.00    +0.000 C 
ATOM      7  C   UNL     1      -6.584  -2.073 124.861  0.00  0.00    +0.000 C 
ATOM      8  C   UNL     1      -6.696  -3.348 124.447  0.00  0.00    +0.000 C 
ATOM      9  C   UNL     1      -5.559  -3.321 123.549  0.00  0.00    +0.000 C 
ATOM     10  O   UNL     1      -4.508  -3.921 123.800  0.00  0.00    +0.000 OA
ATOM     11  C   UNL     1      -5.819  -2.220 122.477  0.00  0.00    +0.000 C 
ATOM     12  C   UNL     1      -6.648  -1.132 122.825  0.00  0.00    +0.000 C 
ATOM     13  C   UNL     1      -7.538  -1.100 124.214  0.00  0.00    +0.000 C 
ATOM     14  C   UNL     1      -8.933  -1.560 123.699  0.00  0.00    +0.000 C 
ATOM     15  C   UNL     1      -7.823  -0.337 125.667  0.00  0.00    +0.000 C 
ATOM     16  C   UNL     1      -8.816   0.850 125.777  0.00  0.00    +0.000 C 
ATOM     17  C   UNL     1      -9.031   1.201 127.241  0.00  0.00    +0.000 C 
ATOM     18  C   UNL     1      -7.809   1.775 128.086  0.00  0.00    +0.000 C 
ATOM     19  C   UNL     1      -8.639   2.019 129.384  0.00  0.00    +0.000 C 
ATOM     20  C   UNL     1      -6.688   3.094 127.885  0.00  0.00    +0.000 C 
ATOM     21  N   UNL     1      -6.717   3.709 126.531  0.00  0.00    +0.000 NA
ATOM     22  C   UNL     1      -5.604   3.363 125.958  0.00  0.00    +0.000 C 
ATOM     23  C   UNL     1      -5.166   3.836 124.596  0.00  0.00    +0.000 C 
ATOM     24  O   UNL     1      -4.798   2.476 126.594  0.00  0.00    +0.000 OA
ENDROOT
BRANCH  16  25
ATOM     25  O   UNL     1     -10.105   0.661 125.203  0.00  0.00    +0.000 OA
ATOM     26  H   UNL     1     -10.809   0.677 125.876  0.00  0.00    +0.000 HD
ENDBRANCH  16  25
BRANCH  20  27
ATOM     27  C   UNL     1      -6.624   4.320 128.961  0.00  0.00    +0.000 C 
ATOM     28  O   UNL     1      -7.567   5.105 129.095  0.00  0.00    +0.000 OA
BRANCH  27  29
ATOM     29  C   UNL     1      -5.364   4.500 129.920  0.00  0.00    +0.000 C 
BRANCH  29  30
ATOM     30  O   UNL     1      -4.497   5.609 129.507  0.00  0.00    +0.000 OA
BRANCH  30  31
ATOM     31  C   UNL     1      -3.868   5.755 128.310  0.00  0.00    +0.000 C 
ATOM     32  C   UNL     1      -2.600   4.995 128.043  0.00  0.00    +0.000 C 
ATOM     33  O   UNL     1      -4.313   6.509 127.445  0.00  0.00    +0.000 OA
ENDBRANCH  30  31
ENDBRANCH  29  30
ENDBRANCH  27  29
ENDBRANCH  20  27
TORSDOF 5
ENDMDL
MODEL 2
REMARK VINA RESULT:      -8.1      4.978      8.823
REMARK  Name = Deflazacort
REMARK  9 active torsions:
REMARK  status: ('A' for Active; 'I' for Inactive)
REMARK    1  A    between atoms: C_16  and  C_17
REMARK    2  A    between atoms: C_20  and  O_22
REMARK    3  A    between atoms: C_24  and  C_25
REMARK    4  A    between atoms: C_26  and  C_31
REMARK    5  A    between atoms: C_28  and  C_29
REMARK    6  A    between atoms: C_31  and  C_33
REMARK    7  A    between atoms: C_33  and  O_34
REMARK    8  A    between atoms: O_34  and  C_35
REMARK    9  A    between atoms: C_35  and  C_36
REMARK                            x       y       z     vdW  Elec       q    Type
REMARK                         _______ _______ _______ _____ _____    ______ ____
ROOT
ATOM      1  C   UNL     1      -8.665   5.740 129.666  0.00  0.00    +0.000 C 
ATOM      2  C   UNL     1      -8.349   7.036 130.409  0.00  0.00    +0.000 C 
ATOM      3  C   UNL     1      -7.964   6.611 131.823  0.00  0.00    +0.000 C 
ATOM      4  C   UNL     1      -6.545   5.925 131.800  0.00  0.00    +0.000 C 
ATOM      5  C   UNL     1      -5.568   6.884 131.126  0.00  0.00    +0.000 C 
ATOM      6  C   UNL     1      -4.253   6.238 131.169  0.00  0.00    +0.000 C 
ATOM      7  C   UNL     1      -3.981   6.211 132.727  0.00  0.00    +0.000 C 
ATOM      8  C   UNL     1      -2.907   6.735 133.345  0.00  0.00    +0.000 C 
ATOM      9  C   UNL     1      -1.950   6.385 132.314  0.00  0.00    +0.000 C 
ATOM     10  O   UNL     1      -1.435   7.236 131.579  0.00  0.00    +0.000 OA
ATOM     11  C   UNL     1      -1.966   4.836 132.147  0.00  0.00    +0.000 C 
ATOM     12  C   UNL     1      -3.153   4.142 132.469  0.00  0.00    +0.000 C 
ATOM     13  C   UNL     1      -4.423   4.862 133.237  0.00  0.00    +0.000 C 
ATOM     14  C   UNL     1      -4.175   4.437 134.713  0.00  0.00    +0.000 C 
ATOM     15  C   UNL     1      -6.027   5.303 133.157  0.00  0.00    +0.000 C 
ATOM     16  C   UNL     1      -7.157   4.333 133.598  0.00  0.00    +0.000 C 
ATOM     17  C   UNL     1      -8.484   5.072 133.617  0.00  0.00    +0.000 C 
ATOM     18  C   UNL     1      -9.091   5.608 132.245  0.00  0.00    +0.000 C 
ATOM     19  C   UNL     1     -10.416   6.139 132.876  0.00  0.00    +0.000 C 
ATOM     20  C   UNL     1      -9.459   4.890 130.700  0.00  0.00    +0.000 C 
ATOM     21  N   UNL     1      -8.896   3.524 130.521  0.00  0.00    +0.000 NA
ATOM     22  C   UNL     1      -7.939   3.645 129.651  0.00  0.00    +0.000 C 
ATOM     23  C   UNL     1      -7.142   2.491 129.098  0.00  0.00    +0.000 C 
ATOM     24  O   UNL     1      -7.589   4.890 129.244  0.00  0.00    +0.000 OA
ENDROOT
BRANCH  16  25
ATOM     25  O   UNL     1      -7.008   3.714 134.872  0.00  0.00    +0.000 OA
ATOM     26  H   UNL     1      -7.639   4.068 135.524  0.00  0.00    +0.000 HD
ENDBRANCH  16  25
BRANCH  20  27
ATOM     27  C   UNL     1     -10.987   4.851 130.129  0.00  0.00    +0.000 C 
ATOM     28  O   UNL     1     -11.611   3.790 130.036  0.00  0.00    +0.000 OA
BRANCH  27  29
ATOM     29  C   UNL     1     -11.746   6.197 129.734  0.00  0.00    +0.000 C 
BRANCH  29  30
ATOM     30  O   UNL     1     -11.864   6.370 128.282  0.00  0.00    +0.000 OA
BRANCH  30  31
ATOM     31  C   UNL     1     -11.071   7.131 127.480  0.00  0.00    +0.000 C 
ATOM     32  C   UNL     1     -10.661   8.503 127.933  0.00  0.00    +0.000 C 
ATOM     33  O   UNL     1     -10.694   6.719 126.384  0.00  0.00    +0.000 OA
ENDBRANCH  30  31
ENDBRANCH  29  30
ENDBRANCH  27  29
ENDBRANCH  20  27
TORSDOF 5
ENDMDL
MODEL 3
REMARK VINA RESULT:      -7.8      3.818      5.583
REMARK  Name = Deflazacort
REMARK  9 active torsions:
REMARK  status: ('A' for Active; 'I' for Inactive)
REMARK    1  A    between atoms: C_16  and  C_17
REMARK    2  A    between atoms: C_20  and  O_22
REMARK    3  A    between atoms: C_24  and  C_25
REMARK    4  A    between atoms: C_26  and  C_31
REMARK    5  A    between atoms: C_28  and  C_29
REMARK    6  A    between atoms: C_31  and  C_33
REMARK    7  A    between atoms: C_33  and  O_34
REMARK    8  A    between atoms: O_34  and  C_35
REMARK    9  A    between atoms: C_35  and  C_36
REMARK                            x       y       z     vdW  Elec       q    Type
REMARK                         _______ _______ _______ _____ _____    ______ ____
ROOT
ATOM      1  C   UNL     1      -7.895   3.444 132.800  0.00  0.00    +0.000 C 
ATOM      2  C   UNL     1      -9.021   2.427 132.977  0.00  0.00    +0.000 C 
ATOM      3  C   UNL     1      -9.267   1.847 131.587  0.00  0.00    +0.000 C 
ATOM      4  C   UNL     1      -8.070   0.901 131.190  0.00  0.00    +0.000 C 
ATOM      5  C   UNL     1      -7.896  -0.132 132.299  0.00  0.00    +0.000 C 
ATOM      6  C   UNL     1      -6.814  -1.023 131.873  0.00  0.00    +0.000 C 
ATOM      7  C   UNL     1      -7.467  -1.708 130.606  0.00  0.00    +0.000 C 
ATOM      8  C   UNL     1      -7.613  -3.032 130.419  0.00  0.00    +0.000 C 
ATOM      9  C   UNL     1      -6.358  -3.415 131.033  0.00  0.00    +0.000 C 
ATOM     10  O   UNL     1      -6.309  -3.986 132.128  0.00  0.00    +0.000 OA
ATOM     11  C   UNL     1      -5.205  -2.727 130.242  0.00  0.00    +0.000 C 
ATOM     12  C   UNL     1      -5.485  -1.515 129.574  0.00  0.00    +0.000 C 
ATOM     13  C   UNL     1      -7.018  -0.932 129.394  0.00  0.00    +0.000 C 
ATOM     14  C   UNL     1      -7.365  -1.412 127.954  0.00  0.00    +0.000 C 
ATOM     15  C   UNL     1      -8.084   0.303 129.727  0.00  0.00    +0.000 C 
ATOM     16  C   UNL     1      -8.205   1.542 128.799  0.00  0.00    +0.000 C 
ATOM     17  C   UNL     1      -9.391   2.388 129.231  0.00  0.00    +0.000 C 
ATOM     18  C   UNL     1      -9.355   3.103 130.654  0.00  0.00    +0.000 C 
ATOM     19  C   UNL     1     -10.713   3.849 130.471  0.00  0.00    +0.000 C 
ATOM     20  C   UNL     1      -8.239   4.168 131.466  0.00  0.00    +0.000 C 
ATOM     21  N   UNL     1      -6.918   4.284 130.792  0.00  0.00    +0.000 NA
ATOM     22  C   UNL     1      -6.072   3.664 131.557  0.00  0.00    +0.000 C 
ATOM     23  C   UNL     1      -4.586   3.603 131.308  0.00  0.00    +0.000 C 
ATOM     24  O   UNL     1      -6.548   2.979 132.627  0.00  0.00    +0.000 OA
ENDROOT
BRANCH  16  25
ATOM     25  O   UNL     1      -8.363   1.286 127.408  0.00  0.00    +0.000 OA
ATOM     26  H   UNL     1      -9.243   1.551 127.086  0.00  0.00    +0.000 HD
ENDBRANCH  16  25
BRANCH  20  27
ATOM     27  C   UNL     1      -8.680   5.676 131.907  0.00  0.00    +0.000 C 
ATOM     28  O   UNL     1      -9.085   5.918 133.048  0.00  0.00    +0.000 OA
BRANCH  27  29
ATOM     29  C   UNL     1      -8.539   6.898 130.893  0.00  0.00    +0.000 C 
BRANCH  29  30
ATOM     30  O   UNL     1      -9.810   7.241 130.246  0.00  0.00    +0.000 OA
BRANCH  30  31
ATOM     31  C   UNL     1     -10.074   7.252 128.912  0.00  0.00    +0.000 C 
ATOM     32  C   UNL     1     -10.725   8.458 128.297  0.00  0.00    +0.000 C 
ATOM     33  O   UNL     1      -9.798   6.286 128.201  0.00  0.00    +0.000 OA
ENDBRANCH  30  31
ENDBRANCH  29  30
ENDBRANCH  27  29
ENDBRANCH  20  27
TORSDOF 5
ENDMDL
MODEL 4
REMARK VINA RESULT:      -7.8      4.856      6.298
REMARK  Name = Deflazacort
REMARK  9 active torsions:
REMARK  status: ('A' for Active; 'I' for Inactive)
REMARK    1  A    between atoms: C_16  and  C_17
REMARK    2  A    between atoms: C_20  and  O_22
REMARK    3  A    between atoms: C_24  and  C_25
REMARK    4  A    between atoms: C_26  and  C_31
REMARK    5  A    between atoms: C_28  and  C_29
REMARK    6  A    between atoms: C_31  and  C_33
REMARK    7  A    between atoms: C_33  and  O_34
REMARK    8  A    between atoms: O_34  and  C_35
REMARK    9  A    between atoms: C_35  and  C_36
REMARK                            x       y       z     vdW  Elec       q    Type
REMARK                         _______ _______ _______ _____ _____    ______ ____
ROOT
ATOM      1  C   UNL     1      -5.174  -1.007 130.558  0.00  0.00    +0.000 C 
ATOM      2  C   UNL     1      -4.430  -1.786 129.476  0.00  0.00    +0.000 C 
ATOM      3  C   UNL     1      -5.470  -2.711 128.852  0.00  0.00    +0.000 C 
ATOM      4  C   UNL     1      -6.472  -1.865 127.976  0.00  0.00    +0.000 C 
ATOM      5  C   UNL     1      -5.654  -1.049 126.980  0.00  0.00    +0.000 C 
ATOM      6  C   UNL     1      -6.616  -0.319 126.150  0.00  0.00    +0.000 C 
ATOM      7  C   UNL     1      -7.334  -1.511 125.398  0.00  0.00    +0.000 C 
ATOM      8  C   UNL     1      -7.433  -1.649 124.064  0.00  0.00    +0.000 C 
ATOM      9  C   UNL     1      -7.609  -0.240 123.774  0.00  0.00    +0.000 C 
ATOM     10  O   UNL     1      -6.726   0.435 123.230  0.00  0.00    +0.000 OA
ATOM     11  C   UNL     1      -8.888   0.248 124.518  0.00  0.00    +0.000 C 
ATOM     12  C   UNL     1      -9.276  -0.427 125.695  0.00  0.00    +0.000 C 
ATOM     13  C   UNL     1      -8.582  -1.845 126.176  0.00  0.00    +0.000 C 
ATOM     14  C   UNL     1      -9.608  -2.888 125.644  0.00  0.00    +0.000 C 
ATOM     15  C   UNL     1      -7.700  -2.635 127.347  0.00  0.00    +0.000 C 
ATOM     16  C   UNL     1      -8.392  -3.322 128.556  0.00  0.00    +0.000 C 
ATOM     17  C   UNL     1      -7.369  -4.133 129.334  0.00  0.00    +0.000 C 
ATOM     18  C   UNL     1      -6.184  -3.374 130.080  0.00  0.00    +0.000 C 
ATOM     19  C   UNL     1      -5.585  -4.658 130.734  0.00  0.00    +0.000 C 
ATOM     20  C   UNL     1      -6.094  -2.067 131.230  0.00  0.00    +0.000 C 
ATOM     21  N   UNL     1      -7.376  -1.338 131.415  0.00  0.00    +0.000 NA
ATOM     22  C   UNL     1      -7.206  -0.173 130.867  0.00  0.00    +0.000 C 
ATOM     23  C   UNL     1      -8.225   0.937 130.895  0.00  0.00    +0.000 C 
ATOM     24  O   UNL     1      -6.061   0.055 130.176  0.00  0.00    +0.000 OA
ENDROOT
BRANCH  16  25
ATOM     25  O   UNL     1      -9.477  -4.195 128.260  0.00  0.00    +0.000 OA
ATOM     26  H   UNL     1      -9.247  -5.128 128.419  0.00  0.00    +0.000 HD
ENDBRANCH  16  25
BRANCH  20  27
ATOM     27  C   UNL     1      -5.458  -2.294 132.716  0.00  0.00    +0.000 C 
ATOM     28  O   UNL     1      -6.155  -2.669 133.663  0.00  0.00    +0.000 OA
BRANCH  27  29
ATOM     29  C   UNL     1      -3.896  -2.100 132.974  0.00  0.00    +0.000 C 
BRANCH  29  30
ATOM     30  O   UNL     1      -3.127  -3.320 132.708  0.00  0.00    +0.000 OA
BRANCH  30  31
ATOM     31  C   UNL     1      -2.791  -4.289 133.602  0.00  0.00    +0.000 C 
ATOM     32  C   UNL     1      -3.759  -5.401 133.887  0.00  0.00    +0.000 C 
ATOM     33  O   UNL     1      -1.710  -4.264 134.190  0.00  0.00    +0.000 OA
ENDBRANCH  30  31
ENDBRANCH  29  30
ENDBRANCH  27  29
ENDBRANCH  20  27
TORSDOF 5
ENDMDL
MODEL 5
REMARK VINA RESULT:      -7.7      4.786      6.203
REMARK  Name = Deflazacort
REMARK  9 active torsions:
REMARK  status: ('A' for Active; 'I' for Inactive)
REMARK    1  A    between atoms: C_16  and  C_17
REMARK    2  A    between atoms: C_20  and  O_22
REMARK    3  A    between atoms: C_24  and  C_25
REMARK    4  A    between atoms: C_26  and  C_31
REMARK    5  A    between atoms: C_28  and  C_29
REMARK    6  A    between atoms: C_31  and  C_33
REMARK    7  A    between atoms: C_33  and  O_34
REMARK    8  A    between atoms: O_34  and  C_35
REMARK    9  A    between atoms: C_35  and  C_36
REMARK                            x       y       z     vdW  Elec       q    Type
REMARK                         _______ _______ _______ _____ _____    ______ ____
ROOT
ATOM      1  C   UNL     1      -4.854  -0.892 130.287  0.00  0.00    +0.000 C 
ATOM      2  C   UNL     1      -4.221  -1.900 129.331  0.00  0.00    +0.000 C 
ATOM      3  C   UNL     1      -5.360  -2.818 128.895  0.00  0.00    +0.000 C 
ATOM      4  C   UNL     1      -6.320  -2.039 127.916  0.00  0.00    +0.000 C 
ATOM      5  C   UNL     1      -5.476  -1.473 126.778  0.00  0.00    +0.000 C 
ATOM      6  C   UNL     1      -6.404  -0.803 125.863  0.00  0.00    +0.000 C 
ATOM      7  C   UNL     1      -7.249  -2.032 125.337  0.00  0.00    +0.000 C 
ATOM      8  C   UNL     1      -7.412  -2.377 124.047  0.00  0.00    +0.000 C 
ATOM      9  C   UNL     1      -7.479  -1.023 123.532  0.00  0.00    +0.000 C 
ATOM     10  O   UNL     1      -6.565  -0.528 122.863  0.00  0.00    +0.000 OA
ATOM     11  C   UNL     1      -8.683  -0.308 124.216  0.00  0.00    +0.000 C 
ATOM     12  C   UNL     1      -9.079  -0.746 125.498  0.00  0.00    +0.000 C 
ATOM     13  C   UNL     1      -8.489  -2.123 126.189  0.00  0.00    +0.000 C 
ATOM     14  C   UNL     1      -9.620  -3.142 125.863  0.00  0.00    +0.000 C 
ATOM     15  C   UNL     1      -7.632  -2.788 127.453  0.00  0.00    +0.000 C 
ATOM     16  C   UNL     1      -8.331  -3.204 128.776  0.00  0.00    +0.000 C 
ATOM     17  C   UNL     1      -7.351  -3.966 129.652  0.00  0.00    +0.000 C 
ATOM     18  C   UNL     1      -6.078  -3.205 130.232  0.00  0.00    +0.000 C 
ATOM     19  C   UNL     1      -5.565  -4.414 131.075  0.00  0.00    +0.000 C 
ATOM     20  C   UNL     1      -5.833  -1.742 131.148  0.00  0.00    +0.000 C 
ATOM     21  N   UNL     1      -7.041  -0.880 131.242  0.00  0.00    +0.000 NA
ATOM     22  C   UNL     1      -6.795   0.159 130.504  0.00  0.00    +0.000 C 
ATOM     23  C   UNL     1      -7.715   1.347 130.373  0.00  0.00    +0.000 C 
ATOM     24  O   UNL     1      -5.663   0.169 129.757  0.00  0.00    +0.000 OA
ENDROOT
BRANCH  16  25
ATOM     25  O   UNL     1      -9.497  -4.013 128.656  0.00  0.00    +0.000 OA
ATOM     26  H   UNL     1     -10.216  -3.702 129.235  0.00  0.00    +0.000 HD
ENDBRANCH  16  25
BRANCH  20  27
ATOM     27  C   UNL     1      -5.160  -1.780 132.635  0.00  0.00    +0.000 C 
ATOM     28  O   UNL     1      -3.942  -1.907 132.785  0.00  0.00    +0.000 OA
BRANCH  27  29
ATOM     29  C   UNL     1      -6.055  -1.587 133.941  0.00  0.00    +0.000 C 
BRANCH  29  30
ATOM     30  O   UNL     1      -6.273  -2.845 134.663  0.00  0.00    +0.000 OA
BRANCH  30  31
ATOM     31  C   UNL     1      -7.161  -3.827 134.349  0.00  0.00    +0.000 C 
ATOM     32  C   UNL     1      -6.879  -5.240 134.769  0.00  0.00    +0.000 C 
ATOM     33  O   UNL     1      -8.187  -3.578 133.716  0.00  0.00    +0.000 OA
ENDBRANCH  30  31
ENDBRANCH  29  30
ENDBRANCH  27  29
ENDBRANCH  20  27
TORSDOF 5
ENDMDL
MODEL 6
REMARK VINA RESULT:      -7.6      6.630     10.253
REMARK  Name = Deflazacort
REMARK  9 active torsions:
REMARK  status: ('A' for Active; 'I' for Inactive)
REMARK    1  A    between atoms: C_16  and  C_17
REMARK    2  A    between atoms: C_20  and  O_22
REMARK    3  A    between atoms: C_24  and  C_25
REMARK    4  A    between atoms: C_26  and  C_31
REMARK    5  A    between atoms: C_28  and  C_29
REMARK    6  A    between atoms: C_31  and  C_33
REMARK    7  A    between atoms: C_33  and  O_34
REMARK    8  A    between atoms: O_34  and  C_35
REMARK    9  A    between atoms: C_35  and  C_36
REMARK                            x       y       z     vdW  Elec       q    Type
REMARK                         _______ _______ _______ _____ _____    ______ ____
ROOT
ATOM      1  C   UNL     1      -9.125   5.535 132.253  0.00  0.00    +0.000 C 
ATOM      2  C   UNL     1      -9.686   4.968 133.554  0.00  0.00    +0.000 C 
ATOM      3  C   UNL     1      -8.729   3.850 133.957  0.00  0.00    +0.000 C 
ATOM      4  C   UNL     1      -7.372   4.472 134.463  0.00  0.00    +0.000 C 
ATOM      5  C   UNL     1      -7.695   5.474 135.567  0.00  0.00    +0.000 C 
ATOM      6  C   UNL     1      -6.412   5.992 136.049  0.00  0.00    +0.000 C 
ATOM      7  C   UNL     1      -5.778   4.689 136.682  0.00  0.00    +0.000 C 
ATOM      8  C   UNL     1      -5.345   4.564 137.949  0.00  0.00    +0.000 C 
ATOM      9  C   UNL     1      -4.808   5.905 138.063  0.00  0.00    +0.000 C 
ATOM     10  O   UNL     1      -5.346   6.772 138.761  0.00  0.00    +0.000 OA
ATOM     11  C   UNL     1      -3.711   6.079 136.970  0.00  0.00    +0.000 C 
ATOM     12  C   UNL     1      -3.813   5.305 135.793  0.00  0.00    +0.000 C 
ATOM     13  C   UNL     1      -4.891   4.066 135.634  0.00  0.00    +0.000 C 
ATOM     14  C   UNL     1      -3.997   2.834 135.961  0.00  0.00    +0.000 C 
ATOM     15  C   UNL     1      -6.205   3.464 134.807  0.00  0.00    +0.000 C 
ATOM     16  C   UNL     1      -6.032   2.612 133.521  0.00  0.00    +0.000 C 
ATOM     17  C   UNL     1      -7.375   2.030 133.112  0.00  0.00    +0.000 C 
ATOM     18  C   UNL     1      -8.536   3.015 132.644  0.00  0.00    +0.000 C 
ATOM     19  C   UNL     1      -9.545   1.881 132.282  0.00  0.00    +0.000 C 
ATOM     20  C   UNL     1      -8.668   4.281 131.453  0.00  0.00    +0.000 C 
ATOM     21  N   UNL     1      -7.364   4.702 130.875  0.00  0.00    +0.000 NA
ATOM     22  C   UNL     1      -7.131   5.888 131.349  0.00  0.00    +0.000 C 
ATOM     23  C   UNL     1      -5.951   6.743 130.959  0.00  0.00    +0.000 C 
ATOM     24  O   UNL     1      -7.967   6.382 132.296  0.00  0.00    +0.000 OA
ENDROOT
BRANCH  16  25
ATOM     25  O   UNL     1      -5.113   1.527 133.592  0.00  0.00    +0.000 OA
ATOM     26  H   UNL     1      -5.523   0.727 133.968  0.00  0.00    +0.000 HD
ENDBRANCH  16  25
BRANCH  20  27
ATOM     27  C   UNL     1      -9.722   4.166 130.212  0.00  0.00    +0.000 C 
ATOM     28  O   UNL     1      -9.397   3.647 129.140  0.00  0.00    +0.000 OA
BRANCH  27  29
ATOM     29  C   UNL     1     -11.228   4.663 130.372  0.00  0.00    +0.000 C 
BRANCH  29  30
ATOM     30  O   UNL     1     -11.579   5.710 129.406  0.00  0.00    +0.000 OA
BRANCH  30  31
ATOM     31  C   UNL     1     -12.615   6.588 129.488  0.00  0.00    +0.000 C 
ATOM     32  C   UNL     1     -12.822   7.371 130.752  0.00  0.00    +0.000 C 
ATOM     33  O   UNL     1     -13.393   6.744 128.547  0.00  0.00    +0.000 OA
ENDBRANCH  30  31
ENDBRANCH  29  30
ENDBRANCH  27  29
ENDBRANCH  20  27
TORSDOF 5
ENDMDL
MODEL 7
REMARK VINA RESULT:      -7.6      4.732      6.281
REMARK  Name = Deflazacort
REMARK  9 active torsions:
REMARK  status: ('A' for Active; 'I' for Inactive)
REMARK    1  A    between atoms: C_16  and  C_17
REMARK    2  A    between atoms: C_20  and  O_22
REMARK    3  A    between atoms: C_24  and  C_25
REMARK    4  A    between atoms: C_26  and  C_31
REMARK    5  A    between atoms: C_28  and  C_29
REMARK    6  A    between atoms: C_31  and  C_33
REMARK    7  A    between atoms: C_33  and  O_34
REMARK    8  A    between atoms: O_34  and  C_35
REMARK    9  A    between atoms: C_35  and  C_36
REMARK                            x       y       z     vdW  Elec       q    Type
REMARK                         _______ _______ _______ _____ _____    ______ ____
ROOT
ATOM      1  C   UNL     1      -6.724  -3.394 130.722  0.00  0.00    +0.000 C 
ATOM      2  C   UNL     1      -8.134  -2.960 130.329  0.00  0.00    +0.000 C 
ATOM      3  C   UNL     1      -7.971  -1.593 129.671  0.00  0.00    +0.000 C 
ATOM      4  C   UNL     1      -7.304  -1.766 128.252  0.00  0.00    +0.000 C 
ATOM      5  C   UNL     1      -8.136  -2.769 127.459  0.00  0.00    +0.000 C 
ATOM      6  C   UNL     1      -7.521  -2.865 126.133  0.00  0.00    +0.000 C 
ATOM      7  C   UNL     1      -7.774  -1.407 125.576  0.00  0.00    +0.000 C 
ATOM      8  C   UNL     1      -8.408  -1.104 124.429  0.00  0.00    +0.000 C 
ATOM      9  C   UNL     1      -7.890  -2.222 123.665  0.00  0.00    +0.000 C 
ATOM     10  O   UNL     1      -8.601  -3.177 123.333  0.00  0.00    +0.000 OA
ATOM     11  C   UNL     1      -6.336  -2.112 123.647  0.00  0.00    +0.000 C 
ATOM     12  C   UNL     1      -5.699  -1.455 124.722  0.00  0.00    +0.000 C 
ATOM     13  C   UNL     1      -6.533  -0.597 125.858  0.00  0.00    +0.000 C 
ATOM     14  C   UNL     1      -6.379   0.857 125.322  0.00  0.00    +0.000 C 
ATOM     15  C   UNL     1      -6.938  -0.445 127.466  0.00  0.00    +0.000 C 
ATOM     16  C   UNL     1      -6.052   0.363 128.452  0.00  0.00    +0.000 C 
ATOM     17  C   UNL     1      -6.771   0.506 129.783  0.00  0.00    +0.000 C 
ATOM     18  C   UNL     1      -7.049  -0.797 130.656  0.00  0.00    +0.000 C 
ATOM     19  C   UNL     1      -7.672  -0.028 131.862  0.00  0.00    +0.000 C 
ATOM     20  C   UNL     1      -6.064  -2.096 131.273  0.00  0.00    +0.000 C 
ATOM     21  N   UNL     1      -4.694  -2.140 130.695  0.00  0.00    +0.000 NA
ATOM     22  C   UNL     1      -4.666  -3.183 129.923  0.00  0.00    +0.000 C 
ATOM     23  C   UNL     1      -3.439  -3.669 129.194  0.00  0.00    +0.000 C 
ATOM     24  O   UNL     1      -5.822  -3.859 129.707  0.00  0.00    +0.000 OA
ENDROOT
BRANCH  16  25
ATOM     25  O   UNL     1      -5.672   1.673 128.043  0.00  0.00    +0.000 OA
ATOM     26  H   UNL     1      -4.704   1.786 128.039  0.00  0.00    +0.000 HD
ENDBRANCH  16  25
BRANCH  20  27
ATOM     27  C   UNL     1      -5.910  -2.351 132.878  0.00  0.00    +0.000 C 
ATOM     28  O   UNL     1      -6.828  -2.846 133.540  0.00  0.00    +0.000 OA
BRANCH  27  29
ATOM     29  C   UNL     1      -4.541  -2.029 133.629  0.00  0.00    +0.000 C 
BRANCH  29  30
ATOM     30  O   UNL     1      -3.875  -3.237 134.125  0.00  0.00    +0.000 OA
BRANCH  30  31
ATOM     31  C   UNL     1      -3.621  -4.378 133.429  0.00  0.00    +0.000 C 
ATOM     32  C   UNL     1      -4.504  -5.577 133.626  0.00  0.00    +0.000 C 
ATOM     33  O   UNL     1      -2.673  -4.449 132.648  0.00  0.00    +0.000 OA
ENDBRANCH  30  31
ENDBRANCH  29  30
ENDBRANCH  27  29
ENDBRANCH  20  27
TORSDOF 5
ENDMDL
MODEL 8
REMARK VINA RESULT:      -7.5      3.484      8.139
REMARK  Name = Deflazacort
REMARK  9 active torsions:
REMARK  status: ('A' for Active; 'I' for Inactive)
REMARK    1  A    between atoms: C_16  and  C_17
REMARK    2  A    between atoms: C_20  and  O_22
REMARK    3  A    between atoms: C_24  and  C_25
REMARK    4  A    between atoms: C_26  and  C_31
REMARK    5  A    between atoms: C_28  and  C_29
REMARK    6  A    between atoms: C_31  and  C_33
REMARK    7  A    between atoms: C_33  and  O_34
REMARK    8  A    between atoms: O_34  and  C_35
REMARK    9  A    between atoms: C_35  and  C_36
REMARK                            x       y       z     vdW  Elec       q    Type
REMARK                         _______ _______ _______ _____ _____    ______ ____
ROOT
ATOM      1  C   UNL     1      -5.880   2.334 127.950  0.00  0.00    +0.000 C 
ATOM      2  C   UNL     1      -4.495   1.849 128.372  0.00  0.00    +0.000 C 
ATOM      3  C   UNL     1      -3.662   3.112 128.562  0.00  0.00    +0.000 C 
ATOM      4  C   UNL     1      -4.128   3.861 129.869  0.00  0.00    +0.000 C 
ATOM      5  C   UNL     1      -4.070   2.870 131.027  0.00  0.00    +0.000 C 
ATOM      6  C   UNL     1      -4.457   3.610 132.230  0.00  0.00    +0.000 C 
ATOM      7  C   UNL     1      -3.261   4.638 132.350  0.00  0.00    +0.000 C 
ATOM      8  C   UNL     1      -2.467   4.795 133.425  0.00  0.00    +0.000 C 
ATOM      9  C   UNL     1      -3.504   4.586 134.416  0.00  0.00    +0.000 C 
ATOM     10  O   UNL     1      -3.554   3.563 135.109  0.00  0.00    +0.000 OA
ATOM     11  C   UNL     1      -4.601   5.671 134.201  0.00  0.00    +0.000 C 
ATOM     12  C   UNL     1      -4.766   6.207 132.906  0.00  0.00    +0.000 C 
ATOM     13  C   UNL     1      -3.699   5.917 131.681  0.00  0.00    +0.000 C 
ATOM     14  C   UNL     1      -2.815   7.197 131.730  0.00  0.00    +0.000 C 
ATOM     15  C   UNL     1      -3.463   5.263 130.167  0.00  0.00    +0.000 C 
ATOM     16  C   UNL     1      -3.709   6.094 128.879  0.00  0.00    +0.000 C 
ATOM     17  C   UNL     1      -3.214   5.318 127.670  0.00  0.00    +0.000 C 
ATOM     18  C   UNL     1      -3.942   3.958 127.273  0.00  0.00    +0.000 C 
ATOM     19  C   UNL     1      -3.099   3.720 125.982  0.00  0.00    +0.000 C 
ATOM     20  C   UNL     1      -5.593   3.495 126.954  0.00  0.00    +0.000 C 
ATOM     21  N   UNL     1      -6.592   4.528 127.337  0.00  0.00    +0.000 NA
ATOM     22  C   UNL     1      -7.210   4.057 128.378  0.00  0.00    +0.000 C 
ATOM     23  C   UNL     1      -8.374   4.735 129.056  0.00  0.00    +0.000 C 
ATOM     24  O   UNL     1      -6.756   2.905 128.933  0.00  0.00    +0.000 OA
ENDROOT
BRANCH  16  25
ATOM     25  O   UNL     1      -3.102   7.381 128.823  0.00  0.00    +0.000 OA
ATOM     26  H   UNL     1      -2.298   7.380 128.272  0.00  0.00    +0.000 HD
ENDBRANCH  16  25
BRANCH  20  27
ATOM     27  C   UNL     1      -6.041   2.919 125.495  0.00  0.00    +0.000 C 
ATOM     28  O   UNL     1      -5.915   1.725 125.209  0.00  0.00    +0.000 OA
BRANCH  27  29
ATOM     29  C   UNL     1      -6.720   3.874 124.413  0.00  0.00    +0.000 C 
BRANCH  29  30
ATOM     30  O   UNL     1      -5.734   4.631 123.635  0.00  0.00    +0.000 OA
BRANCH  30  31
ATOM     31  C   UNL     1      -5.357   4.405 122.348  0.00  0.00    +0.000 C 
ATOM     32  C   UNL     1      -5.935   3.238 121.602  0.00  0.00    +0.000 C 
ATOM     33  O   UNL     1      -4.540   5.135 121.787  0.00  0.00    +0.000 OA
ENDBRANCH  30  31
ENDBRANCH  29  30
ENDBRANCH  27  29
ENDBRANCH  20  27
TORSDOF 5
ENDMDL
MODEL 9
REMARK VINA RESULT:      -7.5      2.614      4.751
REMARK  Name = Deflazacort
REMARK  9 active torsions:
REMARK  status: ('A' for Active; 'I' for Inactive)
REMARK    1  A    between atoms: C_16  and  C_17
REMARK    2  A    between atoms: C_20  and  O_22
REMARK    3  A    between atoms: C_24  and  C_25
REMARK    4  A    between atoms: C_26  and  C_31
REMARK    5  A    between atoms: C_28  and  C_29
REMARK    6  A    between atoms: C_31  and  C_33
REMARK    7  A    between atoms: C_33  and  O_34
REMARK    8  A    between atoms: O_34  and  C_35
REMARK    9  A    between atoms: C_35  and  C_36
REMARK                            x       y       z     vdW  Elec       q    Type
REMARK                         _______ _______ _______ _____ _____    ______ ____
ROOT
ATOM      1  C   UNL     1      -8.278   3.670 129.140  0.00  0.00    +0.000 C 
ATOM      2  C   UNL     1      -7.757   3.662 127.704  0.00  0.00    +0.000 C 
ATOM      3  C   UNL     1      -6.609   2.658 127.694  0.00  0.00    +0.000 C 
ATOM      4  C   UNL     1      -7.185   1.195 127.812  0.00  0.00    +0.000 C 
ATOM      5  C   UNL     1      -8.219   1.004 126.706  0.00  0.00    +0.000 C 
ATOM      6  C   UNL     1      -8.693  -0.378 126.813  0.00  0.00    +0.000 C 
ATOM      7  C   UNL     1      -7.377  -1.178 126.453  0.00  0.00    +0.000 C 
ATOM      8  C   UNL     1      -7.258  -2.091 125.473  0.00  0.00    +0.000 C 
ATOM      9  C   UNL     1      -8.578  -2.666 125.635  0.00  0.00    +0.000 C 
ATOM     10  O   UNL     1      -9.479  -2.490 124.806  0.00  0.00    +0.000 OA
ATOM     11  C   UNL     1      -8.686  -3.220 127.088  0.00  0.00    +0.000 C 
ATOM     12  C   UNL     1      -7.896  -2.619 128.092  0.00  0.00    +0.000 C 
ATOM     13  C   UNL     1      -6.699  -1.535 127.752  0.00  0.00    +0.000 C 
ATOM     14  C   UNL     1      -5.438  -2.447 127.780  0.00  0.00    +0.000 C 
ATOM     15  C   UNL     1      -6.136   0.020 127.944  0.00  0.00    +0.000 C 
ATOM     16  C   UNL     1      -5.254   0.418 129.158  0.00  0.00    +0.000 C 
ATOM     17  C   UNL     1      -4.720   1.827 128.959  0.00  0.00    +0.000 C 
ATOM     18  C   UNL     1      -5.743   3.047 128.941  0.00  0.00    +0.000 C 
ATOM     19  C   UNL     1      -4.645   4.149 128.818  0.00  0.00    +0.000 C 
ATOM     20  C   UNL     1      -6.991   3.621 130.014  0.00  0.00    +0.000 C 
ATOM     21  N   UNL     1      -7.348   2.659 131.091  0.00  0.00    +0.000 NA
ATOM     22  C   UNL     1      -8.533   2.217 130.795  0.00  0.00    +0.000 C 
ATOM     23  C   UNL     1      -9.331   1.278 131.663  0.00  0.00    +0.000 C 
ATOM     24  O   UNL     1      -9.078   2.573 129.605  0.00  0.00    +0.000 OA
ENDROOT
BRANCH  16  25
ATOM     25  O   UNL     1      -4.134  -0.415 129.435  0.00  0.00    +0.000 OA
ATOM     26  H   UNL     1      -4.397  -1.242 129.879  0.00  0.00    +0.000 HD
ENDBRANCH  16  25
BRANCH  20  27
ATOM     27  C   UNL     1      -6.897   5.096 130.707  0.00  0.00    +0.000 C 
ATOM     28  O   UNL     1      -7.365   6.096 130.155  0.00  0.00    +0.000 OA
BRANCH  27  29
ATOM     29  C   UNL     1      -6.252   5.279 132.154  0.00  0.00    +0.000 C 
BRANCH  29  30
ATOM     30  O   UNL     1      -7.173   5.916 133.102  0.00  0.00    +0.000 OA
BRANCH  30  31
ATOM     31  C   UNL     1      -8.450   5.542 133.382  0.00  0.00    +0.000 C 
ATOM     32  C   UNL     1      -8.703   4.233 134.073  0.00  0.00    +0.000 C 
ATOM     33  O   UNL     1      -9.404   6.253 133.069  0.00  0.00    +0.000 OA
ENDBRANCH  30  31
ENDBRANCH  29  30
ENDBRANCH  27  29
ENDBRANCH  20  27
TORSDOF 5
ENDMDL
