MODEL 1
REMARK VINA RESULT:      -8.4      0.000      0.000
REMARK  Name = Dehydrocholic acid
REMARK  8 active torsions:
REMARK  status: ('A' for Active; 'I' for Inactive)
REMARK    1  A    between atoms: C_2  and  C_28
REMARK    2  A    between atoms: C_19  and  C_20
REMARK    3  A    between atoms: C_26  and  C_27
REMARK    4  A    between atoms: C_28  and  C_29
REMARK    5  A    between atoms: C_28  and  C_30
REMARK    6  A    between atoms: C_30  and  C_31
REMARK    7  A    between atoms: C_31  and  C_32
REMARK    8  A    between atoms: C_32  and  O_33
REMARK                            x       y       z     vdW  Elec       q    Type
REMARK                         _______ _______ _______ _____ _____    ______ ____
ROOT
ATOM      1  C   UNL     1      -9.474   6.189 129.866  0.00  0.00    +0.000 C 
ATOM      2  C   UNL     1      -8.892   6.780 131.180  0.00  0.00    +0.000 C 
ATOM      3  C   UNL     1      -7.522   6.115 131.427  0.00  0.00    +0.000 C 
ATOM      4  C   UNL     1      -7.220   5.365 130.139  0.00  0.00    +0.000 C 
ATOM      5  C   UNL     1      -6.288   4.138 130.164  0.00  0.00    +0.000 C 
ATOM      6  C   UNL     1      -4.893   4.447 130.647  0.00  0.00    +0.000 C 
ATOM      7  O   UNL     1      -4.544   5.562 131.020  0.00  0.00    +0.000 OA
ATOM      8  C   UNL     1      -3.956   3.261 130.681  0.00  0.00    +0.000 C 
ATOM      9  C   UNL     1      -3.858   2.615 129.289  0.00  0.00    +0.000 C 
ATOM     10  C   UNL     1      -3.051   3.545 128.364  0.00  0.00    +0.000 C 
ATOM     11  C   UNL     1      -3.011   3.043 126.941  0.00  0.00    +0.000 C 
ATOM     12  O   UNL     1      -1.975   3.069 126.281  0.00  0.00    +0.000 OA
ATOM     13  C   UNL     1      -4.331   2.655 126.326  0.00  0.00    +0.000 C 
ATOM     14  C   UNL     1      -5.064   1.698 127.255  0.00  0.00    +0.000 C 
ATOM     15  C   UNL     1      -5.257   2.246 128.699  0.00  0.00    +0.000 C 
ATOM     16  C   UNL     1      -5.890   1.097 129.526  0.00  0.00    +0.000 C 
ATOM     17  C   UNL     1      -6.162   3.519 128.725  0.00  0.00    +0.000 C 
ATOM     18  C   UNL     1      -7.513   3.297 128.041  0.00  0.00    +0.000 C 
ATOM     19  C   UNL     1      -8.306   4.560 128.218  0.00  0.00    +0.000 C 
ATOM     20  O   UNL     1      -8.633   5.254 127.258  0.00  0.00    +0.000 OA
ATOM     21  C   UNL     1      -8.618   4.921 129.681  0.00  0.00    +0.000 C 
ATOM     22  C   UNL     1      -9.157   3.769 130.595  0.00  0.00    +0.000 C 
ENDROOT
BRANCH   1  23
ATOM     23  C   UNL     1     -11.020   5.970 129.926  0.00  0.00    +0.000 C 
ATOM     24  C   UNL     1     -11.547   6.237 131.347  0.00  0.00    +0.000 C 
BRANCH  23  25
ATOM     25  C   UNL     1     -11.854   6.846 128.943  0.00  0.00    +0.000 C 
BRANCH  25  26
ATOM     26  C   UNL     1     -11.082   7.640 127.894  0.00  0.00    +0.000 C 
BRANCH  26  27
ATOM     27  C   UNL     1     -11.320   7.437 126.432  0.00  0.00    +0.000 C 
ATOM     28  O   UNL     1     -10.681   8.070 125.590  0.00  0.00    +0.000 OA
BRANCH  27  29
ATOM     29  O   UNL     1     -12.237   6.522 126.112  0.00  0.00    +0.000 OA
ATOM     30  H   UNL     1     -13.045   6.903 125.725  0.00  0.00    +0.000 HD
ENDBRANCH  27  29
ENDBRANCH  26  27
ENDBRANCH  25  26
ENDBRANCH  23  25
ENDBRANCH   1  23
TORSDOF 5
ENDMDL
MODEL 2
REMARK VINA RESULT:      -8.0      2.816      4.093
REMARK  Name = Dehydrocholic acid
REMARK  8 active torsions:
REMARK  status: ('A' for Active; 'I' for Inactive)
REMARK    1  A    between atoms: C_2  and  C_28
REMARK    2  A    between atoms: C_19  and  C_20
REMARK    3  A    between atoms: C_26  and  C_27
REMARK    4  A    between atoms: C_28  and  C_29
REMARK    5  A    between atoms: C_28  and  C_30
REMARK    6  A    between atoms: C_30  and  C_31
REMARK    7  A    between atoms: C_31  and  C_32
REMARK    8  A    between atoms: C_32  and  O_33
REMARK                            x       y       z     vdW  Elec       q    Type
REMARK                         _______ _______ _______ _____ _____    ______ ____
ROOT
ATOM      1  C   UNL     1      -8.970   6.546 131.502  0.00  0.00    +0.000 C 
ATOM      2  C   UNL     1      -9.554   6.031 132.847  0.00  0.00    +0.000 C 
ATOM      3  C   UNL     1      -8.399   5.395 133.646  0.00  0.00    +0.000 C 
ATOM      4  C   UNL     1      -7.142   5.783 132.884  0.00  0.00    +0.000 C 
ATOM      5  C   UNL     1      -5.879   4.906 132.986  0.00  0.00    +0.000 C 
ATOM      6  C   UNL     1      -5.336   4.787 134.389  0.00  0.00    +0.000 C 
ATOM      7  O   UNL     1      -5.871   5.310 135.361  0.00  0.00    +0.000 OA
ATOM      8  C   UNL     1      -4.096   3.933 134.518  0.00  0.00    +0.000 C 
ATOM      9  C   UNL     1      -2.978   4.467 133.607  0.00  0.00    +0.000 C 
ATOM     10  C   UNL     1      -2.439   5.784 134.199  0.00  0.00    +0.000 C 
ATOM     11  C   UNL     1      -1.422   6.441 133.299  0.00  0.00    +0.000 C 
ATOM     12  O   UNL     1      -0.390   6.933 133.750  0.00  0.00    +0.000 OA
ATOM     13  C   UNL     1      -1.804   6.598 131.850  0.00  0.00    +0.000 C 
ATOM     14  C   UNL     1      -2.281   5.261 131.301  0.00  0.00    +0.000 C 
ATOM     15  C   UNL     1      -3.439   4.620 132.122  0.00  0.00    +0.000 C 
ATOM     16  C   UNL     1      -3.694   3.221 131.504  0.00  0.00    +0.000 C 
ATOM     17  C   UNL     1      -4.733   5.493 132.086  0.00  0.00    +0.000 C 
ATOM     18  C   UNL     1      -5.189   5.816 130.660  0.00  0.00    +0.000 C 
ATOM     19  C   UNL     1      -6.479   6.575 130.775  0.00  0.00    +0.000 C 
ATOM     20  O   UNL     1      -6.572   7.744 130.407  0.00  0.00    +0.000 OA
ATOM     21  C   UNL     1      -7.630   5.789 131.427  0.00  0.00    +0.000 C 
ATOM     22  C   UNL     1      -7.865   4.326 130.919  0.00  0.00    +0.000 C 
ENDROOT
BRANCH   1  23
ATOM     23  C   UNL     1      -9.942   6.342 130.295  0.00  0.00    +0.000 C 
ATOM     24  C   UNL     1     -11.358   6.006 130.795  0.00  0.00    +0.000 C 
BRANCH  23  25
ATOM     25  C   UNL     1     -10.060   7.556 129.324  0.00  0.00    +0.000 C 
BRANCH  25  26
ATOM     26  C   UNL     1     -11.000   7.403 128.132  0.00  0.00    +0.000 C 
BRANCH  26  27
ATOM     27  C   UNL     1     -10.476   7.182 126.750  0.00  0.00    +0.000 C 
ATOM     28  O   UNL     1      -9.709   6.251 126.503  0.00  0.00    +0.000 OA
BRANCH  27  29
ATOM     29  O   UNL     1     -10.911   8.033 125.818  0.00  0.00    +0.000 OA
ATOM     30  H   UNL     1     -11.872   7.985 125.670  0.00  0.00    +0.000 HD
ENDBRANCH  27  29
ENDBRANCH  26  27
ENDBRANCH  25  26
ENDBRANCH  23  25
ENDBRANCH   1  23
TORSDOF 5
ENDMDL
MODEL 3
REMARK VINA RESULT:      -8.0      5.804      7.796
REMARK  Name = Dehydrocholic acid
REMARK  8 active torsions:
REMARK  status: ('A' for Active; 'I' for Inactive)
REMARK    1  A    between atoms: C_2  and  C_28
REMARK    2  A    between atoms: C_19  and  C_20
REMARK    3  A    between atoms: C_26  and  C_27
REMARK    4  A    between atoms: C_28  and  C_29
REMARK    5  A    between atoms: C_28  and  C_30
REMARK    6  A    between atoms: C_30  and  C_31
REMARK    7  A    between atoms: C_31  and  C_32
REMARK    8  A    between atoms: C_32  and  O_33
REMARK                            x       y       z     vdW  Elec       q    Type
REMARK                         _______ _______ _______ _____ _____    ______ ____
ROOT
ATOM      1  C   UNL     1      -8.076  -1.224 125.120  0.00  0.00    +0.000 C 
ATOM      2  C   UNL     1      -9.012  -2.458 125.244  0.00  0.00    +0.000 C 
ATOM      3  C   UNL     1      -8.661  -3.183 126.559  0.00  0.00    +0.000 C 
ATOM      4  C   UNL     1      -7.732  -2.227 127.290  0.00  0.00    +0.000 C 
ATOM      5  C   UNL     1      -6.718  -2.773 128.314  0.00  0.00    +0.000 C 
ATOM      6  C   UNL     1      -7.359  -3.492 129.476  0.00  0.00    +0.000 C 
ATOM      7  O   UNL     1      -8.569  -3.658 129.577  0.00  0.00    +0.000 OA
ATOM      8  C   UNL     1      -6.386  -4.038 130.497  0.00  0.00    +0.000 C 
ATOM      9  C   UNL     1      -5.500  -2.909 131.051  0.00  0.00    +0.000 C 
ATOM     10  C   UNL     1      -6.352  -2.012 131.969  0.00  0.00    +0.000 C 
ATOM     11  C   UNL     1      -5.588  -0.806 132.459  0.00  0.00    +0.000 C 
ATOM     12  O   UNL     1      -5.662  -0.431 133.627  0.00  0.00    +0.000 OA
ATOM     13  C   UNL     1      -4.859  -0.000 131.415  0.00  0.00    +0.000 C 
ATOM     14  C   UNL     1      -3.995  -0.925 130.570  0.00  0.00    +0.000 C 
ATOM     15  C   UNL     1      -4.781  -2.103 129.922  0.00  0.00    +0.000 C 
ATOM     16  C   UNL     1      -3.729  -3.002 129.223  0.00  0.00    +0.000 C 
ATOM     17  C   UNL     1      -5.854  -1.601 128.905  0.00  0.00    +0.000 C 
ATOM     18  C   UNL     1      -5.265  -0.683 127.830  0.00  0.00    +0.000 C 
ATOM     19  C   UNL     1      -6.379  -0.353 126.879  0.00  0.00    +0.000 C 
ATOM     20  O   UNL     1      -6.796   0.797 126.753  0.00  0.00    +0.000 OA
ATOM     21  C   UNL     1      -6.967  -1.564 126.134  0.00  0.00    +0.000 C 
ATOM     22  C   UNL     1      -5.947  -2.569 125.500  0.00  0.00    +0.000 C 
ENDROOT
BRANCH   1  23
ATOM     23  C   UNL     1      -7.606  -0.957 123.654  0.00  0.00    +0.000 C 
ATOM     24  C   UNL     1      -8.287  -1.938 122.683  0.00  0.00    +0.000 C 
BRANCH  23  25
ATOM     25  C   UNL     1      -7.867   0.486 123.124  0.00  0.00    +0.000 C 
BRANCH  25  26
ATOM     26  C   UNL     1      -8.966   1.290 123.812  0.00  0.00    +0.000 C 
BRANCH  26  27
ATOM     27  C   UNL     1     -10.408   1.083 123.479  0.00  0.00    +0.000 C 
ATOM     28  O   UNL     1     -10.744   0.459 122.471  0.00  0.00    +0.000 OA
BRANCH  27  29
ATOM     29  O   UNL     1     -11.287   1.588 124.348  0.00  0.00    +0.000 OA
ATOM     30  H   UNL     1     -10.904   2.262 124.936  0.00  0.00    +0.000 HD
ENDBRANCH  27  29
ENDBRANCH  26  27
ENDBRANCH  25  26
ENDBRANCH  23  25
ENDBRANCH   1  23
TORSDOF 5
ENDMDL
MODEL 4
REMARK VINA RESULT:      -7.9      4.726      6.799
REMARK  Name = Dehydrocholic acid
REMARK  8 active torsions:
REMARK  status: ('A' for Active; 'I' for Inactive)
REMARK    1  A    between atoms: C_2  and  C_28
REMARK    2  A    between atoms: C_19  and  C_20
REMARK    3  A    between atoms: C_26  and  C_27
REMARK    4  A    between atoms: C_28  and  C_29
REMARK    5  A    between atoms: C_28  and  C_30
REMARK    6  A    between atoms: C_30  and  C_31
REMARK    7  A    between atoms: C_31  and  C_32
REMARK    8  A    between atoms: C_32  and  O_33
REMARK                            x       y       z     vdW  Elec       q    Type
REMARK                         _______ _______ _______ _____ _____    ______ ____
ROOT
ATOM      1  C   UNL     1      -7.055   1.811 128.069  0.00  0.00    +0.000 C 
ATOM      2  C   UNL     1      -7.907   1.054 129.126  0.00  0.00    +0.000 C 
ATOM      3  C   UNL     1      -8.240  -0.336 128.549  0.00  0.00    +0.000 C 
ATOM      4  C   UNL     1      -7.369  -0.459 127.309  0.00  0.00    +0.000 C 
ATOM      5  C   UNL     1      -7.799  -1.387 126.156  0.00  0.00    +0.000 C 
ATOM      6  C   UNL     1      -7.926  -2.835 126.560  0.00  0.00    +0.000 C 
ATOM      7  O   UNL     1      -7.739  -3.231 127.705  0.00  0.00    +0.000 OA
ATOM      8  C   UNL     1      -8.346  -3.769 125.447  0.00  0.00    +0.000 C 
ATOM      9  C   UNL     1      -7.363  -3.676 124.268  0.00  0.00    +0.000 C 
ATOM     10  C   UNL     1      -6.036  -4.346 124.671  0.00  0.00    +0.000 C 
ATOM     11  C   UNL     1      -4.971  -4.190 123.613  0.00  0.00    +0.000 C 
ATOM     12  O   UNL     1      -4.239  -5.126 123.298  0.00  0.00    +0.000 OA
ATOM     13  C   UNL     1      -4.751  -2.799 123.078  0.00  0.00    +0.000 C 
ATOM     14  C   UNL     1      -6.083  -2.202 122.648  0.00  0.00    +0.000 C 
ATOM     15  C   UNL     1      -7.167  -2.209 123.767  0.00  0.00    +0.000 C 
ATOM     16  C   UNL     1      -8.477  -1.697 123.114  0.00  0.00    +0.000 C 
ATOM     17  C   UNL     1      -6.760  -1.315 124.981  0.00  0.00    +0.000 C 
ATOM     18  C   UNL     1      -6.411   0.118 124.568  0.00  0.00    +0.000 C 
ATOM     19  C   UNL     1      -6.130   0.879 125.831  0.00  0.00    +0.000 C 
ATOM     20  O   UNL     1      -5.014   1.337 126.071  0.00  0.00    +0.000 OA
ATOM     21  C   UNL     1      -7.324   0.988 126.795  0.00  0.00    +0.000 C 
ATOM     22  C   UNL     1      -8.702   1.395 126.172  0.00  0.00    +0.000 C 
ENDROOT
BRANCH   1  23
ATOM     23  C   UNL     1      -7.396   3.335 127.986  0.00  0.00    +0.000 C 
ATOM     24  C   UNL     1      -8.024   3.819 129.305  0.00  0.00    +0.000 C 
BRANCH  23  25
ATOM     25  C   UNL     1      -6.189   4.269 127.669  0.00  0.00    +0.000 C 
BRANCH  25  26
ATOM     26  C   UNL     1      -5.972   4.651 126.208  0.00  0.00    +0.000 C 
BRANCH  26  27
ATOM     27  C   UNL     1      -7.103   4.672 125.232  0.00  0.00    +0.000 C 
ATOM     28  O   UNL     1      -7.146   3.878 124.291  0.00  0.00    +0.000 OA
BRANCH  27  29
ATOM     29  O   UNL     1      -8.058   5.576 125.463  0.00  0.00    +0.000 OA
ATOM     30  H   UNL     1      -7.722   6.401 125.856  0.00  0.00    +0.000 HD
ENDBRANCH  27  29
ENDBRANCH  26  27
ENDBRANCH  25  26
ENDBRANCH  23  25
ENDBRANCH   1  23
TORSDOF 5
ENDMDL
MODEL 5
REMARK VINA RESULT:      -7.8      5.663      7.638
REMARK  Name = Dehydrocholic acid
REMARK  8 active torsions:
REMARK  status: ('A' for Active; 'I' for Inactive)
REMARK    1  A    between atoms: C_2  and  C_28
REMARK    2  A    between atoms: C_19  and  C_20
REMARK    3  A    between atoms: C_26  and  C_27
REMARK    4  A    between atoms: C_28  and  C_29
REMARK    5  A    between atoms: C_28  and  C_30
REMARK    6  A    between atoms: C_30  and  C_31
REMARK    7  A    between atoms: C_31  and  C_32
REMARK    8  A    between atoms: C_32  and  O_33
REMARK                            x       y       z     vdW  Elec       q    Type
REMARK                         _______ _______ _______ _____ _____    ______ ____
ROOT
ATOM      1  C   UNL     1      -6.247   0.217 125.158  0.00  0.00    +0.000 C 
ATOM      2  C   UNL     1      -5.799   1.656 125.539  0.00  0.00    +0.000 C 
ATOM      3  C   UNL     1      -5.533   1.677 127.058  0.00  0.00    +0.000 C 
ATOM      4  C   UNL     1      -5.572   0.216 127.477  0.00  0.00    +0.000 C 
ATOM      5  C   UNL     1      -5.934  -0.159 128.927  0.00  0.00    +0.000 C 
ATOM      6  C   UNL     1      -4.984   0.407 129.954  0.00  0.00    +0.000 C 
ATOM      7  O   UNL     1      -4.035   1.126 129.665  0.00  0.00    +0.000 OA
ATOM      8  C   UNL     1      -5.316   0.054 131.386  0.00  0.00    +0.000 C 
ATOM      9  C   UNL     1      -5.372  -1.473 131.564  0.00  0.00    +0.000 C 
ATOM     10  C   UNL     1      -3.941  -2.037 131.491  0.00  0.00    +0.000 C 
ATOM     11  C   UNL     1      -3.917  -3.545 131.533  0.00  0.00    +0.000 C 
ATOM     12  O   UNL     1      -3.095  -4.155 132.213  0.00  0.00    +0.000 OA
ATOM     13  C   UNL     1      -4.845  -4.261 130.586  0.00  0.00    +0.000 C 
ATOM     14  C   UNL     1      -6.253  -3.702 130.733  0.00  0.00    +0.000 C 
ATOM     15  C   UNL     1      -6.341  -2.158 130.547  0.00  0.00    +0.000 C 
ATOM     16  C   UNL     1      -7.805  -1.759 130.864  0.00  0.00    +0.000 C 
ATOM     17  C   UNL     1      -5.941  -1.720 129.102  0.00  0.00    +0.000 C 
ATOM     18  C   UNL     1      -6.746  -2.447 128.021  0.00  0.00    +0.000 C 
ATOM     19  C   UNL     1      -6.326  -1.868 126.701  0.00  0.00    +0.000 C 
ATOM     20  O   UNL     1      -5.749  -2.549 125.855  0.00  0.00    +0.000 OA
ATOM     21  C   UNL     1      -6.631  -0.369 126.530  0.00  0.00    +0.000 C 
ATOM     22  C   UNL     1      -8.063   0.112 126.941  0.00  0.00    +0.000 C 
ENDROOT
BRANCH   1  23
ATOM     23  C   UNL     1      -7.364   0.194 124.066  0.00  0.00    +0.000 C 
ATOM     24  C   UNL     1      -7.206   1.388 123.108  0.00  0.00    +0.000 C 
BRANCH  23  25
ATOM     25  C   UNL     1      -7.419  -1.100 123.199  0.00  0.00    +0.000 C 
BRANCH  25  26
ATOM     26  C   UNL     1      -8.686  -1.946 123.292  0.00  0.00    +0.000 C 
BRANCH  26  27
ATOM     27  C   UNL     1      -8.905  -2.898 124.423  0.00  0.00    +0.000 C 
ATOM     28  O   UNL     1      -9.826  -2.732 125.224  0.00  0.00    +0.000 OA
BRANCH  27  29
ATOM     29  O   UNL     1      -8.065  -3.934 124.485  0.00  0.00    +0.000 OA
ATOM     30  H   UNL     1      -7.169  -3.687 124.776  0.00  0.00    +0.000 HD
ENDBRANCH  27  29
ENDBRANCH  26  27
ENDBRANCH  25  26
ENDBRANCH  23  25
ENDBRANCH   1  23
TORSDOF 5
ENDMDL
MODEL 6
REMARK VINA RESULT:      -7.6      4.635      7.463
REMARK  Name = Dehydrocholic acid
REMARK  8 active torsions:
REMARK  status: ('A' for Active; 'I' for Inactive)
REMARK    1  A    between atoms: C_2  and  C_28
REMARK    2  A    between atoms: C_19  and  C_20
REMARK    3  A    between atoms: C_26  and  C_27
REMARK    4  A    between atoms: C_28  and  C_29
REMARK    5  A    between atoms: C_28  and  C_30
REMARK    6  A    between atoms: C_30  and  C_31
REMARK    7  A    between atoms: C_31  and  C_32
REMARK    8  A    between atoms: C_32  and  O_33
REMARK                            x       y       z     vdW  Elec       q    Type
REMARK                         _______ _______ _______ _____ _____    ______ ____
ROOT
ATOM      1  C   UNL     1      -8.728  -2.496 126.218  0.00  0.00    +0.000 C 
ATOM      2  C   UNL     1      -8.631  -3.670 127.232  0.00  0.00    +0.000 C 
ATOM      3  C   UNL     1      -8.122  -3.093 128.569  0.00  0.00    +0.000 C 
ATOM      4  C   UNL     1      -8.188  -1.585 128.388  0.00  0.00    +0.000 C 
ATOM      5  C   UNL     1      -7.259  -0.671 129.210  0.00  0.00    +0.000 C 
ATOM      6  C   UNL     1      -7.458  -0.789 130.701  0.00  0.00    +0.000 C 
ATOM      7  O   UNL     1      -8.259  -1.564 131.212  0.00  0.00    +0.000 OA
ATOM      8  C   UNL     1      -6.559   0.098 131.533  0.00  0.00    +0.000 C 
ATOM      9  C   UNL     1      -6.739   1.572 131.132  0.00  0.00    +0.000 C 
ATOM     10  C   UNL     1      -8.111   2.062 131.635  0.00  0.00    +0.000 C 
ATOM     11  C   UNL     1      -8.420   3.466 131.175  0.00  0.00    +0.000 C 
ATOM     12  O   UNL     1      -8.919   4.293 131.935  0.00  0.00    +0.000 OA
ATOM     13  C   UNL     1      -8.231   3.752 129.708  0.00  0.00    +0.000 C 
ATOM     14  C   UNL     1      -6.846   3.296 129.275  0.00  0.00    +0.000 C 
ATOM     15  C   UNL     1      -6.544   1.804 129.599  0.00  0.00    +0.000 C 
ATOM     16  C   UNL     1      -5.061   1.561 129.215  0.00  0.00    +0.000 C 
ATOM     17  C   UNL     1      -7.489   0.834 128.822  0.00  0.00    +0.000 C 
ATOM     18  C   UNL     1      -7.472   1.077 127.310  0.00  0.00    +0.000 C 
ATOM     19  C   UNL     1      -8.347   0.027 126.688  0.00  0.00    +0.000 C 
ATOM     20  O   UNL     1      -9.385   0.321 126.099  0.00  0.00    +0.000 OA
ATOM     21  C   UNL     1      -7.860  -1.418 126.896  0.00  0.00    +0.000 C 
ATOM     22  C   UNL     1      -6.343  -1.700 126.630  0.00  0.00    +0.000 C 
ENDROOT
BRANCH   1  23
ATOM     23  C   UNL     1      -8.305  -2.904 124.769  0.00  0.00    +0.000 C 
ATOM     24  C   UNL     1      -7.906  -4.389 124.722  0.00  0.00    +0.000 C 
BRANCH  23  25
ATOM     25  C   UNL     1      -9.388  -2.672 123.671  0.00  0.00    +0.000 C 
BRANCH  25  26
ATOM     26  C   UNL     1      -9.098  -1.602 122.623  0.00  0.00    +0.000 C 
BRANCH  26  27
ATOM     27  C   UNL     1      -9.612  -0.207 122.772  0.00  0.00    +0.000 C 
ATOM     28  O   UNL     1     -10.772   0.078 122.472  0.00  0.00    +0.000 OA
BRANCH  27  29
ATOM     29  O   UNL     1      -8.749   0.684 123.268  0.00  0.00    +0.000 OA
ATOM     30  H   UNL     1      -9.147   1.558 123.429  0.00  0.00    +0.000 HD
ENDBRANCH  27  29
ENDBRANCH  26  27
ENDBRANCH  25  26
ENDBRANCH  23  25
ENDBRANCH   1  23
TORSDOF 5
ENDMDL
MODEL 7
REMARK VINA RESULT:      -7.5      3.041      6.909
REMARK  Name = Dehydrocholic acid
REMARK  8 active torsions:
REMARK  status: ('A' for Active; 'I' for Inactive)
REMARK    1  A    between atoms: C_2  and  C_28
REMARK    2  A    between atoms: C_19  and  C_20
REMARK    3  A    between atoms: C_26  and  C_27
REMARK    4  A    between atoms: C_28  and  C_29
REMARK    5  A    between atoms: C_28  and  C_30
REMARK    6  A    between atoms: C_30  and  C_31
REMARK    7  A    between atoms: C_31  and  C_32
REMARK    8  A    between atoms: C_32  and  O_33
REMARK                            x       y       z     vdW  Elec       q    Type
REMARK                         _______ _______ _______ _____ _____    ______ ____
ROOT
ATOM      1  C   UNL     1      -7.446   0.487 129.333  0.00  0.00    +0.000 C 
ATOM      2  C   UNL     1      -7.316  -0.153 130.743  0.00  0.00    +0.000 C 
ATOM      3  C   UNL     1      -7.658   0.933 131.784  0.00  0.00    +0.000 C 
ATOM      4  C   UNL     1      -8.229   2.083 130.969  0.00  0.00    +0.000 C 
ATOM      5  C   UNL     1      -8.147   3.523 131.509  0.00  0.00    +0.000 C 
ATOM      6  C   UNL     1      -8.866   3.719 132.821  0.00  0.00    +0.000 C 
ATOM      7  O   UNL     1      -9.432   2.809 133.418  0.00  0.00    +0.000 OA
ATOM      8  C   UNL     1      -8.803   5.124 133.375  0.00  0.00    +0.000 C 
ATOM      9  C   UNL     1      -9.367   6.129 132.355  0.00  0.00    +0.000 C 
ATOM     10  C   UNL     1     -10.896   5.958 132.279  0.00  0.00    +0.000 C 
ATOM     11  C   UNL     1     -11.515   6.823 131.209  0.00  0.00    +0.000 C 
ATOM     12  O   UNL     1     -12.557   7.442 131.410  0.00  0.00    +0.000 OA
ATOM     13  C   UNL     1     -10.881   6.765 129.844  0.00  0.00    +0.000 C 
ATOM     14  C   UNL     1      -9.381   6.990 129.970  0.00  0.00    +0.000 C 
ATOM     15  C   UNL     1      -8.678   6.013 130.957  0.00  0.00    +0.000 C 
ATOM     16  C   UNL     1      -7.202   6.475 131.058  0.00  0.00    +0.000 C 
ATOM     17  C   UNL     1      -8.769   4.530 130.476  0.00  0.00    +0.000 C 
ATOM     18  C   UNL     1      -8.242   4.338 129.051  0.00  0.00    +0.000 C 
ATOM     19  C   UNL     1      -8.306   2.867 128.757  0.00  0.00    +0.000 C 
ATOM     20  O   UNL     1      -9.043   2.418 127.881  0.00  0.00    +0.000 OA
ATOM     21  C   UNL     1      -7.422   1.992 129.664  0.00  0.00    +0.000 C 
ATOM     22  C   UNL     1      -5.949   2.471 129.892  0.00  0.00    +0.000 C 
ENDROOT
BRANCH   1  23
ATOM     23  C   UNL     1      -6.354  -0.011 128.332  0.00  0.00    +0.000 C 
ATOM     24  C   UNL     1      -5.619  -1.237 128.903  0.00  0.00    +0.000 C 
BRANCH  23  25
ATOM     25  C   UNL     1      -6.878  -0.395 126.914  0.00  0.00    +0.000 C 
BRANCH  25  26
ATOM     26  C   UNL     1      -8.310  -0.912 126.819  0.00  0.00    +0.000 C 
BRANCH  26  27
ATOM     27  C   UNL     1      -9.169  -0.611 125.634  0.00  0.00    +0.000 C 
ATOM     28  O   UNL     1      -9.117  -1.307 124.619  0.00  0.00    +0.000 OA
BRANCH  27  29
ATOM     29  O   UNL     1     -10.000   0.426 125.763  0.00  0.00    +0.000 OA
ATOM     30  H   UNL     1     -10.222   0.630 126.689  0.00  0.00    +0.000 HD
ENDBRANCH  27  29
ENDBRANCH  26  27
ENDBRANCH  25  26
ENDBRANCH  23  25
ENDBRANCH   1  23
TORSDOF 5
ENDMDL
MODEL 8
REMARK VINA RESULT:      -7.4      5.053      8.499
REMARK  Name = Dehydrocholic acid
REMARK  8 active torsions:
REMARK  status: ('A' for Active; 'I' for Inactive)
REMARK    1  A    between atoms: C_2  and  C_28
REMARK    2  A    between atoms: C_19  and  C_20
REMARK    3  A    between atoms: C_26  and  C_27
REMARK    4  A    between atoms: C_28  and  C_29
REMARK    5  A    between atoms: C_28  and  C_30
REMARK    6  A    between atoms: C_30  and  C_31
REMARK    7  A    between atoms: C_31  and  C_32
REMARK    8  A    between atoms: C_32  and  O_33
REMARK                            x       y       z     vdW  Elec       q    Type
REMARK                         _______ _______ _______ _____ _____    ______ ____
ROOT
ATOM      1  C   UNL     1      -7.438  -1.478 131.314  0.00  0.00    +0.000 C 
ATOM      2  C   UNL     1      -7.853  -0.031 131.700  0.00  0.00    +0.000 C 
ATOM      3  C   UNL     1      -7.944   0.793 130.400  0.00  0.00    +0.000 C 
ATOM      4  C   UNL     1      -7.843  -0.235 129.283  0.00  0.00    +0.000 C 
ATOM      5  C   UNL     1      -7.314   0.184 127.898  0.00  0.00    +0.000 C 
ATOM      6  C   UNL     1      -8.145   1.250 127.229  0.00  0.00    +0.000 C 
ATOM      7  O   UNL     1      -9.128   1.762 127.754  0.00  0.00    +0.000 OA
ATOM      8  C   UNL     1      -7.649   1.680 125.867  0.00  0.00    +0.000 C 
ATOM      9  C   UNL     1      -7.557   0.469 124.923  0.00  0.00    +0.000 C 
ATOM     10  C   UNL     1      -8.983   0.025 124.542  0.00  0.00    +0.000 C 
ATOM     11  C   UNL     1      -8.987  -1.237 123.714  0.00  0.00    +0.000 C 
ATOM     12  O   UNL     1      -9.720  -1.358 122.736  0.00  0.00    +0.000 OA
ATOM     13  C   UNL     1      -8.166  -2.388 124.235  0.00  0.00    +0.000 C 
ATOM     14  C   UNL     1      -6.756  -1.908 124.547  0.00  0.00    +0.000 C 
ATOM     15  C   UNL     1      -6.705  -0.695 125.523  0.00  0.00    +0.000 C 
ATOM     16  C   UNL     1      -5.218  -0.266 125.614  0.00  0.00    +0.000 C 
ATOM     17  C   UNL     1      -7.272  -1.055 126.933  0.00  0.00    +0.000 C 
ATOM     18  C   UNL     1      -6.589  -2.279 127.549  0.00  0.00    +0.000 C 
ATOM     19  C   UNL     1      -7.163  -2.453 128.925  0.00  0.00    +0.000 C 
ATOM     20  O   UNL     1      -7.826  -3.444 129.225  0.00  0.00    +0.000 OA
ATOM     21  C   UNL     1      -6.893  -1.282 129.886  0.00  0.00    +0.000 C 
ATOM     22  C   UNL     1      -5.428  -0.732 129.938  0.00  0.00    +0.000 C 
ENDROOT
BRANCH   1  23
ATOM     23  C   UNL     1      -6.453  -2.125 132.340  0.00  0.00    +0.000 C 
ATOM     24  C   UNL     1      -6.584  -1.447 133.715  0.00  0.00    +0.000 C 
BRANCH  23  25
ATOM     25  C   UNL     1      -6.629  -3.659 132.554  0.00  0.00    +0.000 C 
BRANCH  25  26
ATOM     26  C   UNL     1      -5.551  -4.570 131.973  0.00  0.00    +0.000 C 
BRANCH  26  27
ATOM     27  C   UNL     1      -4.317  -4.012 131.341  0.00  0.00    +0.000 C 
ATOM     28  O   UNL     1      -3.386  -3.591 132.029  0.00  0.00    +0.000 OA
BRANCH  27  29
ATOM     29  O   UNL     1      -4.287  -4.027 130.007  0.00  0.00    +0.000 OA
ATOM     30  H   UNL     1      -3.471  -4.417 129.644  0.00  0.00    +0.000 HD
ENDBRANCH  27  29
ENDBRANCH  26  27
ENDBRANCH  25  26
ENDBRANCH  23  25
ENDBRANCH   1  23
TORSDOF 5
ENDMDL
MODEL 9
REMARK VINA RESULT:      -7.4      5.062      8.079
REMARK  Name = Dehydrocholic acid
REMARK  8 active torsions:
REMARK  status: ('A' for Active; 'I' for Inactive)
REMARK    1  A    between atoms: C_2  and  C_28
REMARK    2  A    between atoms: C_19  and  C_20
REMARK    3  A    between atoms: C_26  and  C_27
REMARK    4  A    between atoms: C_28  and  C_29
REMARK    5  A    between atoms: C_28  and  C_30
REMARK    6  A    between atoms: C_30  and  C_31
REMARK    7  A    between atoms: C_31  and  C_32
REMARK    8  A    between atoms: C_32  and  O_33
REMARK                            x       y       z     vdW  Elec       q    Type
REMARK                         _______ _______ _______ _____ _____    ______ ____
ROOT
ATOM      1  C   UNL     1      -7.916   0.196 130.695  0.00  0.00    +0.000 C 
ATOM      2  C   UNL     1      -8.260   1.678 130.379  0.00  0.00    +0.000 C 
ATOM      3  C   UNL     1      -8.241   1.847 128.846  0.00  0.00    +0.000 C 
ATOM      4  C   UNL     1      -8.152   0.430 128.302  0.00  0.00    +0.000 C 
ATOM      5  C   UNL     1      -7.535   0.177 126.913  0.00  0.00    +0.000 C 
ATOM      6  C   UNL     1      -8.269   0.867 125.790  0.00  0.00    +0.000 C 
ATOM      7  O   UNL     1      -9.242   1.591 125.970  0.00  0.00    +0.000 OA
ATOM      8  C   UNL     1      -7.685   0.635 124.415  0.00  0.00    +0.000 C 
ATOM      9  C   UNL     1      -7.625  -0.871 124.105  0.00  0.00    +0.000 C 
ATOM     10  C   UNL     1      -9.055  -1.388 123.861  0.00  0.00    +0.000 C 
ATOM     11  C   UNL     1      -9.098  -2.884 123.671  0.00  0.00    +0.000 C 
ATOM     12  O   UNL     1      -9.792  -3.399 122.797  0.00  0.00    +0.000 OA
ATOM     13  C   UNL     1      -8.373  -3.715 124.697  0.00  0.00    +0.000 C 
ATOM     14  C   UNL     1      -6.953  -3.196 124.863  0.00  0.00    +0.000 C 
ATOM     15  C   UNL     1      -6.873  -1.679 125.210  0.00  0.00    +0.000 C 
ATOM     16  C   UNL     1      -5.368  -1.305 125.204  0.00  0.00    +0.000 C 
ATOM     17  C   UNL     1      -7.524  -1.361 126.593  0.00  0.00    +0.000 C 
ATOM     18  C   UNL     1      -6.945  -2.212 127.728  0.00  0.00    +0.000 C 
ATOM     19  C   UNL     1      -7.591  -1.741 128.999  0.00  0.00    +0.000 C 
ATOM     20  O   UNL     1      -8.326  -2.476 129.656  0.00  0.00    +0.000 OA
ATOM     21  C   UNL     1      -7.296  -0.276 129.365  0.00  0.00    +0.000 C 
ATOM     22  C   UNL     1      -5.804   0.190 129.270  0.00  0.00    +0.000 C 
ENDROOT
BRANCH   1  23
ATOM     23  C   UNL     1      -7.019   0.033 131.965  0.00  0.00    +0.000 C 
ATOM     24  C   UNL     1      -7.147   1.267 132.875  0.00  0.00    +0.000 C 
BRANCH  23  25
ATOM     25  C   UNL     1      -7.320  -1.225 132.834  0.00  0.00    +0.000 C 
BRANCH  25  26
ATOM     26  C   UNL     1      -6.206  -2.259 132.968  0.00  0.00    +0.000 C 
BRANCH  26  27
ATOM     27  C   UNL     1      -5.584  -2.894 131.767  0.00  0.00    +0.000 C 
ATOM     28  O   UNL     1      -4.547  -2.446 131.276  0.00  0.00    +0.000 OA
BRANCH  27  29
ATOM     29  O   UNL     1      -6.205  -3.977 131.291  0.00  0.00    +0.000 OA
ATOM     30  H   UNL     1      -7.163  -3.851 131.171  0.00  0.00    +0.000 HD
ENDBRANCH  27  29
ENDBRANCH  26  27
ENDBRANCH  25  26
ENDBRANCH  23  25
ENDBRANCH   1  23
TORSDOF 5
ENDMDL
