MODEL 1
REMARK VINA RESULT:      -8.1      0.000      0.000
REMARK  Name = Delafloxacin
REMARK  5 active torsions:
REMARK  status: ('A' for Active; 'I' for Inactive)
REMARK    1  A    between atoms: C_4  and  N_5
REMARK    2  A    between atoms: C_7  and  C_8
REMARK    3  A    between atoms: C_8  and  O_9
REMARK    4  A    between atoms: C_17  and  N_18
REMARK    5  A    between atoms: C_20  and  O_21
REMARK                            x       y       z     vdW  Elec       q    Type
REMARK                         _______ _______ _______ _____ _____    ______ ____
ROOT
ATOM      1  N   UNL     1      -7.029  -1.787 127.897  0.00  0.00    +0.000 N 
ATOM      2  C   UNL     1      -7.365  -2.625 126.762  0.00  0.00    +0.000 A 
ATOM      3  C   UNL     1      -8.205  -2.372 125.743  0.00  0.00    +0.000 A 
ATOM      4  C   UNL     1      -8.800  -1.002 125.798  0.00  0.00    +0.000 A 
ATOM      5  O   UNL     1      -9.559  -0.584 124.955  0.00  0.00    +0.000 OA
ATOM      6  C   UNL     1      -8.460  -0.100 126.935  0.00  0.00    +0.000 A 
ATOM      7  C   UNL     1      -8.851   1.233 126.838  0.00  0.00    +0.000 A 
ATOM      8  C   UNL     1      -8.424   2.220 127.733  0.00  0.00    +0.000 A 
ATOM      9  F   UNL     1      -7.098   2.542 127.612  0.00  0.00    +0.000 F 
ATOM     10  C   UNL     1      -8.536   2.010 129.063  0.00  0.00    +0.000 A 
ATOM     11  C   UNL     1      -7.780   0.663 129.178  0.00  0.00    +0.000 A 
ATOM     12 CL   UNL     1      -6.434   0.599 130.289  0.00  0.00    +0.000 Cl
ATOM     13  C   UNL     1      -7.754  -0.465 128.065  0.00  0.00    +0.000 A 
ENDROOT
BRANCH   1  17
ATOM     14  N   UNL     1      -2.519  -2.562 129.557  0.00  0.00    +0.000 N 
ATOM     15  C   UNL     1      -3.890  -2.778 129.628  0.00  0.00    +0.000 A 
ATOM     16  N   UNL     1      -4.711  -2.205 128.697  0.00  0.00    +0.000 NA
ATOM     17  C   UNL     1      -6.077  -2.408 128.806  0.00  0.00    +0.000 A 
ATOM     18  C   UNL     1      -6.578  -3.327 129.722  0.00  0.00    +0.000 A 
ATOM     19  F   UNL     1      -7.876  -3.657 129.697  0.00  0.00    +0.000 F 
ATOM     20  C   UNL     1      -5.747  -3.909 130.662  0.00  0.00    +0.000 A 
ATOM     21  C   UNL     1      -4.396  -3.614 130.627  0.00  0.00    +0.000 A 
ATOM     22  F   UNL     1      -3.588  -4.132 131.566  0.00  0.00    +0.000 F 
ATOM     23  H   UNL     1      -2.159  -1.904 128.882  0.00  0.00    +0.000 HD
ATOM     24  H   UNL     1      -1.920  -2.878 130.313  0.00  0.00    +0.000 HD
ENDBRANCH   1  17
BRANCH  10  25
ATOM     25  N   UNL     1      -8.433   3.429 129.693  0.00  0.00    +0.000 N 
ATOM     26  C   UNL     1      -9.321   4.161 130.580  0.00  0.00    +0.000 C 
ATOM     27  C   UNL     1      -8.718   5.429 129.906  0.00  0.00    +0.000 C 
ATOM     28  C   UNL     1      -7.426   4.550 129.868  0.00  0.00    +0.000 C 
BRANCH  27  29
ATOM     29  O   UNL     1      -9.243   5.719 128.590  0.00  0.00    +0.000 OA
ATOM     30  H   UNL     1     -10.134   6.051 128.824  0.00  0.00    +0.000 HD
ENDBRANCH  27  29
ENDBRANCH  10  25
BRANCH   3  31
ATOM     31  C   UNL     1      -8.604  -3.274 124.589  0.00  0.00    +0.000 C 
ATOM     32  O   UNL     1      -7.849  -4.016 124.021  0.00  0.00    +0.000 OA
BRANCH  31  33
ATOM     33  O   UNL     1      -9.899  -3.213 124.173  0.00  0.00    +0.000 OA
ATOM     34  H   UNL     1     -10.140  -3.455 123.272  0.00  0.00    +0.000 HD
ENDBRANCH  31  33
ENDBRANCH   3  31
TORSDOF 5
ENDMDL
MODEL 2
REMARK VINA RESULT:      -8.0      4.716      6.065
REMARK  Name = Delafloxacin
REMARK  5 active torsions:
REMARK  status: ('A' for Active; 'I' for Inactive)
REMARK    1  A    between atoms: C_4  and  N_5
REMARK    2  A    between atoms: C_7  and  C_8
REMARK    3  A    between atoms: C_8  and  O_9
REMARK    4  A    between atoms: C_17  and  N_18
REMARK    5  A    between atoms: C_20  and  O_21
REMARK                            x       y       z     vdW  Elec       q    Type
REMARK                         _______ _______ _______ _____ _____    ______ ____
ROOT
ATOM      1  N   UNL     1      -7.294   1.543 124.136  0.00  0.00    +0.000 N 
ATOM      2  C   UNL     1      -6.712   2.228 122.997  0.00  0.00    +0.000 A 
ATOM      3  C   UNL     1      -6.234   3.482 122.919  0.00  0.00    +0.000 A 
ATOM      4  C   UNL     1      -6.269   4.208 124.225  0.00  0.00    +0.000 A 
ATOM      5  O   UNL     1      -5.859   5.337 124.357  0.00  0.00    +0.000 OA
ATOM      6  C   UNL     1      -6.836   3.529 125.425  0.00  0.00    +0.000 A 
ATOM      7  C   UNL     1      -6.650   4.146 126.660  0.00  0.00    +0.000 A 
ATOM      8  C   UNL     1      -6.953   3.523 127.876  0.00  0.00    +0.000 A 
ATOM      9  F   UNL     1      -6.106   2.496 128.199  0.00  0.00    +0.000 F 
ATOM     10  C   UNL     1      -8.162   2.947 128.050  0.00  0.00    +0.000 A 
ATOM     11  C   UNL     1      -8.181   2.005 126.820  0.00  0.00    +0.000 A 
ATOM     12 CL   UNL     1      -8.436   0.305 127.125  0.00  0.00    +0.000 Cl
ATOM     13  C   UNL     1      -7.500   2.318 125.424  0.00  0.00    +0.000 A 
ENDROOT
BRANCH   1  17
ATOM     14  N   UNL     1      -6.546  -3.265 123.999  0.00  0.00    +0.000 N 
ATOM     15  C   UNL     1      -7.357  -2.159 123.779  0.00  0.00    +0.000 A 
ATOM     16  N   UNL     1      -6.870  -0.906 124.031  0.00  0.00    +0.000 NA
ATOM     17  C   UNL     1      -7.707   0.180 123.835  0.00  0.00    +0.000 A 
ATOM     18  C   UNL     1      -8.941   0.012 123.215  0.00  0.00    +0.000 A 
ATOM     19  F   UNL     1      -9.663   1.082 122.859  0.00  0.00    +0.000 F 
ATOM     20  C   UNL     1      -9.432  -1.255 122.957  0.00  0.00    +0.000 A 
ATOM     21  C   UNL     1      -8.642  -2.349 123.263  0.00  0.00    +0.000 A 
ATOM     22  F   UNL     1      -9.129  -3.584 123.065  0.00  0.00    +0.000 F 
ATOM     23  H   UNL     1      -5.646  -3.137 124.437  0.00  0.00    +0.000 HD
ATOM     24  H   UNL     1      -6.940  -4.198 123.935  0.00  0.00    +0.000 HD
ENDBRANCH   1  17
BRANCH  10  25
ATOM     25  N   UNL     1      -8.310   2.805 129.592  0.00  0.00    +0.000 N 
ATOM     26  C   UNL     1      -8.571   1.653 130.439  0.00  0.00    +0.000 C 
ATOM     27  C   UNL     1      -9.226   2.687 131.401  0.00  0.00    +0.000 C 
ATOM     28  C   UNL     1      -8.091   3.613 130.857  0.00  0.00    +0.000 C 
BRANCH  27  29
ATOM     29  O   UNL     1     -10.548   3.122 131.009  0.00  0.00    +0.000 OA
ATOM     30  H   UNL     1     -10.321   3.841 130.384  0.00  0.00    +0.000 HD
ENDBRANCH  27  29
ENDBRANCH  10  25
BRANCH   3  31
ATOM     31  C   UNL     1      -5.683   4.219 121.711  0.00  0.00    +0.000 C 
ATOM     32  O   UNL     1      -6.119   4.108 120.598  0.00  0.00    +0.000 OA
BRANCH  31  33
ATOM     33  O   UNL     1      -4.618   5.040 121.919  0.00  0.00    +0.000 OA
ATOM     34  H   UNL     1      -3.718   4.729 121.766  0.00  0.00    +0.000 HD
ENDBRANCH  31  33
ENDBRANCH   3  31
TORSDOF 5
ENDMDL
MODEL 3
REMARK VINA RESULT:      -7.9      4.013      6.503
REMARK  Name = Delafloxacin
REMARK  5 active torsions:
REMARK  status: ('A' for Active; 'I' for Inactive)
REMARK    1  A    between atoms: C_4  and  N_5
REMARK    2  A    between atoms: C_7  and  C_8
REMARK    3  A    between atoms: C_8  and  O_9
REMARK    4  A    between atoms: C_17  and  N_18
REMARK    5  A    between atoms: C_20  and  O_21
REMARK                            x       y       z     vdW  Elec       q    Type
REMARK                         _______ _______ _______ _____ _____    ______ ____
ROOT
ATOM      1  N   UNL     1      -5.874   2.534 125.370  0.00  0.00    +0.000 N 
ATOM      2  C   UNL     1      -6.210   3.168 124.108  0.00  0.00    +0.000 A 
ATOM      3  C   UNL     1      -7.115   2.794 123.189  0.00  0.00    +0.000 A 
ATOM      4  C   UNL     1      -7.904   1.591 123.595  0.00  0.00    +0.000 A 
ATOM      5  O   UNL     1      -8.781   1.121 122.908  0.00  0.00    +0.000 OA
ATOM      6  C   UNL     1      -7.608   0.925 124.894  0.00  0.00    +0.000 A 
ATOM      7  C   UNL     1      -8.501  -0.047 125.338  0.00  0.00    +0.000 A 
ATOM      8  C   UNL     1      -8.451  -0.600 126.622  0.00  0.00    +0.000 A 
ATOM      9  F   UNL     1      -8.816   0.269 127.616  0.00  0.00    +0.000 F 
ATOM     10  C   UNL     1      -7.282  -1.083 127.097  0.00  0.00    +0.000 A 
ATOM     11  C   UNL     1      -6.383   0.163 126.894  0.00  0.00    +0.000 A 
ATOM     12 CL   UNL     1      -5.552   0.779 128.300  0.00  0.00    +0.000 Cl
ATOM     13  C   UNL     1      -6.539   1.215 125.720  0.00  0.00    +0.000 A 
ENDROOT
BRANCH   1  17
ATOM     14  N   UNL     1      -1.253   3.139 126.773  0.00  0.00    +0.000 N 
ATOM     15  C   UNL     1      -2.583   3.542 126.777  0.00  0.00    +0.000 A 
ATOM     16  N   UNL     1      -3.515   2.794 126.112  0.00  0.00    +0.000 NA
ATOM     17  C   UNL     1      -4.829   3.232 126.102  0.00  0.00    +0.000 A 
ATOM     18  C   UNL     1      -5.219   4.297 126.908  0.00  0.00    +0.000 A 
ATOM     19  F   UNL     1      -6.518   4.597 127.038  0.00  0.00    +0.000 F 
ATOM     20  C   UNL     1      -4.277   5.051 127.583  0.00  0.00    +0.000 A 
ATOM     21  C   UNL     1      -2.946   4.683 127.498  0.00  0.00    +0.000 A 
ATOM     22  F   UNL     1      -2.018   5.437 128.106  0.00  0.00    +0.000 F 
ATOM     23  H   UNL     1      -0.976   2.358 126.198  0.00  0.00    +0.000 HD
ATOM     24  H   UNL     1      -0.541   3.753 127.156  0.00  0.00    +0.000 HD
ENDBRANCH   1  17
BRANCH  10  25
ATOM     25  N   UNL     1      -7.691  -2.009 128.277  0.00  0.00    +0.000 N 
ATOM     26  C   UNL     1      -7.769  -1.777 129.710  0.00  0.00    +0.000 C 
ATOM     27  C   UNL     1      -7.476  -3.301 129.830  0.00  0.00    +0.000 C 
ATOM     28  C   UNL     1      -8.328  -3.365 128.521  0.00  0.00    +0.000 C 
BRANCH  27  29
ATOM     29  O   UNL     1      -6.093  -3.668 129.624  0.00  0.00    +0.000 OA
ATOM     30  H   UNL     1      -6.196  -4.601 129.345  0.00  0.00    +0.000 HD
ENDBRANCH  27  29
ENDBRANCH  10  25
BRANCH   3  31
ATOM     31  C   UNL     1      -7.422   3.422 121.841  0.00  0.00    +0.000 C 
ATOM     32  O   UNL     1      -6.601   3.618 120.986  0.00  0.00    +0.000 OA
BRANCH  31  33
ATOM     33  O   UNL     1      -8.710   3.798 121.611  0.00  0.00    +0.000 OA
ATOM     34  H   UNL     1      -9.318   3.949 122.343  0.00  0.00    +0.000 HD
ENDBRANCH  31  33
ENDBRANCH   3  31
TORSDOF 5
ENDMDL
MODEL 4
REMARK VINA RESULT:      -7.9      2.772      3.030
REMARK  Name = Delafloxacin
REMARK  5 active torsions:
REMARK  status: ('A' for Active; 'I' for Inactive)
REMARK    1  A    between atoms: C_4  and  N_5
REMARK    2  A    between atoms: C_7  and  C_8
REMARK    3  A    between atoms: C_8  and  O_9
REMARK    4  A    between atoms: C_17  and  N_18
REMARK    5  A    between atoms: C_20  and  O_21
REMARK                            x       y       z     vdW  Elec       q    Type
REMARK                         _______ _______ _______ _____ _____    ______ ____
ROOT
ATOM      1  N   UNL     1      -6.454  -1.439 127.114  0.00  0.00    +0.000 N 
ATOM      2  C   UNL     1      -7.233  -2.114 126.093  0.00  0.00    +0.000 A 
ATOM      3  C   UNL     1      -7.760  -1.612 124.963  0.00  0.00    +0.000 A 
ATOM      4  C   UNL     1      -7.415  -0.175 124.740  0.00  0.00    +0.000 A 
ATOM      5  O   UNL     1      -7.778   0.442 123.766  0.00  0.00    +0.000 OA
ATOM      6  C   UNL     1      -6.595   0.547 125.754  0.00  0.00    +0.000 A 
ATOM      7  C   UNL     1      -6.110   1.807 125.409  0.00  0.00    +0.000 A 
ATOM      8  C   UNL     1      -5.171   2.499 126.182  0.00  0.00    +0.000 A 
ATOM      9  F   UNL     1      -3.917   1.948 126.156  0.00  0.00    +0.000 F 
ATOM     10  C   UNL     1      -5.376   2.651 127.508  0.00  0.00    +0.000 A 
ATOM     11  C   UNL     1      -5.578   1.169 127.912  0.00  0.00    +0.000 A 
ATOM     12 CL   UNL     1      -4.532   0.536 129.158  0.00  0.00    +0.000 Cl
ATOM     13  C   UNL     1      -6.241   0.058 126.996  0.00  0.00    +0.000 A 
ENDROOT
BRANCH   1  17
ATOM     14  N   UNL     1      -3.127  -3.840 129.734  0.00  0.00    +0.000 N 
ATOM     15  C   UNL     1      -4.446  -3.474 129.493  0.00  0.00    +0.000 A 
ATOM     16  N   UNL     1      -4.741  -2.695 128.408  0.00  0.00    +0.000 NA
ATOM     17  C   UNL     1      -6.058  -2.316 128.205  0.00  0.00    +0.000 A 
ATOM     18  C   UNL     1      -7.074  -2.875 128.974  0.00  0.00    +0.000 A 
ATOM     19  F   UNL     1      -8.355  -2.651 128.654  0.00  0.00    +0.000 F 
ATOM     20  C   UNL     1      -6.775  -3.665 130.069  0.00  0.00    +0.000 A 
ATOM     21  C   UNL     1      -5.449  -3.948 130.342  0.00  0.00    +0.000 A 
ATOM     22  F   UNL     1      -5.145  -4.671 131.431  0.00  0.00    +0.000 F 
ATOM     23  H   UNL     1      -2.394  -3.443 129.166  0.00  0.00    +0.000 HD
ATOM     24  H   UNL     1      -2.886  -4.309 130.601  0.00  0.00    +0.000 HD
ENDBRANCH   1  17
BRANCH  10  25
ATOM     25  N   UNL     1      -4.440   3.823 127.918  0.00  0.00    +0.000 N 
ATOM     26  C   UNL     1      -4.251   5.153 127.361  0.00  0.00    +0.000 C 
ATOM     27  C   UNL     1      -2.802   5.025 127.916  0.00  0.00    +0.000 C 
ATOM     28  C   UNL     1      -3.521   4.232 129.054  0.00  0.00    +0.000 C 
BRANCH  27  29
ATOM     29  O   UNL     1      -1.922   4.200 127.120  0.00  0.00    +0.000 OA
ATOM     30  H   UNL     1      -1.100   4.731 127.153  0.00  0.00    +0.000 HD
ENDBRANCH  27  29
ENDBRANCH  10  25
BRANCH   3  31
ATOM     31  C   UNL     1      -8.628  -2.303 123.926  0.00  0.00    +0.000 C 
ATOM     32  O   UNL     1      -9.646  -2.887 124.181  0.00  0.00    +0.000 OA
BRANCH  31  33
ATOM     33  O   UNL     1      -8.201  -2.263 122.635  0.00  0.00    +0.000 OA
ATOM     34  H   UNL     1      -8.262  -3.042 122.070  0.00  0.00    +0.000 HD
ENDBRANCH  31  33
ENDBRANCH   3  31
TORSDOF 5
ENDMDL
MODEL 5
REMARK VINA RESULT:      -7.9      4.601      5.699
REMARK  Name = Delafloxacin
REMARK  5 active torsions:
REMARK  status: ('A' for Active; 'I' for Inactive)
REMARK    1  A    between atoms: C_4  and  N_5
REMARK    2  A    between atoms: C_7  and  C_8
REMARK    3  A    between atoms: C_8  and  O_9
REMARK    4  A    between atoms: C_17  and  N_18
REMARK    5  A    between atoms: C_20  and  O_21
REMARK                            x       y       z     vdW  Elec       q    Type
REMARK                         _______ _______ _______ _____ _____    ______ ____
ROOT
ATOM      1  N   UNL     1      -6.817   1.305 124.575  0.00  0.00    +0.000 N 
ATOM      2  C   UNL     1      -7.044   1.773 123.221  0.00  0.00    +0.000 A 
ATOM      3  C   UNL     1      -6.708   2.950 122.666  0.00  0.00    +0.000 A 
ATOM      4  C   UNL     1      -5.941   3.839 123.590  0.00  0.00    +0.000 A 
ATOM      5  O   UNL     1      -5.531   4.928 123.261  0.00  0.00    +0.000 OA
ATOM      6  C   UNL     1      -5.665   3.385 124.983  0.00  0.00    +0.000 A 
ATOM      7  C   UNL     1      -4.766   4.134 125.738  0.00  0.00    +0.000 A 
ATOM      8  C   UNL     1      -4.270   3.709 126.976  0.00  0.00    +0.000 A 
ATOM      9  F   UNL     1      -3.404   2.651 126.892  0.00  0.00    +0.000 F 
ATOM     10  C   UNL     1      -5.127   3.288 127.930  0.00  0.00    +0.000 A 
ATOM     11  C   UNL     1      -5.892   2.202 127.134  0.00  0.00    +0.000 A 
ATOM     12 CL   UNL     1      -5.914   0.591 127.807  0.00  0.00    +0.000 Cl
ATOM     13  C   UNL     1      -6.197   2.258 125.580  0.00  0.00    +0.000 A 
ENDROOT
BRANCH   1  17
ATOM     14  N   UNL     1      -6.569  -3.542 124.214  0.00  0.00    +0.000 N 
ATOM     15  C   UNL     1      -7.212  -2.392 124.654  0.00  0.00    +0.000 A 
ATOM     16  N   UNL     1      -6.693  -1.167 124.336  0.00  0.00    +0.000 NA
ATOM     17  C   UNL     1      -7.332  -0.035 124.812  0.00  0.00    +0.000 A 
ATOM     18  C   UNL     1      -8.574  -0.139 125.432  0.00  0.00    +0.000 A 
ATOM     19  F   UNL     1      -9.272   0.967 125.722  0.00  0.00    +0.000 F 
ATOM     20  C   UNL     1      -9.099  -1.378 125.750  0.00  0.00    +0.000 A 
ATOM     21  C   UNL     1      -8.401  -2.512 125.377  0.00  0.00    +0.000 A 
ATOM     22  F   UNL     1      -8.876  -3.718 125.727  0.00  0.00    +0.000 F 
ATOM     23  H   UNL     1      -5.675  -3.462 123.752  0.00  0.00    +0.000 HD
ATOM     24  H   UNL     1      -6.875  -4.450 124.550  0.00  0.00    +0.000 HD
ENDBRANCH   1  17
BRANCH  10  25
ATOM     25  N   UNL     1      -4.309   3.364 129.251  0.00  0.00    +0.000 N 
ATOM     26  C   UNL     1      -4.161   2.429 130.355  0.00  0.00    +0.000 C 
ATOM     27  C   UNL     1      -3.916   3.704 131.215  0.00  0.00    +0.000 C 
ATOM     28  C   UNL     1      -3.237   4.215 129.904  0.00  0.00    +0.000 C 
BRANCH  27  29
ATOM     29  O   UNL     1      -5.112   4.440 131.557  0.00  0.00    +0.000 OA
ATOM     30  H   UNL     1      -5.792   3.886 131.121  0.00  0.00    +0.000 HD
ENDBRANCH  27  29
ENDBRANCH  10  25
BRANCH   3  31
ATOM     31  C   UNL     1      -7.001   3.464 121.267  0.00  0.00    +0.000 C 
ATOM     32  O   UNL     1      -6.197   3.485 120.375  0.00  0.00    +0.000 OA
BRANCH  31  33
ATOM     33  O   UNL     1      -8.253   3.943 121.033  0.00  0.00    +0.000 OA
ATOM     34  H   UNL     1      -8.738   4.414 121.720  0.00  0.00    +0.000 HD
ENDBRANCH  31  33
ENDBRANCH   3  31
TORSDOF 5
ENDMDL
MODEL 6
REMARK VINA RESULT:      -7.7      3.251      4.979
REMARK  Name = Delafloxacin
REMARK  5 active torsions:
REMARK  status: ('A' for Active; 'I' for Inactive)
REMARK    1  A    between atoms: C_4  and  N_5
REMARK    2  A    between atoms: C_7  and  C_8
REMARK    3  A    between atoms: C_8  and  O_9
REMARK    4  A    between atoms: C_17  and  N_18
REMARK    5  A    between atoms: C_20  and  O_21
REMARK                            x       y       z     vdW  Elec       q    Type
REMARK                         _______ _______ _______ _____ _____    ______ ____
ROOT
ATOM      1  N   UNL     1      -6.386  -1.527 127.877  0.00  0.00    +0.000 N 
ATOM      2  C   UNL     1      -5.384  -2.511 128.244  0.00  0.00    +0.000 A 
ATOM      3  C   UNL     1      -4.431  -2.435 129.189  0.00  0.00    +0.000 A 
ATOM      4  C   UNL     1      -4.492  -1.172 129.986  0.00  0.00    +0.000 A 
ATOM      5  O   UNL     1      -3.732  -0.935 130.896  0.00  0.00    +0.000 OA
ATOM      6  C   UNL     1      -5.523  -0.147 129.657  0.00  0.00    +0.000 A 
ATOM      7  C   UNL     1      -5.693   0.905 130.553  0.00  0.00    +0.000 A 
ATOM      8  C   UNL     1      -6.751   1.817 130.468  0.00  0.00    +0.000 A 
ATOM      9  F   UNL     1      -7.972   1.279 130.782  0.00  0.00    +0.000 F 
ATOM     10  C   UNL     1      -7.014   2.428 129.293  0.00  0.00    +0.000 A 
ATOM     11  C   UNL     1      -7.156   1.186 128.378  0.00  0.00    +0.000 A 
ATOM     12 CL   UNL     1      -8.648   1.022 127.486  0.00  0.00    +0.000 Cl
ATOM     13  C   UNL     1      -6.354  -0.170 128.554  0.00  0.00    +0.000 A 
ENDROOT
BRANCH   1  17
ATOM     14  N   UNL     1      -7.650  -1.754 123.182  0.00  0.00    +0.000 N 
ATOM     15  C   UNL     1      -7.863  -2.095 124.512  0.00  0.00    +0.000 A 
ATOM     16  N   UNL     1      -7.039  -1.589 125.478  0.00  0.00    +0.000 NA
ATOM     17  C   UNL     1      -7.251  -1.968 126.793  0.00  0.00    +0.000 A 
ATOM     18  C   UNL     1      -8.389  -2.688 127.140  0.00  0.00    +0.000 A 
ATOM     19  F   UNL     1      -8.686  -2.890 128.430  0.00  0.00    +0.000 F 
ATOM     20  C   UNL     1      -9.225  -3.197 126.163  0.00  0.00    +0.000 A 
ATOM     21  C   UNL     1      -8.946  -2.916 124.837  0.00  0.00    +0.000 A 
ATOM     22  F   UNL     1      -9.720  -3.448 123.879  0.00  0.00    +0.000 F 
ATOM     23  H   UNL     1      -6.830  -1.220 122.936  0.00  0.00    +0.000 HD
ATOM     24  H   UNL     1      -8.176  -2.223 122.451  0.00  0.00    +0.000 HD
ENDBRANCH   1  17
BRANCH  10  25
ATOM     25  N   UNL     1      -7.882   3.660 129.679  0.00  0.00    +0.000 N 
ATOM     26  C   UNL     1      -9.311   3.809 129.899  0.00  0.00    +0.000 C 
ATOM     27  C   UNL     1      -9.087   5.277 129.431  0.00  0.00    +0.000 C 
ATOM     28  C   UNL     1      -7.718   5.089 130.160  0.00  0.00    +0.000 C 
BRANCH  27  29
ATOM     29  O   UNL     1      -8.950   5.439 128.001  0.00  0.00    +0.000 OA
ATOM     30  H   UNL     1      -9.669   4.854 127.686  0.00  0.00    +0.000 HD
ENDBRANCH  27  29
ENDBRANCH  10  25
BRANCH   3  31
ATOM     31  C   UNL     1      -3.344  -3.438 129.530  0.00  0.00    +0.000 C 
ATOM     32  O   UNL     1      -2.714  -4.053 128.713  0.00  0.00    +0.000 OA
BRANCH  31  33
ATOM     33  O   UNL     1      -3.093  -3.655 130.850  0.00  0.00    +0.000 OA
ATOM     34  H   UNL     1      -3.625  -3.226 131.531  0.00  0.00    +0.000 HD
ENDBRANCH  31  33
ENDBRANCH   3  31
TORSDOF 5
ENDMDL
MODEL 7
REMARK VINA RESULT:      -7.6      1.964      2.401
REMARK  Name = Delafloxacin
REMARK  5 active torsions:
REMARK  status: ('A' for Active; 'I' for Inactive)
REMARK    1  A    between atoms: C_4  and  N_5
REMARK    2  A    between atoms: C_7  and  C_8
REMARK    3  A    between atoms: C_8  and  O_9
REMARK    4  A    between atoms: C_17  and  N_18
REMARK    5  A    between atoms: C_20  and  O_21
REMARK                            x       y       z     vdW  Elec       q    Type
REMARK                         _______ _______ _______ _____ _____    ______ ____
ROOT
ATOM      1  N   UNL     1      -7.202  -0.876 128.447  0.00  0.00    +0.000 N 
ATOM      2  C   UNL     1      -7.502  -1.079 127.042  0.00  0.00    +0.000 A 
ATOM      3  C   UNL     1      -8.175  -0.279 126.197  0.00  0.00    +0.000 A 
ATOM      4  C   UNL     1      -8.596   1.013 126.819  0.00  0.00    +0.000 A 
ATOM      5  O   UNL     1      -9.191   1.870 126.208  0.00  0.00    +0.000 OA
ATOM      6  C   UNL     1      -8.285   1.271 128.254  0.00  0.00    +0.000 A 
ATOM      7  C   UNL     1      -8.491   2.562 128.734  0.00  0.00    +0.000 A 
ATOM      8  C   UNL     1      -8.055   2.985 129.995  0.00  0.00    +0.000 A 
ATOM      9  F   UNL     1      -6.694   3.105 130.099  0.00  0.00    +0.000 F 
ATOM     10  C   UNL     1      -8.350   2.248 131.087  0.00  0.00    +0.000 A 
ATOM     11  C   UNL     1      -7.789   0.877 130.636  0.00  0.00    +0.000 A 
ATOM     12 CL   UNL     1      -6.605   0.123 131.674  0.00  0.00    +0.000 Cl
ATOM     13  C   UNL     1      -7.771   0.347 129.143  0.00  0.00    +0.000 A 
ENDROOT
BRANCH   1  17
ATOM     14  N   UNL     1      -3.051  -3.162 129.559  0.00  0.00    +0.000 N 
ATOM     15  C   UNL     1      -4.438  -3.083 129.595  0.00  0.00    +0.000 A 
ATOM     16  N   UNL     1      -5.070  -2.049 128.962  0.00  0.00    +0.000 NA
ATOM     17  C   UNL     1      -6.452  -1.973 129.037  0.00  0.00    +0.000 A 
ATOM     18  C   UNL     1      -7.183  -3.026 129.578  0.00  0.00    +0.000 A 
ATOM     19  F   UNL     1      -8.518  -3.033 129.481  0.00  0.00    +0.000 F 
ATOM     20  C   UNL     1      -6.543  -4.073 130.216  0.00  0.00    +0.000 A 
ATOM     21  C   UNL     1      -5.160  -4.089 130.243  0.00  0.00    +0.000 A 
ATOM     22  F   UNL     1      -4.529  -5.073 130.903  0.00  0.00    +0.000 F 
ATOM     23  H   UNL     1      -2.525  -2.402 129.154  0.00  0.00    +0.000 HD
ATOM     24  H   UNL     1      -2.572  -3.851 130.129  0.00  0.00    +0.000 HD
ENDBRANCH   1  17
BRANCH  10  25
ATOM     25  N   UNL     1      -8.147   3.222 132.283  0.00  0.00    +0.000 N 
ATOM     26  C   UNL     1      -7.680   3.004 133.642  0.00  0.00    +0.000 C 
ATOM     27  C   UNL     1      -8.572   4.230 133.994  0.00  0.00    +0.000 C 
ATOM     28  C   UNL     1      -8.125   4.710 132.576  0.00  0.00    +0.000 C 
BRANCH  27  29
ATOM     29  O   UNL     1      -9.986   3.943 134.075  0.00  0.00    +0.000 OA
ATOM     30  H   UNL     1     -10.012   3.403 134.891  0.00  0.00    +0.000 HD
ENDBRANCH  27  29
ENDBRANCH  10  25
BRANCH   3  31
ATOM     31  C   UNL     1      -8.543  -0.521 124.744  0.00  0.00    +0.000 C 
ATOM     32  O   UNL     1      -9.283  -1.391 124.372  0.00  0.00    +0.000 OA
BRANCH  31  33
ATOM     33  O   UNL     1      -7.976   0.298 123.817  0.00  0.00    +0.000 OA
ATOM     34  H   UNL     1      -8.515   0.905 123.298  0.00  0.00    +0.000 HD
ENDBRANCH  31  33
ENDBRANCH   3  31
TORSDOF 5
ENDMDL
MODEL 8
REMARK VINA RESULT:      -7.6      2.263      5.634
REMARK  Name = Delafloxacin
REMARK  5 active torsions:
REMARK  status: ('A' for Active; 'I' for Inactive)
REMARK    1  A    between atoms: C_4  and  N_5
REMARK    2  A    between atoms: C_7  and  C_8
REMARK    3  A    between atoms: C_8  and  O_9
REMARK    4  A    between atoms: C_17  and  N_18
REMARK    5  A    between atoms: C_20  and  O_21
REMARK                            x       y       z     vdW  Elec       q    Type
REMARK                         _______ _______ _______ _____ _____    ______ ____
ROOT
ATOM      1  N   UNL     1      -7.033  -0.327 129.476  0.00  0.00    +0.000 N 
ATOM      2  C   UNL     1      -7.304   0.677 130.487  0.00  0.00    +0.000 A 
ATOM      3  C   UNL     1      -7.947   1.851 130.362  0.00  0.00    +0.000 A 
ATOM      4  C   UNL     1      -8.493   2.079 128.990  0.00  0.00    +0.000 A 
ATOM      5  O   UNL     1      -9.123   3.068 128.692  0.00  0.00    +0.000 OA
ATOM      6  C   UNL     1      -8.258   1.059 127.929  0.00  0.00    +0.000 A 
ATOM      7  C   UNL     1      -8.964   1.197 126.736  0.00  0.00    +0.000 A 
ATOM      8  C   UNL     1      -8.988   0.209 125.745  0.00  0.00    +0.000 A 
ATOM      9  F   UNL     1      -9.693  -0.912 126.098  0.00  0.00    +0.000 F 
ATOM     10  C   UNL     1      -7.829  -0.323 125.303  0.00  0.00    +0.000 A 
ATOM     11  C   UNL     1      -7.218  -0.776 126.653  0.00  0.00    +0.000 A 
ATOM     12 CL   UNL     1      -6.778  -2.459 126.801  0.00  0.00    +0.000 Cl
ATOM     13  C   UNL     1      -7.425  -0.037 128.039  0.00  0.00    +0.000 A 
ENDROOT
BRANCH   1  17
ATOM     14  N   UNL     1      -2.932  -2.600 130.784  0.00  0.00    +0.000 N 
ATOM     15  C   UNL     1      -4.314  -2.581 130.642  0.00  0.00    +0.000 A 
ATOM     16  N   UNL     1      -4.920  -1.485 130.092  0.00  0.00    +0.000 NA
ATOM     17  C   UNL     1      -6.301  -1.475 129.990  0.00  0.00    +0.000 A 
ATOM     18  C   UNL     1      -7.033  -2.627 130.261  0.00  0.00    +0.000 A 
ATOM     19  F   UNL     1      -8.342  -2.669 129.982  0.00  0.00    +0.000 F 
ATOM     20  C   UNL     1      -6.419  -3.736 130.813  0.00  0.00    +0.000 A 
ATOM     21  C   UNL     1      -5.053  -3.703 131.026  0.00  0.00    +0.000 A 
ATOM     22  F   UNL     1      -4.456  -4.754 131.609  0.00  0.00    +0.000 F 
ATOM     23  H   UNL     1      -2.404  -1.767 130.574  0.00  0.00    +0.000 HD
ATOM     24  H   UNL     1      -2.490  -3.352 131.303  0.00  0.00    +0.000 HD
ENDBRANCH   1  17
BRANCH  10  25
ATOM     25  N   UNL     1      -8.194  -0.982 123.943  0.00  0.00    +0.000 N 
ATOM     26  C   UNL     1      -9.201  -0.655 122.947  0.00  0.00    +0.000 C 
ATOM     27  C   UNL     1      -9.170  -2.177 122.622  0.00  0.00    +0.000 C 
ATOM     28  C   UNL     1      -7.657  -2.019 122.975  0.00  0.00    +0.000 C 
BRANCH  27  29
ATOM     29  O   UNL     1      -9.887  -3.008 123.562  0.00  0.00    +0.000 OA
ATOM     30  H   UNL     1      -9.359  -2.857 124.373  0.00  0.00    +0.000 HD
ENDBRANCH  27  29
ENDBRANCH  10  25
BRANCH   3  31
ATOM     31  C   UNL     1      -8.176   2.930 131.406  0.00  0.00    +0.000 C 
ATOM     32  O   UNL     1      -7.311   3.389 132.101  0.00  0.00    +0.000 OA
BRANCH  31  33
ATOM     33  O   UNL     1      -9.450   3.380 131.563  0.00  0.00    +0.000 OA
ATOM     34  H   UNL     1      -9.624   4.256 131.926  0.00  0.00    +0.000 HD
ENDBRANCH  31  33
ENDBRANCH   3  31
TORSDOF 5
ENDMDL
MODEL 9
REMARK VINA RESULT:      -7.6      2.333      6.550
REMARK  Name = Delafloxacin
REMARK  5 active torsions:
REMARK  status: ('A' for Active; 'I' for Inactive)
REMARK    1  A    between atoms: C_4  and  N_5
REMARK    2  A    between atoms: C_7  and  C_8
REMARK    3  A    between atoms: C_8  and  O_9
REMARK    4  A    between atoms: C_17  and  N_18
REMARK    5  A    between atoms: C_20  and  O_21
REMARK                            x       y       z     vdW  Elec       q    Type
REMARK                         _______ _______ _______ _____ _____    ______ ____
ROOT
ATOM      1  N   UNL     1      -8.343   1.081 127.966  0.00  0.00    +0.000 N 
ATOM      2  C   UNL     1      -8.954   1.330 126.673  0.00  0.00    +0.000 A 
ATOM      3  C   UNL     1      -9.090   0.496 125.628  0.00  0.00    +0.000 A 
ATOM      4  C   UNL     1      -8.585  -0.883 125.906  0.00  0.00    +0.000 A 
ATOM      5  O   UNL     1      -8.644  -1.778 125.094  0.00  0.00    +0.000 OA
ATOM      6  C   UNL     1      -7.973  -1.186 127.231  0.00  0.00    +0.000 A 
ATOM      7  C   UNL     1      -7.720  -2.522 127.532  0.00  0.00    +0.000 A 
ATOM      8  C   UNL     1      -7.339  -2.958 128.806  0.00  0.00    +0.000 A 
ATOM      9  F   UNL     1      -8.337  -2.879 129.741  0.00  0.00    +0.000 F 
ATOM     10  C   UNL     1      -6.317  -2.347 129.443  0.00  0.00    +0.000 A 
ATOM     11  C   UNL     1      -6.811  -0.880 129.383  0.00  0.00    +0.000 A 
ATOM     12 CL   UNL     1      -6.954  -0.028 130.900  0.00  0.00    +0.000 Cl
ATOM     13  C   UNL     1      -7.669  -0.256 128.206  0.00  0.00    +0.000 A 
ENDROOT
BRANCH   1  17
ATOM     14  N   UNL     1     -10.632   4.150 130.972  0.00  0.00    +0.000 N 
ATOM     15  C   UNL     1      -9.480   3.724 130.322  0.00  0.00    +0.000 A 
ATOM     16  N   UNL     1      -9.546   2.665 129.460  0.00  0.00    +0.000 NA
ATOM     17  C   UNL     1      -8.379   2.237 128.848  0.00  0.00    +0.000 A 
ATOM     18  C   UNL     1      -7.213   2.989 128.959  0.00  0.00    +0.000 A 
ATOM     19  F   UNL     1      -6.142   2.677 128.218  0.00  0.00    +0.000 F 
ATOM     20  C   UNL     1      -7.149   4.063 129.828  0.00  0.00    +0.000 A 
ATOM     21  C   UNL     1      -8.286   4.418 130.531  0.00  0.00    +0.000 A 
ATOM     22  F   UNL     1      -8.220   5.426 131.416  0.00  0.00    +0.000 F 
ATOM     23  H   UNL     1     -11.479   3.609 130.878  0.00  0.00    +0.000 HD
ATOM     24  H   UNL     1     -10.568   4.850 131.703  0.00  0.00    +0.000 HD
ENDBRANCH   1  17
BRANCH  10  25
ATOM     25  N   UNL     1      -5.884  -3.357 130.545  0.00  0.00    +0.000 N 
ATOM     26  C   UNL     1      -5.816  -3.241 131.992  0.00  0.00    +0.000 C 
ATOM     27  C   UNL     1      -4.675  -4.295 131.881  0.00  0.00    +0.000 C 
ATOM     28  C   UNL     1      -5.553  -4.829 130.704  0.00  0.00    +0.000 C 
BRANCH  27  29
ATOM     29  O   UNL     1      -3.404  -3.762 131.442  0.00  0.00    +0.000 OA
ATOM     30  H   UNL     1      -3.525  -3.790 130.471  0.00  0.00    +0.000 HD
ENDBRANCH  27  29
ENDBRANCH  10  25
BRANCH   3  31
ATOM     31  C   UNL     1      -9.673   0.775 124.254  0.00  0.00    +0.000 C 
ATOM     32  O   UNL     1     -10.785   1.185 124.065  0.00  0.00    +0.000 OA
BRANCH  31  33
ATOM     33  O   UNL     1      -8.876   0.523 123.180  0.00  0.00    +0.000 OA
ATOM     34  H   UNL     1      -8.691   1.210 122.529  0.00  0.00    +0.000 HD
ENDBRANCH  31  33
ENDBRANCH   3  31
TORSDOF 5
ENDMDL
