MODEL 1
REMARK VINA RESULT:      -7.8      0.000      0.000
REMARK  Name = Delavirdine
REMARK  9 active torsions:
REMARK  status: ('A' for Active; 'I' for Inactive)
REMARK    1  A    between atoms: C_1  and  C_2
REMARK    2  A    between atoms: C_2  and  C_3
REMARK    3  A    between atoms: C_2  and  N_4
REMARK    4  A    between atoms: N_4  and  C_5
REMARK    5  A    between atoms: C_6  and  N_11
REMARK    6  A    between atoms: C_17  and  C_19
REMARK    7  A    between atoms: C_26  and  N_27
REMARK    8  A    between atoms: N_27  and  S_28
REMARK    9  A    between atoms: S_28  and  C_29
REMARK                            x       y       z     vdW  Elec       q    Type
REMARK                         _______ _______ _______ _____ _____    ______ ____
ROOT
ATOM      1  N   UNL     1      -0.591   8.977 133.795  0.00  0.00    +0.000 N 
ATOM      2  C   UNL     1       0.039   7.908 133.016  0.00  0.00    +0.000 C 
ATOM      3  C   UNL     1      -0.729   6.586 133.308  0.00  0.00    +0.000 C 
ATOM      4  N   UNL     1      -2.190   6.752 133.074  0.00  0.00    +0.000 N 
ATOM      5  C   UNL     1      -2.772   7.861 133.842  0.00  0.00    +0.000 C 
ATOM      6  C   UNL     1      -2.019   9.177 133.552  0.00  0.00    +0.000 C 
ATOM      7  C   UNL     1      -2.895   5.853 132.271  0.00  0.00    +0.000 C 
ATOM      8  O   UNL     1      -2.325   4.904 131.736  0.00  0.00    +0.000 OA
ENDROOT
BRANCH   7   9
ATOM      9  C   UNL     1      -4.329   6.055 132.087  0.00  0.00    +0.000 A 
ATOM     10  C   UNL     1      -4.978   6.873 131.169  0.00  0.00    +0.000 A 
ATOM     11  C   UNL     1      -6.391   6.746 131.342  0.00  0.00    +0.000 A 
ATOM     12  C   UNL     1      -6.570   5.893 132.427  0.00  0.00    +0.000 A 
ATOM     13  N   UNL     1      -5.322   5.542 132.896  0.00  0.00    +0.000 N 
ATOM     14  C   UNL     1      -7.833   5.532 132.887  0.00  0.00    +0.000 A 
ATOM     15  C   UNL     1      -8.941   6.045 132.208  0.00  0.00    +0.000 A 
ATOM     16  C   UNL     1      -8.825   6.889 131.105  0.00  0.00    +0.000 A 
ATOM     17  C   UNL     1      -7.537   7.258 130.674  0.00  0.00    +0.000 A 
ATOM     18  H   UNL     1      -5.164   4.966 133.710  0.00  0.00    +0.000 HD
BRANCH  16  19
ATOM     19  N   UNL     1      -9.964   7.252 130.308  0.00  0.00    +0.000 N 
ATOM     20  H   UNL     1     -10.750   7.729 130.750  0.00  0.00    +0.000 HD
BRANCH  19  21
ATOM     21  S   UNL     1     -10.352   6.518 128.845  0.00  0.00    +0.000 S 
ATOM     22  C   UNL     1     -10.660   7.916 127.767  0.00  0.00    +0.000 C 
ATOM     23  O   UNL     1      -9.220   5.777 128.352  0.00  0.00    +0.000 OA
ATOM     24  O   UNL     1     -11.631   5.857 129.056  0.00  0.00    +0.000 OA
ENDBRANCH  19  21
ENDBRANCH  16  19
ENDBRANCH   7   9
BRANCH   1  26
ATOM     25  C   UNL     1       0.824  10.947 134.055  0.00  0.00    +0.000 A 
ATOM     26  C   UNL     1       0.142   9.825 134.605  0.00  0.00    +0.000 A 
ATOM     27  N   UNL     1       0.167   9.577 135.943  0.00  0.00    +0.000 NA
ATOM     28  C   UNL     1       0.914  10.388 136.740  0.00  0.00    +0.000 A 
ATOM     29  C   UNL     1       1.622  11.477 136.291  0.00  0.00    +0.000 A 
ATOM     30  C   UNL     1       1.537  11.761 134.944  0.00  0.00    +0.000 A 
BRANCH  25  31
ATOM     31  N   UNL     1       0.750  11.309 132.702  0.00  0.00    +0.000 N 
ATOM     32  H   UNL     1       1.462  10.862 132.138  0.00  0.00    +0.000 HD
BRANCH  31  34
ATOM     33  C   UNL     1       0.698  12.879 130.824  0.00  0.00    +0.000 C 
ATOM     34  C   UNL     1       0.235  12.611 132.260  0.00  0.00    +0.000 C 
ATOM     35  C   UNL     1      -1.291  12.624 132.249  0.00  0.00    +0.000 C 
ENDBRANCH  31  34
ENDBRANCH  25  31
ENDBRANCH   1  26
TORSDOF 6
ENDMDL
MODEL 2
REMARK VINA RESULT:      -7.8      7.770     10.408
REMARK  Name = Delavirdine
REMARK  9 active torsions:
REMARK  status: ('A' for Active; 'I' for Inactive)
REMARK    1  A    between atoms: C_1  and  C_2
REMARK    2  A    between atoms: C_2  and  C_3
REMARK    3  A    between atoms: C_2  and  N_4
REMARK    4  A    between atoms: N_4  and  C_5
REMARK    5  A    between atoms: C_6  and  N_11
REMARK    6  A    between atoms: C_17  and  C_19
REMARK    7  A    between atoms: C_26  and  N_27
REMARK    8  A    between atoms: N_27  and  S_28
REMARK    9  A    between atoms: S_28  and  C_29
REMARK                            x       y       z     vdW  Elec       q    Type
REMARK                         _______ _______ _______ _____ _____    ______ ____
ROOT
ATOM      1  N   UNL     1     -10.073   6.184 130.416  0.00  0.00    +0.000 N 
ATOM      2  C   UNL     1      -8.758   6.495 130.983  0.00  0.00    +0.000 C 
ATOM      3  C   UNL     1      -8.331   5.300 131.884  0.00  0.00    +0.000 C 
ATOM      4  N   UNL     1      -8.402   4.014 131.138  0.00  0.00    +0.000 N 
ATOM      5  C   UNL     1      -9.724   3.762 130.551  0.00  0.00    +0.000 C 
ATOM      6  C   UNL     1     -10.152   4.941 129.651  0.00  0.00    +0.000 C 
ATOM      7  C   UNL     1      -7.315   3.136 131.117  0.00  0.00    +0.000 C 
ATOM      8  O   UNL     1      -6.274   3.405 131.713  0.00  0.00    +0.000 OA
ENDROOT
BRANCH   7   9
ATOM      9  C   UNL     1      -7.445   1.881 130.381  0.00  0.00    +0.000 A 
ATOM     10  C   UNL     1      -7.408   1.676 129.006  0.00  0.00    +0.000 A 
ATOM     11  C   UNL     1      -7.563   0.282 128.734  0.00  0.00    +0.000 A 
ATOM     12  C   UNL     1      -7.763  -0.331 129.968  0.00  0.00    +0.000 A 
ATOM     13  N   UNL     1      -7.751   0.654 130.932  0.00  0.00    +0.000 N 
ATOM     14  C   UNL     1      -7.948  -1.705 130.095  0.00  0.00    +0.000 A 
ATOM     15  C   UNL     1      -7.911  -2.473 128.929  0.00  0.00    +0.000 A 
ATOM     16  C   UNL     1      -7.696  -1.920 127.668  0.00  0.00    +0.000 A 
ATOM     17  C   UNL     1      -7.535  -0.525 127.564  0.00  0.00    +0.000 A 
ATOM     18  H   UNL     1      -7.921   0.489 131.914  0.00  0.00    +0.000 HD
BRANCH  16  19
ATOM     19  N   UNL     1      -7.473  -2.741 126.510  0.00  0.00    +0.000 N 
ATOM     20  H   UNL     1      -6.519  -3.005 126.263  0.00  0.00    +0.000 HD
BRANCH  19  21
ATOM     21  S   UNL     1      -8.565  -2.881 125.239  0.00  0.00    +0.000 S 
ATOM     22  C   UNL     1      -8.066  -1.561 124.135  0.00  0.00    +0.000 C 
ATOM     23  O   UNL     1      -8.387  -4.148 124.577  0.00  0.00    +0.000 OA
ATOM     24  O   UNL     1      -9.863  -2.510 125.784  0.00  0.00    +0.000 OA
ENDBRANCH  19  21
ENDBRANCH  16  19
ENDBRANCH   7   9
BRANCH   1  26
ATOM     25  C   UNL     1     -11.321   8.062 129.485  0.00  0.00    +0.000 A 
ATOM     26  C   UNL     1     -11.133   7.070 130.489  0.00  0.00    +0.000 A 
ATOM     27  N   UNL     1     -12.006   6.949 131.526  0.00  0.00    +0.000 NA
ATOM     28  C   UNL     1     -13.030   7.839 131.621  0.00  0.00    +0.000 A 
ATOM     29  C   UNL     1     -13.272   8.841 130.712  0.00  0.00    +0.000 A 
ATOM     30  C   UNL     1     -12.422   8.915 129.627  0.00  0.00    +0.000 A 
BRANCH  25  31
ATOM     31  N   UNL     1     -10.514   8.168 128.342  0.00  0.00    +0.000 N 
ATOM     32  H   UNL     1      -9.815   8.896 128.424  0.00  0.00    +0.000 HD
BRANCH  31  34
ATOM     33  C   UNL     1     -10.059   6.778 126.380  0.00  0.00    +0.000 C 
ATOM     34  C   UNL     1     -10.996   7.819 127.001  0.00  0.00    +0.000 C 
ATOM     35  C   UNL     1     -12.385   7.193 127.060  0.00  0.00    +0.000 C 
ENDBRANCH  31  34
ENDBRANCH  25  31
ENDBRANCH   1  26
TORSDOF 6
ENDMDL
MODEL 3
REMARK VINA RESULT:      -7.7      7.572     11.714
REMARK  Name = Delavirdine
REMARK  9 active torsions:
REMARK  status: ('A' for Active; 'I' for Inactive)
REMARK    1  A    between atoms: C_1  and  C_2
REMARK    2  A    between atoms: C_2  and  C_3
REMARK    3  A    between atoms: C_2  and  N_4
REMARK    4  A    between atoms: N_4  and  C_5
REMARK    5  A    between atoms: C_6  and  N_11
REMARK    6  A    between atoms: C_17  and  C_19
REMARK    7  A    between atoms: C_26  and  N_27
REMARK    8  A    between atoms: N_27  and  S_28
REMARK    9  A    between atoms: S_28  and  C_29
REMARK                            x       y       z     vdW  Elec       q    Type
REMARK                         _______ _______ _______ _____ _____    ______ ____
ROOT
ATOM      1  N   UNL     1      -7.566  -0.868 126.813  0.00  0.00    +0.000 N 
ATOM      2  C   UNL     1      -7.769  -1.677 128.019  0.00  0.00    +0.000 C 
ATOM      3  C   UNL     1      -7.136  -0.913 129.218  0.00  0.00    +0.000 C 
ATOM      4  N   UNL     1      -7.658   0.478 129.304  0.00  0.00    +0.000 N 
ATOM      5  C   UNL     1      -7.473   1.238 128.061  0.00  0.00    +0.000 C 
ATOM      6  C   UNL     1      -8.103   0.490 126.867  0.00  0.00    +0.000 C 
ATOM      7  C   UNL     1      -8.172   0.980 130.502  0.00  0.00    +0.000 C 
ATOM      8  O   UNL     1      -8.207   0.283 131.514  0.00  0.00    +0.000 OA
ENDROOT
BRANCH   7   9
ATOM      9  C   UNL     1      -8.658   2.356 130.532  0.00  0.00    +0.000 A 
ATOM     10  C   UNL     1      -9.919   2.838 130.202  0.00  0.00    +0.000 A 
ATOM     11  C   UNL     1      -9.949   4.253 130.395  0.00  0.00    +0.000 A 
ATOM     12  C   UNL     1      -8.661   4.615 130.778  0.00  0.00    +0.000 A 
ATOM     13  N   UNL     1      -7.890   3.473 130.792  0.00  0.00    +0.000 N 
ATOM     14  C   UNL     1      -8.313   5.934 131.060  0.00  0.00    +0.000 A 
ATOM     15  C   UNL     1      -9.314   6.902 130.963  0.00  0.00    +0.000 A 
ATOM     16  C   UNL     1     -10.626   6.599 130.603  0.00  0.00    +0.000 A 
ATOM     17  C   UNL     1     -10.947   5.261 130.300  0.00  0.00    +0.000 A 
ATOM     18  H   UNL     1      -6.900   3.459 130.990  0.00  0.00    +0.000 HD
BRANCH  16  19
ATOM     19  N   UNL     1     -11.679   7.571 130.692  0.00  0.00    +0.000 N 
ATOM     20  H   UNL     1     -12.217   7.644 131.556  0.00  0.00    +0.000 HD
BRANCH  19  21
ATOM     21  S   UNL     1     -12.450   8.240 129.355  0.00  0.00    +0.000 S 
ATOM     22  C   UNL     1     -11.106   8.466 128.192  0.00  0.00    +0.000 C 
ATOM     23  O   UNL     1     -13.395   7.299 128.812  0.00  0.00    +0.000 OA
ATOM     24  O   UNL     1     -12.883   9.567 129.766  0.00  0.00    +0.000 OA
ENDBRANCH  19  21
ENDBRANCH  16  19
ENDBRANCH   7   9
BRANCH   1  26
ATOM     25  C   UNL     1      -7.737  -1.347 124.427  0.00  0.00    +0.000 A 
ATOM     26  C   UNL     1      -7.022  -1.398 125.657  0.00  0.00    +0.000 A 
ATOM     27  N   UNL     1      -5.774  -1.939 125.720  0.00  0.00    +0.000 NA
ATOM     28  C   UNL     1      -5.248  -2.491 124.593  0.00  0.00    +0.000 A 
ATOM     29  C   UNL     1      -5.877  -2.508 123.372  0.00  0.00    +0.000 A 
ATOM     30  C   UNL     1      -7.113  -1.898 123.301  0.00  0.00    +0.000 A 
BRANCH  25  31
ATOM     31  N   UNL     1      -8.980  -0.713 124.281  0.00  0.00    +0.000 N 
ATOM     32  H   UNL     1      -9.759  -1.332 124.468  0.00  0.00    +0.000 HD
BRANCH  31  34
ATOM     33  C   UNL     1     -10.144  -0.035 122.238  0.00  0.00    +0.000 C 
ATOM     34  C   UNL     1      -9.191   0.405 123.354  0.00  0.00    +0.000 C 
ATOM     35  C   UNL     1      -9.845   1.589 124.060  0.00  0.00    +0.000 C 
ENDBRANCH  31  34
ENDBRANCH  25  31
ENDBRANCH   1  26
TORSDOF 6
ENDMDL
MODEL 4
REMARK VINA RESULT:      -7.7     10.915     13.884
REMARK  Name = Delavirdine
REMARK  9 active torsions:
REMARK  status: ('A' for Active; 'I' for Inactive)
REMARK    1  A    between atoms: C_1  and  C_2
REMARK    2  A    between atoms: C_2  and  C_3
REMARK    3  A    between atoms: C_2  and  N_4
REMARK    4  A    between atoms: N_4  and  C_5
REMARK    5  A    between atoms: C_6  and  N_11
REMARK    6  A    between atoms: C_17  and  C_19
REMARK    7  A    between atoms: C_26  and  N_27
REMARK    8  A    between atoms: N_27  and  S_28
REMARK    9  A    between atoms: S_28  and  C_29
REMARK                            x       y       z     vdW  Elec       q    Type
REMARK                         _______ _______ _______ _____ _____    ______ ____
ROOT
ATOM      1  N   UNL     1      -8.356  -0.009 126.109  0.00  0.00    +0.000 N 
ATOM      2  C   UNL     1      -9.408  -1.023 125.994  0.00  0.00    +0.000 C 
ATOM      3  C   UNL     1      -8.762  -2.414 126.258  0.00  0.00    +0.000 C 
ATOM      4  N   UNL     1      -8.020  -2.425 127.549  0.00  0.00    +0.000 N 
ATOM      5  C   UNL     1      -7.006  -1.367 127.638  0.00  0.00    +0.000 C 
ATOM      6  C   UNL     1      -7.641   0.017 127.383  0.00  0.00    +0.000 C 
ATOM      7  C   UNL     1      -8.247  -3.425 128.498  0.00  0.00    +0.000 C 
ATOM      8  O   UNL     1      -9.065  -4.319 128.290  0.00  0.00    +0.000 OA
ENDROOT
BRANCH   7   9
ATOM      9  C   UNL     1      -7.481  -3.395 129.741  0.00  0.00    +0.000 A 
ATOM     10  C   UNL     1      -6.371  -4.153 130.094  0.00  0.00    +0.000 A 
ATOM     11  C   UNL     1      -5.941  -3.778 131.403  0.00  0.00    +0.000 A 
ATOM     12  C   UNL     1      -6.857  -2.832 131.852  0.00  0.00    +0.000 A 
ATOM     13  N   UNL     1      -7.806  -2.665 130.866  0.00  0.00    +0.000 N 
ATOM     14  C   UNL     1      -6.752  -2.231 133.104  0.00  0.00    +0.000 A 
ATOM     15  C   UNL     1      -5.670  -2.597 133.908  0.00  0.00    +0.000 A 
ATOM     16  C   UNL     1      -4.711  -3.524 133.507  0.00  0.00    +0.000 A 
ATOM     17  C   UNL     1      -4.853  -4.135 132.246  0.00  0.00    +0.000 A 
ATOM     18  H   UNL     1      -8.615  -2.068 130.953  0.00  0.00    +0.000 HD
BRANCH  16  19
ATOM     19  N   UNL     1      -3.509  -3.745 134.263  0.00  0.00    +0.000 N 
ATOM     20  H   UNL     1      -3.543  -4.345 135.087  0.00  0.00    +0.000 HD
BRANCH  19  21
ATOM     21  S   UNL     1      -2.181  -2.713 134.229  0.00  0.00    +0.000 S 
ATOM     22  C   UNL     1      -2.477  -1.634 135.629  0.00  0.00    +0.000 C 
ATOM     23  O   UNL     1      -0.972  -3.463 134.454  0.00  0.00    +0.000 OA
ATOM     24  O   UNL     1      -2.334  -1.903 133.030  0.00  0.00    +0.000 OA
ENDBRANCH  19  21
ENDBRANCH  16  19
ENDBRANCH   7   9
BRANCH   1  26
ATOM     25  C   UNL     1      -7.181   0.730 124.102  0.00  0.00    +0.000 A 
ATOM     26  C   UNL     1      -8.145   0.943 125.128  0.00  0.00    +0.000 A 
ATOM     27  N   UNL     1      -8.904   2.074 125.152  0.00  0.00    +0.000 NA
ATOM     28  C   UNL     1      -8.676   3.029 124.210  0.00  0.00    +0.000 A 
ATOM     29  C   UNL     1      -7.751   2.916 123.200  0.00  0.00    +0.000 A 
ATOM     30  C   UNL     1      -7.034   1.739 123.143  0.00  0.00    +0.000 A 
BRANCH  25  31
ATOM     31  N   UNL     1      -6.444  -0.457 123.969  0.00  0.00    +0.000 N 
ATOM     32  H   UNL     1      -5.547  -0.414 124.435  0.00  0.00    +0.000 HD
BRANCH  31  34
ATOM     33  C   UNL     1      -5.659  -2.556 122.985  0.00  0.00    +0.000 C 
ATOM     34  C   UNL     1      -6.578  -1.342 122.807  0.00  0.00    +0.000 C 
ATOM     35  C   UNL     1      -8.003  -1.874 122.680  0.00  0.00    +0.000 C 
ENDBRANCH  31  34
ENDBRANCH  25  31
ENDBRANCH   1  26
TORSDOF 6
ENDMDL
MODEL 5
REMARK VINA RESULT:      -7.7      8.169     10.821
REMARK  Name = Delavirdine
REMARK  9 active torsions:
REMARK  status: ('A' for Active; 'I' for Inactive)
REMARK    1  A    between atoms: C_1  and  C_2
REMARK    2  A    between atoms: C_2  and  C_3
REMARK    3  A    between atoms: C_2  and  N_4
REMARK    4  A    between atoms: N_4  and  C_5
REMARK    5  A    between atoms: C_6  and  N_11
REMARK    6  A    between atoms: C_17  and  C_19
REMARK    7  A    between atoms: C_26  and  N_27
REMARK    8  A    between atoms: N_27  and  S_28
REMARK    9  A    between atoms: S_28  and  C_29
REMARK                            x       y       z     vdW  Elec       q    Type
REMARK                         _______ _______ _______ _____ _____    ______ ____
ROOT
ATOM      1  N   UNL     1      -7.600  -0.996 127.719  0.00  0.00    +0.000 N 
ATOM      2  C   UNL     1      -7.725  -1.805 128.934  0.00  0.00    +0.000 C 
ATOM      3  C   UNL     1      -7.184  -0.963 130.127  0.00  0.00    +0.000 C 
ATOM      4  N   UNL     1      -7.850   0.367 130.189  0.00  0.00    +0.000 N 
ATOM      5  C   UNL     1      -7.736   1.125 128.936  0.00  0.00    +0.000 C 
ATOM      6  C   UNL     1      -8.276   0.299 127.750  0.00  0.00    +0.000 C 
ATOM      7  C   UNL     1      -8.422   0.828 131.377  0.00  0.00    +0.000 C 
ATOM      8  O   UNL     1      -8.391   0.145 132.399  0.00  0.00    +0.000 OA
ENDROOT
BRANCH   7   9
ATOM      9  C   UNL     1      -9.049   2.146 131.385  0.00  0.00    +0.000 A 
ATOM     10  C   UNL     1      -9.996   2.661 130.507  0.00  0.00    +0.000 A 
ATOM     11  C   UNL     1     -10.337   3.990 130.906  0.00  0.00    +0.000 A 
ATOM     12  C   UNL     1      -9.523   4.283 131.996  0.00  0.00    +0.000 A 
ATOM     13  N   UNL     1      -8.717   3.189 132.225  0.00  0.00    +0.000 N 
ATOM     14  C   UNL     1      -9.581   5.507 132.659  0.00  0.00    +0.000 A 
ATOM     15  C   UNL     1     -10.509   6.446 132.203  0.00  0.00    +0.000 A 
ATOM     16  C   UNL     1     -11.363   6.203 131.129  0.00  0.00    +0.000 A 
ATOM     17  C   UNL     1     -11.268   4.967 130.461  0.00  0.00    +0.000 A 
ATOM     18  H   UNL     1      -7.996   3.153 132.932  0.00  0.00    +0.000 HD
BRANCH  16  19
ATOM     19  N   UNL     1     -12.434   7.101 130.797  0.00  0.00    +0.000 N 
ATOM     20  H   UNL     1     -13.387   6.863 131.073  0.00  0.00    +0.000 HD
BRANCH  19  21
ATOM     21  S   UNL     1     -12.351   8.238 129.561  0.00  0.00    +0.000 S 
ATOM     22  C   UNL     1     -13.388   7.522 128.288  0.00  0.00    +0.000 C 
ATOM     23  O   UNL     1     -12.927   9.483 129.999  0.00  0.00    +0.000 OA
ATOM     24  O   UNL     1     -10.982   8.193 129.067  0.00  0.00    +0.000 OA
ENDBRANCH  19  21
ENDBRANCH  16  19
ENDBRANCH   7   9
BRANCH   1  26
ATOM     25  C   UNL     1      -5.761  -0.938 126.116  0.00  0.00    +0.000 A 
ATOM     26  C   UNL     1      -6.995  -1.482 126.573  0.00  0.00    +0.000 A 
ATOM     27  N   UNL     1      -7.593  -2.512 125.915  0.00  0.00    +0.000 NA
ATOM     28  C   UNL     1      -7.019  -2.971 124.769  0.00  0.00    +0.000 A 
ATOM     29  C   UNL     1      -5.845  -2.488 124.243  0.00  0.00    +0.000 A 
ATOM     30  C   UNL     1      -5.210  -1.490 124.953  0.00  0.00    +0.000 A 
BRANCH  25  31
ATOM     31  N   UNL     1      -5.050   0.054 126.809  0.00  0.00    +0.000 N 
ATOM     32  H   UNL     1      -5.181   0.001 127.811  0.00  0.00    +0.000 HD
BRANCH  31  34
ATOM     33  C   UNL     1      -5.994   1.912 125.526  0.00  0.00    +0.000 C 
ATOM     34  C   UNL     1      -4.743   1.362 126.220  0.00  0.00    +0.000 C 
ATOM     35  C   UNL     1      -4.347   2.370 127.294  0.00  0.00    +0.000 C 
ENDBRANCH  31  34
ENDBRANCH  25  31
ENDBRANCH   1  26
TORSDOF 6
ENDMDL
MODEL 6
REMARK VINA RESULT:      -7.5      7.802     11.725
REMARK  Name = Delavirdine
REMARK  9 active torsions:
REMARK  status: ('A' for Active; 'I' for Inactive)
REMARK    1  A    between atoms: C_1  and  C_2
REMARK    2  A    between atoms: C_2  and  C_3
REMARK    3  A    between atoms: C_2  and  N_4
REMARK    4  A    between atoms: N_4  and  C_5
REMARK    5  A    between atoms: C_6  and  N_11
REMARK    6  A    between atoms: C_17  and  C_19
REMARK    7  A    between atoms: C_26  and  N_27
REMARK    8  A    between atoms: N_27  and  S_28
REMARK    9  A    between atoms: S_28  and  C_29
REMARK                            x       y       z     vdW  Elec       q    Type
REMARK                         _______ _______ _______ _____ _____    ______ ____
ROOT
ATOM      1  N   UNL     1      -7.357  -0.662 126.119  0.00  0.00    +0.000 N 
ATOM      2  C   UNL     1      -5.933  -0.622 126.464  0.00  0.00    +0.000 C 
ATOM      3  C   UNL     1      -5.494   0.871 126.508  0.00  0.00    +0.000 C 
ATOM      4  N   UNL     1      -6.378   1.663 127.406  0.00  0.00    +0.000 N 
ATOM      5  C   UNL     1      -7.799   1.560 127.051  0.00  0.00    +0.000 C 
ATOM      6  C   UNL     1      -8.243   0.082 127.011  0.00  0.00    +0.000 C 
ATOM      7  C   UNL     1      -5.841   2.477 128.407  0.00  0.00    +0.000 C 
ATOM      8  O   UNL     1      -4.625   2.557 128.569  0.00  0.00    +0.000 OA
ENDROOT
BRANCH   7   9
ATOM      9  C   UNL     1      -6.754   3.244 129.250  0.00  0.00    +0.000 A 
ATOM     10  C   UNL     1      -7.428   4.421 128.949  0.00  0.00    +0.000 A 
ATOM     11  C   UNL     1      -8.225   4.808 130.070  0.00  0.00    +0.000 A 
ATOM     12  C   UNL     1      -7.958   3.877 131.070  0.00  0.00    +0.000 A 
ATOM     13  N   UNL     1      -7.027   2.988 130.577  0.00  0.00    +0.000 N 
ATOM     14  C   UNL     1      -8.566   3.934 132.321  0.00  0.00    +0.000 A 
ATOM     15  C   UNL     1      -9.485   4.962 132.546  0.00  0.00    +0.000 A 
ATOM     16  C   UNL     1      -9.808   5.911 131.580  0.00  0.00    +0.000 A 
ATOM     17  C   UNL     1      -9.160   5.846 130.331  0.00  0.00    +0.000 A 
ATOM     18  H   UNL     1      -6.621   2.236 131.115  0.00  0.00    +0.000 HD
BRANCH  16  19
ATOM     19  N   UNL     1     -10.888   6.840 131.763  0.00  0.00    +0.000 N 
ATOM     20  H   UNL     1     -11.020   7.278 132.675  0.00  0.00    +0.000 HD
BRANCH  19  21
ATOM     21  S   UNL     1     -12.256   6.888 130.784  0.00  0.00    +0.000 S 
ATOM     22  C   UNL     1     -11.934   8.290 129.716  0.00  0.00    +0.000 C 
ATOM     23  O   UNL     1     -12.331   5.691 129.988  0.00  0.00    +0.000 OA
ATOM     24  O   UNL     1     -13.358   7.264 131.656  0.00  0.00    +0.000 OA
ENDBRANCH  19  21
ENDBRANCH  16  19
ENDBRANCH   7   9
BRANCH   1  26
ATOM     25  C   UNL     1      -8.193  -0.894 123.839  0.00  0.00    +0.000 A 
ATOM     26  C   UNL     1      -7.842  -1.459 125.098  0.00  0.00    +0.000 A 
ATOM     27  N   UNL     1      -7.945  -2.799 125.317  0.00  0.00    +0.000 NA
ATOM     28  C   UNL     1      -8.454  -3.582 124.328  0.00  0.00    +0.000 A 
ATOM     29  C   UNL     1      -8.840  -3.118 123.093  0.00  0.00    +0.000 A 
ATOM     30  C   UNL     1      -8.669  -1.769 122.855  0.00  0.00    +0.000 A 
BRANCH  25  31
ATOM     31  N   UNL     1      -8.013   0.461 123.523  0.00  0.00    +0.000 N 
ATOM     32  H   UNL     1      -7.260   0.888 124.048  0.00  0.00    +0.000 HD
BRANCH  31  34
ATOM     33  C   UNL     1     -10.184   1.391 124.165  0.00  0.00    +0.000 C 
ATOM     34  C   UNL     1      -9.114   1.319 123.071  0.00  0.00    +0.000 C 
ATOM     35  C   UNL     1      -8.633   2.745 122.820  0.00  0.00    +0.000 C 
ENDBRANCH  31  34
ENDBRANCH  25  31
ENDBRANCH   1  26
TORSDOF 6
ENDMDL
MODEL 7
REMARK VINA RESULT:      -7.4      8.017     11.106
REMARK  Name = Delavirdine
REMARK  9 active torsions:
REMARK  status: ('A' for Active; 'I' for Inactive)
REMARK    1  A    between atoms: C_1  and  C_2
REMARK    2  A    between atoms: C_2  and  C_3
REMARK    3  A    between atoms: C_2  and  N_4
REMARK    4  A    between atoms: N_4  and  C_5
REMARK    5  A    between atoms: C_6  and  N_11
REMARK    6  A    between atoms: C_17  and  C_19
REMARK    7  A    between atoms: C_26  and  N_27
REMARK    8  A    between atoms: N_27  and  S_28
REMARK    9  A    between atoms: S_28  and  C_29
REMARK                            x       y       z     vdW  Elec       q    Type
REMARK                         _______ _______ _______ _____ _____    ______ ____
ROOT
ATOM      1  N   UNL     1      -6.969  -0.170 126.586  0.00  0.00    +0.000 N 
ATOM      2  C   UNL     1      -6.022  -0.335 127.692  0.00  0.00    +0.000 C 
ATOM      3  C   UNL     1      -5.497   1.077 128.086  0.00  0.00    +0.000 C 
ATOM      4  N   UNL     1      -6.624   2.010 128.361  0.00  0.00    +0.000 N 
ATOM      5  C   UNL     1      -7.571   2.112 127.244  0.00  0.00    +0.000 C 
ATOM      6  C   UNL     1      -8.100   0.716 126.851  0.00  0.00    +0.000 C 
ATOM      7  C   UNL     1      -6.666   2.756 129.542  0.00  0.00    +0.000 C 
ATOM      8  O   UNL     1      -5.774   2.657 130.383  0.00  0.00    +0.000 OA
ENDROOT
BRANCH   7   9
ATOM      9  C   UNL     1      -7.787   3.666 129.754  0.00  0.00    +0.000 A 
ATOM     10  C   UNL     1      -7.822   5.048 129.601  0.00  0.00    +0.000 A 
ATOM     11  C   UNL     1      -9.136   5.522 129.903  0.00  0.00    +0.000 A 
ATOM     12  C   UNL     1      -9.863   4.407 130.308  0.00  0.00    +0.000 A 
ATOM     13  N   UNL     1      -9.018   3.319 130.271  0.00  0.00    +0.000 N 
ATOM     14  C   UNL     1     -11.202   4.488 130.681  0.00  0.00    +0.000 A 
ATOM     15  C   UNL     1     -11.815   5.742 130.620  0.00  0.00    +0.000 A 
ATOM     16  C   UNL     1     -11.145   6.890 130.206  0.00  0.00    +0.000 A 
ATOM     17  C   UNL     1      -9.785   6.786 129.857  0.00  0.00    +0.000 A 
ATOM     18  H   UNL     1      -9.279   2.388 130.563  0.00  0.00    +0.000 HD
BRANCH  16  19
ATOM     19  N   UNL     1     -11.838   8.127 129.970  0.00  0.00    +0.000 N 
ATOM     20  H   UNL     1     -12.208   8.650 130.763  0.00  0.00    +0.000 HD
BRANCH  19  21
ATOM     21  S   UNL     1     -12.545   8.535 128.499  0.00  0.00    +0.000 S 
ATOM     22  C   UNL     1     -13.590   7.121 128.152  0.00  0.00    +0.000 C 
ATOM     23  O   UNL     1     -13.368   9.706 128.659  0.00  0.00    +0.000 OA
ATOM     24  O   UNL     1     -11.470   8.518 127.520  0.00  0.00    +0.000 OA
ENDBRANCH  19  21
ENDBRANCH  16  19
ENDBRANCH   7   9
BRANCH   1  26
ATOM     25  C   UNL     1      -6.772  -0.258 124.156  0.00  0.00    +0.000 A 
ATOM     26  C   UNL     1      -6.870  -0.906 125.420  0.00  0.00    +0.000 A 
ATOM     27  N   UNL     1      -6.838  -2.264 125.514  0.00  0.00    +0.000 NA
ATOM     28  C   UNL     1      -6.775  -2.994 124.367  0.00  0.00    +0.000 A 
ATOM     29  C   UNL     1      -6.702  -2.451 123.107  0.00  0.00    +0.000 A 
ATOM     30  C   UNL     1      -6.667  -1.075 123.024  0.00  0.00    +0.000 A 
BRANCH  25  31
ATOM     31  N   UNL     1      -6.698   1.135 124.007  0.00  0.00    +0.000 N 
ATOM     32  H   UNL     1      -6.527   1.614 124.882  0.00  0.00    +0.000 HD
BRANCH  31  34
ATOM     33  C   UNL     1      -8.717   2.440 123.541  0.00  0.00    +0.000 C 
ATOM     34  C   UNL     1      -7.426   1.856 122.956  0.00  0.00    +0.000 C 
ATOM     35  C   UNL     1      -6.607   3.027 122.422  0.00  0.00    +0.000 C 
ENDBRANCH  31  34
ENDBRANCH  25  31
ENDBRANCH   1  26
TORSDOF 6
ENDMDL
MODEL 8
REMARK VINA RESULT:      -7.4     11.679     13.880
REMARK  Name = Delavirdine
REMARK  9 active torsions:
REMARK  status: ('A' for Active; 'I' for Inactive)
REMARK    1  A    between atoms: C_1  and  C_2
REMARK    2  A    between atoms: C_2  and  C_3
REMARK    3  A    between atoms: C_2  and  N_4
REMARK    4  A    between atoms: N_4  and  C_5
REMARK    5  A    between atoms: C_6  and  N_11
REMARK    6  A    between atoms: C_17  and  C_19
REMARK    7  A    between atoms: C_26  and  N_27
REMARK    8  A    between atoms: N_27  and  S_28
REMARK    9  A    between atoms: S_28  and  C_29
REMARK                            x       y       z     vdW  Elec       q    Type
REMARK                         _______ _______ _______ _____ _____    ______ ____
ROOT
ATOM      1  N   UNL     1      -8.385  -0.002 126.072  0.00  0.00    +0.000 N 
ATOM      2  C   UNL     1      -9.458  -0.994 125.950  0.00  0.00    +0.000 C 
ATOM      3  C   UNL     1      -8.843  -2.399 126.217  0.00  0.00    +0.000 C 
ATOM      4  N   UNL     1      -8.110  -2.426 127.512  0.00  0.00    +0.000 N 
ATOM      5  C   UNL     1      -7.074  -1.390 127.608  0.00  0.00    +0.000 C 
ATOM      6  C   UNL     1      -7.678   0.008 127.350  0.00  0.00    +0.000 C 
ATOM      7  C   UNL     1      -8.363  -3.422 128.459  0.00  0.00    +0.000 C 
ATOM      8  O   UNL     1      -9.199  -4.298 128.245  0.00  0.00    +0.000 OA
ENDROOT
BRANCH   7   9
ATOM      9  C   UNL     1      -7.605  -3.409 129.706  0.00  0.00    +0.000 A 
ATOM     10  C   UNL     1      -7.766  -2.577 130.809  0.00  0.00    +0.000 A 
ATOM     11  C   UNL     1      -6.810  -2.932 131.810  0.00  0.00    +0.000 A 
ATOM     12  C   UNL     1      -6.031  -3.943 131.255  0.00  0.00    +0.000 A 
ATOM     13  N   UNL     1      -6.485  -4.168 129.973  0.00  0.00    +0.000 N 
ATOM     14  C   UNL     1      -4.987  -4.545 131.954  0.00  0.00    +0.000 A 
ATOM     15  C   UNL     1      -4.748  -4.112 133.260  0.00  0.00    +0.000 A 
ATOM     16  C   UNL     1      -5.505  -3.118 133.875  0.00  0.00    +0.000 A 
ATOM     17  C   UNL     1      -6.539  -2.508 133.139  0.00  0.00    +0.000 A 
ATOM     18  H   UNL     1      -6.063  -4.820 129.329  0.00  0.00    +0.000 HD
BRANCH  16  19
ATOM     19  N   UNL     1      -5.369  -2.820 135.274  0.00  0.00    +0.000 N 
ATOM     20  H   UNL     1      -4.443  -2.619 135.653  0.00  0.00    +0.000 HD
BRANCH  19  21
ATOM     21  S   UNL     1      -6.494  -3.271 136.440  0.00  0.00    +0.000 S 
ATOM     22  C   UNL     1      -7.179  -4.785 135.769  0.00  0.00    +0.000 C 
ATOM     23  O   UNL     1      -5.825  -3.561 137.682  0.00  0.00    +0.000 OA
ATOM     24  O   UNL     1      -7.549  -2.269 136.386  0.00  0.00    +0.000 OA
ENDBRANCH  19  21
ENDBRANCH  16  19
ENDBRANCH   7   9
BRANCH   1  26
ATOM     25  C   UNL     1      -7.169   0.721 124.085  0.00  0.00    +0.000 A 
ATOM     26  C   UNL     1      -8.148   0.946 125.093  0.00  0.00    +0.000 A 
ATOM     27  N   UNL     1      -8.895   2.084 125.103  0.00  0.00    +0.000 NA
ATOM     28  C   UNL     1      -8.642   3.035 124.163  0.00  0.00    +0.000 A 
ATOM     29  C   UNL     1      -7.701   2.911 123.169  0.00  0.00    +0.000 A 
ATOM     30  C   UNL     1      -6.995   1.727 123.126  0.00  0.00    +0.000 A 
BRANCH  25  31
ATOM     31  N   UNL     1      -6.443  -0.474 123.966  0.00  0.00    +0.000 N 
ATOM     32  H   UNL     1      -5.552  -0.439 124.446  0.00  0.00    +0.000 HD
BRANCH  31  34
ATOM     33  C   UNL     1      -5.654  -2.577 122.992  0.00  0.00    +0.000 C 
ATOM     34  C   UNL     1      -6.567  -1.361 122.803  0.00  0.00    +0.000 C 
ATOM     35  C   UNL     1      -7.992  -1.887 122.663  0.00  0.00    +0.000 C 
ENDBRANCH  31  34
ENDBRANCH  25  31
ENDBRANCH   1  26
TORSDOF 6
ENDMDL
MODEL 9
REMARK VINA RESULT:      -7.3      6.958      9.995
REMARK  Name = Delavirdine
REMARK  9 active torsions:
REMARK  status: ('A' for Active; 'I' for Inactive)
REMARK    1  A    between atoms: C_1  and  C_2
REMARK    2  A    between atoms: C_2  and  C_3
REMARK    3  A    between atoms: C_2  and  N_4
REMARK    4  A    between atoms: N_4  and  C_5
REMARK    5  A    between atoms: C_6  and  N_11
REMARK    6  A    between atoms: C_17  and  C_19
REMARK    7  A    between atoms: C_26  and  N_27
REMARK    8  A    between atoms: N_27  and  S_28
REMARK    9  A    between atoms: S_28  and  C_29
REMARK                            x       y       z     vdW  Elec       q    Type
REMARK                         _______ _______ _______ _____ _____    ______ ____
ROOT
ATOM      1  N   UNL     1      -5.598  -0.740 131.695  0.00  0.00    +0.000 N 
ATOM      2  C   UNL     1      -4.394   0.028 132.025  0.00  0.00    +0.000 C 
ATOM      3  C   UNL     1      -4.278   1.196 131.002  0.00  0.00    +0.000 C 
ATOM      4  N   UNL     1      -5.534   1.992 130.951  0.00  0.00    +0.000 N 
ATOM      5  C   UNL     1      -6.720   1.176 130.660  0.00  0.00    +0.000 C 
ATOM      6  C   UNL     1      -6.846   0.019 131.675  0.00  0.00    +0.000 C 
ATOM      7  C   UNL     1      -5.508   3.383 131.079  0.00  0.00    +0.000 C 
ATOM      8  O   UNL     1      -4.446   3.982 131.239  0.00  0.00    +0.000 OA
ENDROOT
BRANCH   7   9
ATOM      9  C   UNL     1      -6.769   4.115 131.008  0.00  0.00    +0.000 A 
ATOM     10  C   UNL     1      -7.458   4.546 129.880  0.00  0.00    +0.000 A 
ATOM     11  C   UNL     1      -8.655   5.212 130.285  0.00  0.00    +0.000 A 
ATOM     12  C   UNL     1      -8.632   5.232 131.676  0.00  0.00    +0.000 A 
ATOM     13  N   UNL     1      -7.463   4.626 132.085  0.00  0.00    +0.000 N 
ATOM     14  C   UNL     1      -9.654   5.804 132.429  0.00  0.00    +0.000 A 
ATOM     15  C   UNL     1     -10.736   6.354 131.738  0.00  0.00    +0.000 A 
ATOM     16  C   UNL     1     -10.825   6.348 130.347  0.00  0.00    +0.000 A 
ATOM     17  C   UNL     1      -9.767   5.784 129.609  0.00  0.00    +0.000 A 
ATOM     18  H   UNL     1      -7.171   4.549 133.049  0.00  0.00    +0.000 HD
BRANCH  16  19
ATOM     19  N   UNL     1     -12.025   6.744 129.665  0.00  0.00    +0.000 N 
ATOM     20  H   UNL     1     -12.594   6.034 129.202  0.00  0.00    +0.000 HD
BRANCH  19  21
ATOM     21  S   UNL     1     -12.314   8.307 129.113  0.00  0.00    +0.000 S 
ATOM     22  C   UNL     1     -13.632   8.074 127.923  0.00  0.00    +0.000 C 
ATOM     23  O   UNL     1     -12.790   9.129 130.196  0.00  0.00    +0.000 OA
ATOM     24  O   UNL     1     -11.128   8.691 128.362  0.00  0.00    +0.000 OA
ENDBRANCH  19  21
ENDBRANCH  16  19
ENDBRANCH   7   9
BRANCH   1  26
ATOM     25  C   UNL     1      -5.389  -2.703 130.261  0.00  0.00    +0.000 A 
ATOM     26  C   UNL     1      -5.572  -2.115 131.544  0.00  0.00    +0.000 A 
ATOM     27  N   UNL     1      -5.695  -2.889 132.658  0.00  0.00    +0.000 NA
ATOM     28  C   UNL     1      -5.704  -4.242 132.511  0.00  0.00    +0.000 A 
ATOM     29  C   UNL     1      -5.558  -4.891 131.309  0.00  0.00    +0.000 A 
ATOM     30  C   UNL     1      -5.366  -4.101 130.195  0.00  0.00    +0.000 A 
BRANCH  25  31
ATOM     31  N   UNL     1      -5.155  -1.956 129.096  0.00  0.00    +0.000 N 
ATOM     32  H   UNL     1      -4.692  -1.076 129.281  0.00  0.00    +0.000 HD
BRANCH  31  34
ATOM     33  C   UNL     1      -7.456  -1.677 128.308  0.00  0.00    +0.000 C 
ATOM     34  C   UNL     1      -6.022  -2.046 127.915  0.00  0.00    +0.000 C 
ATOM     35  C   UNL     1      -5.585  -1.060 126.835  0.00  0.00    +0.000 C 
ENDBRANCH  31  34
ENDBRANCH  25  31
ENDBRANCH   1  26
TORSDOF 6
ENDMDL
