MODEL 1
REMARK VINA RESULT:      -8.5      0.000      0.000
REMARK  Name = Delamanid
REMARK  10 active torsions:
REMARK  status: ('A' for Active; 'I' for Inactive)
REMARK    1  A    between atoms: C_1  and  C_2
REMARK    2  A    between atoms: C_2  and  C_3
REMARK    3  A    between atoms: C_3  and  O_4
REMARK    4  A    between atoms: O_4  and  C_5
REMARK    5  A    between atoms: C_8  and  N_11
REMARK    6  A    between atoms: C_14  and  O_17
REMARK    7  A    between atoms: O_17  and  C_18
REMARK    8  A    between atoms: C_21  and  O_22
REMARK    9  A    between atoms: O_22  and  C_23
REMARK   10  A    between atoms: C_32  and  N_36
REMARK                            x       y       z     vdW  Elec       q    Type
REMARK                         _______ _______ _______ _____ _____    ______ ____
ROOT
ATOM      1  C   UNL     1      -5.410   3.324 126.004  0.00  0.00    +0.000 A 
ATOM      2  C   UNL     1      -6.235   3.550 127.101  0.00  0.00    +0.000 A 
ATOM      3  C   UNL     1      -5.765   4.272 128.208  0.00  0.00    +0.000 A 
ATOM      4  C   UNL     1      -4.449   4.749 128.276  0.00  0.00    +0.000 A 
ATOM      5  C   UNL     1      -3.639   4.525 127.158  0.00  0.00    +0.000 A 
ATOM      6  C   UNL     1      -4.106   3.812 126.035  0.00  0.00    +0.000 A 
ENDROOT
BRANCH   4   7
ATOM      7  N   UNL     1      -3.980   5.364 129.415  0.00  0.00    +0.000 N 
ATOM      8  C   UNL     1      -3.319   6.658 129.336  0.00  0.00    +0.000 C 
ATOM      9  C   UNL     1      -1.898   6.493 129.874  0.00  0.00    +0.000 C 
ATOM     10  C   UNL     1      -1.929   6.034 131.341  0.00  0.00    +0.000 C 
ATOM     11  C   UNL     1      -2.725   4.702 131.396  0.00  0.00    +0.000 C 
ATOM     12  C   UNL     1      -4.128   4.828 130.766  0.00  0.00    +0.000 C 
BRANCH  10  13
ATOM     13  O   UNL     1      -2.541   6.943 132.287  0.00  0.00    +0.000 OA
BRANCH  13  14
ATOM     14  C   UNL     1      -1.810   8.002 132.758  0.00  0.00    +0.000 A 
ATOM     15  C   UNL     1      -2.377   9.275 132.725  0.00  0.00    +0.000 A 
ATOM     16  C   UNL     1      -1.583  10.413 132.975  0.00  0.00    +0.000 A 
ATOM     17  C   UNL     1      -0.241  10.284 133.351  0.00  0.00    +0.000 A 
ATOM     18  C   UNL     1       0.315   9.015 133.380  0.00  0.00    +0.000 A 
ATOM     19  C   UNL     1      -0.452   7.905 133.038  0.00  0.00    +0.000 A 
BRANCH  17  20
ATOM     20  O   UNL     1       0.434  11.435 133.646  0.00  0.00    +0.000 OA
BRANCH  20  21
ATOM     21  C   UNL     1       1.203  12.006 132.591  0.00  0.00    +0.000 C 
ATOM     22  F   UNL     1       0.455  12.197 131.481  0.00  0.00    +0.000 F 
ATOM     23  F   UNL     1       1.746  13.185 132.970  0.00  0.00    +0.000 F 
ATOM     24  F   UNL     1       2.212  11.167 132.271  0.00  0.00    +0.000 F 
ENDBRANCH  20  21
ENDBRANCH  17  20
ENDBRANCH  13  14
ENDBRANCH  10  13
ENDBRANCH   4   7
BRANCH   1  25
ATOM     25  O   UNL     1      -6.008   2.726 124.927  0.00  0.00    +0.000 OA
BRANCH  25  26
ATOM     26  C   UNL     1      -7.177   3.364 124.409  0.00  0.00    +0.000 C 
BRANCH  26  28
ATOM     27  C   UNL     1      -8.211   3.305 122.147  0.00  0.00    +0.000 C 
ATOM     28  C   UNL     1      -7.884   2.446 123.379  0.00  0.00    +0.000 C 
ATOM     29  C   UNL     1      -6.964   1.267 122.977  0.00  0.00    +0.000 C 
ATOM     30  N   UNL     1      -7.744   0.143 123.404  0.00  0.00    +0.000 N 
ATOM     31  C   UNL     1      -7.618  -1.188 123.409  0.00  0.00    +0.000 A 
ATOM     32  C   UNL     1      -8.813  -1.610 123.981  0.00  0.00    +0.000 A 
ATOM     33  N   UNL     1      -9.647  -0.515 124.294  0.00  0.00    +0.000 NA
ATOM     34  C   UNL     1      -8.927   0.519 123.922  0.00  0.00    +0.000 A 
ATOM     35  O   UNL     1      -9.120   1.840 123.932  0.00  0.00    +0.000 OA
BRANCH  32  36
ATOM     36  N   UNL     1      -9.172  -2.999 124.221  0.00  0.00    +0.000 N 
ATOM     37  O   UNL     1      -8.728  -3.500 125.275  0.00  0.00    +0.000 OA
ATOM     38  O   UNL     1      -9.870  -3.586 123.394  0.00  0.00    +0.000 OA
ENDBRANCH  32  36
ENDBRANCH  26  28
ENDBRANCH  25  26
ENDBRANCH   1  25
TORSDOF 9
ENDMDL
MODEL 2
REMARK VINA RESULT:      -8.4      6.217     13.827
REMARK  Name = Delamanid
REMARK  10 active torsions:
REMARK  status: ('A' for Active; 'I' for Inactive)
REMARK    1  A    between atoms: C_1  and  C_2
REMARK    2  A    between atoms: C_2  and  C_3
REMARK    3  A    between atoms: C_3  and  O_4
REMARK    4  A    between atoms: O_4  and  C_5
REMARK    5  A    between atoms: C_8  and  N_11
REMARK    6  A    between atoms: C_14  and  O_17
REMARK    7  A    between atoms: O_17  and  C_18
REMARK    8  A    between atoms: C_21  and  O_22
REMARK    9  A    between atoms: O_22  and  C_23
REMARK   10  A    between atoms: C_32  and  N_36
REMARK                            x       y       z     vdW  Elec       q    Type
REMARK                         _______ _______ _______ _____ _____    ______ ____
ROOT
ATOM      1  C   UNL     1      -1.920   6.204 130.354  0.00  0.00    +0.000 A 
ATOM      2  C   UNL     1      -2.756   5.185 130.799  0.00  0.00    +0.000 A 
ATOM      3  C   UNL     1      -3.623   4.535 129.908  0.00  0.00    +0.000 A 
ATOM      4  C   UNL     1      -3.717   4.909 128.561  0.00  0.00    +0.000 A 
ATOM      5  C   UNL     1      -2.857   5.924 128.128  0.00  0.00    +0.000 A 
ATOM      6  C   UNL     1      -1.974   6.575 129.012  0.00  0.00    +0.000 A 
ENDROOT
BRANCH   4   7
ATOM      7  N   UNL     1      -4.648   4.328 127.730  0.00  0.00    +0.000 N 
ATOM      8  C   UNL     1      -5.259   3.055 128.084  0.00  0.00    +0.000 C 
ATOM      9  C   UNL     1      -4.916   2.048 126.986  0.00  0.00    +0.000 C 
ATOM     10  C   UNL     1      -5.477   2.516 125.634  0.00  0.00    +0.000 C 
ATOM     11  C   UNL     1      -4.878   3.918 125.340  0.00  0.00    +0.000 C 
ATOM     12  C   UNL     1      -5.132   4.920 126.485  0.00  0.00    +0.000 C 
BRANCH  10  13
ATOM     13  O   UNL     1      -6.917   2.634 125.541  0.00  0.00    +0.000 OA
BRANCH  13  14
ATOM     14  C   UNL     1      -7.624   1.652 124.897  0.00  0.00    +0.000 A 
ATOM     15  C   UNL     1      -8.799   1.180 125.480  0.00  0.00    +0.000 A 
ATOM     16  C   UNL     1      -9.423   0.020 124.980  0.00  0.00    +0.000 A 
ATOM     17  C   UNL     1      -8.934  -0.624 123.838  0.00  0.00    +0.000 A 
ATOM     18  C   UNL     1      -7.764  -0.150 123.266  0.00  0.00    +0.000 A 
ATOM     19  C   UNL     1      -7.101   0.939 123.824  0.00  0.00    +0.000 A 
BRANCH  17  20
ATOM     20  O   UNL     1      -9.642  -1.698 123.379  0.00  0.00    +0.000 OA
BRANCH  20  21
ATOM     21  C   UNL     1      -9.299  -2.967 123.930  0.00  0.00    +0.000 C 
ATOM     22  F   UNL     1      -9.487  -2.992 125.269  0.00  0.00    +0.000 F 
ATOM     23  F   UNL     1     -10.024  -3.956 123.361  0.00  0.00    +0.000 F 
ATOM     24  F   UNL     1      -7.994  -3.218 123.691  0.00  0.00    +0.000 F 
ENDBRANCH  20  21
ENDBRANCH  17  20
ENDBRANCH  13  14
ENDBRANCH  10  13
ENDBRANCH   4   7
BRANCH   1  25
ATOM     25  O   UNL     1      -1.024   6.678 131.274  0.00  0.00    +0.000 OA
BRANCH  25  26
ATOM     26  C   UNL     1      -1.093   6.112 132.584  0.00  0.00    +0.000 C 
BRANCH  26  28
ATOM     27  C   UNL     1      -1.774   6.565 134.933  0.00  0.00    +0.000 C 
ATOM     28  C   UNL     1      -1.250   7.227 133.649  0.00  0.00    +0.000 C 
ATOM     29  C   UNL     1       0.109   7.917 133.921  0.00  0.00    +0.000 C 
ATOM     30  N   UNL     1      -0.179   9.268 133.537  0.00  0.00    +0.000 N 
ATOM     31  C   UNL     1       0.481  10.429 133.478  0.00  0.00    +0.000 A 
ATOM     32  C   UNL     1      -0.486  11.312 133.013  0.00  0.00    +0.000 A 
ATOM     33  N   UNL     1      -1.724  10.662 132.818  0.00  0.00    +0.000 NA
ATOM     34  C   UNL     1      -1.459   9.419 133.150  0.00  0.00    +0.000 A 
ATOM     35  O   UNL     1      -2.178   8.295 133.201  0.00  0.00    +0.000 OA
BRANCH  32  36
ATOM     36  N   UNL     1      -0.265  12.729 132.766  0.00  0.00    +0.000 N 
ATOM     37  O   UNL     1      -0.461  13.112 131.593  0.00  0.00    +0.000 OA
ATOM     38  O   UNL     1       0.095  13.448 133.697  0.00  0.00    +0.000 OA
ENDBRANCH  32  36
ENDBRANCH  26  28
ENDBRANCH  25  26
ENDBRANCH   1  25
TORSDOF 9
ENDMDL
MODEL 3
REMARK VINA RESULT:      -8.3      0.637      1.449
REMARK  Name = Delamanid
REMARK  10 active torsions:
REMARK  status: ('A' for Active; 'I' for Inactive)
REMARK    1  A    between atoms: C_1  and  C_2
REMARK    2  A    between atoms: C_2  and  C_3
REMARK    3  A    between atoms: C_3  and  O_4
REMARK    4  A    between atoms: O_4  and  C_5
REMARK    5  A    between atoms: C_8  and  N_11
REMARK    6  A    between atoms: C_14  and  O_17
REMARK    7  A    between atoms: O_17  and  C_18
REMARK    8  A    between atoms: C_21  and  O_22
REMARK    9  A    between atoms: O_22  and  C_23
REMARK   10  A    between atoms: C_32  and  N_36
REMARK                            x       y       z     vdW  Elec       q    Type
REMARK                         _______ _______ _______ _____ _____    ______ ____
ROOT
ATOM      1  C   UNL     1      -5.754   3.658 126.227  0.00  0.00    +0.000 A 
ATOM      2  C   UNL     1      -4.407   4.006 126.265  0.00  0.00    +0.000 A 
ATOM      3  C   UNL     1      -3.836   4.512 127.442  0.00  0.00    +0.000 A 
ATOM      4  C   UNL     1      -4.596   4.729 128.600  0.00  0.00    +0.000 A 
ATOM      5  C   UNL     1      -5.943   4.359 128.548  0.00  0.00    +0.000 A 
ATOM      6  C   UNL     1      -6.524   3.838 127.374  0.00  0.00    +0.000 A 
ENDROOT
BRANCH   4   7
ATOM      7  N   UNL     1      -4.037   5.323 129.710  0.00  0.00    +0.000 N 
ATOM      8  C   UNL     1      -3.290   6.566 129.584  0.00  0.00    +0.000 C 
ATOM      9  C   UNL     1      -1.863   6.307 130.066  0.00  0.00    +0.000 C 
ATOM     10  C   UNL     1      -1.865   5.869 131.539  0.00  0.00    +0.000 C 
ATOM     11  C   UNL     1      -2.751   4.598 131.647  0.00  0.00    +0.000 C 
ATOM     12  C   UNL     1      -4.166   4.816 131.073  0.00  0.00    +0.000 C 
BRANCH  10  13
ATOM     13  O   UNL     1      -2.371   6.831 132.496  0.00  0.00    +0.000 OA
BRANCH  13  14
ATOM     14  C   UNL     1      -1.713   8.022 132.651  0.00  0.00    +0.000 A 
ATOM     15  C   UNL     1      -0.374   8.003 133.037  0.00  0.00    +0.000 A 
ATOM     16  C   UNL     1       0.268   9.193 133.435  0.00  0.00    +0.000 A 
ATOM     17  C   UNL     1      -0.393  10.425 133.362  0.00  0.00    +0.000 A 
ATOM     18  C   UNL     1      -1.725  10.435 132.978  0.00  0.00    +0.000 A 
ATOM     19  C   UNL     1      -2.378   9.243 132.680  0.00  0.00    +0.000 A 
BRANCH  17  20
ATOM     20  O   UNL     1       0.327  11.536 133.697  0.00  0.00    +0.000 OA
BRANCH  20  21
ATOM     21  C   UNL     1       1.159  12.085 132.678  0.00  0.00    +0.000 C 
ATOM     22  F   UNL     1       2.301  11.375 132.536  0.00  0.00    +0.000 F 
ATOM     23  F   UNL     1       0.510  12.126 131.492  0.00  0.00    +0.000 F 
ATOM     24  F   UNL     1       1.497  13.349 133.011  0.00  0.00    +0.000 F 
ENDBRANCH  20  21
ENDBRANCH  17  20
ENDBRANCH  13  14
ENDBRANCH  10  13
ENDBRANCH   4   7
BRANCH   1  25
ATOM     25  O   UNL     1      -6.175   3.053 125.074  0.00  0.00    +0.000 OA
BRANCH  25  26
ATOM     26  C   UNL     1      -7.367   3.568 124.480  0.00  0.00    +0.000 C 
BRANCH  26  28
ATOM     27  C   UNL     1      -8.552   3.088 122.346  0.00  0.00    +0.000 C 
ATOM     28  C   UNL     1      -8.093   2.461 123.672  0.00  0.00    +0.000 C 
ATOM     29  C   UNL     1      -7.139   1.273 123.397  0.00  0.00    +0.000 C 
ATOM     30  N   UNL     1      -7.824   0.203 124.062  0.00  0.00    +0.000 N 
ATOM     31  C   UNL     1      -7.625  -1.101 124.275  0.00  0.00    +0.000 A 
ATOM     32  C   UNL     1      -8.751  -1.473 125.000  0.00  0.00    +0.000 A 
ATOM     33  N   UNL     1      -9.621  -0.378 125.194  0.00  0.00    +0.000 NA
ATOM     34  C   UNL     1      -8.987   0.609 124.602  0.00  0.00    +0.000 A 
ATOM     35  O   UNL     1      -9.252   1.904 124.411  0.00  0.00    +0.000 OA
BRANCH  32  36
ATOM     36  N   UNL     1      -9.015  -2.816 125.491  0.00  0.00    +0.000 N 
ATOM     37  O   UNL     1     -10.180  -3.030 125.888  0.00  0.00    +0.000 OA
ATOM     38  O   UNL     1      -8.102  -3.642 125.492  0.00  0.00    +0.000 OA
ENDBRANCH  32  36
ENDBRANCH  26  28
ENDBRANCH  25  26
ENDBRANCH   1  25
TORSDOF 9
ENDMDL
MODEL 4
REMARK VINA RESULT:      -8.3      6.391      7.679
REMARK  Name = Delamanid
REMARK  10 active torsions:
REMARK  status: ('A' for Active; 'I' for Inactive)
REMARK    1  A    between atoms: C_1  and  C_2
REMARK    2  A    between atoms: C_2  and  C_3
REMARK    3  A    between atoms: C_3  and  O_4
REMARK    4  A    between atoms: O_4  and  C_5
REMARK    5  A    between atoms: C_8  and  N_11
REMARK    6  A    between atoms: C_14  and  O_17
REMARK    7  A    between atoms: O_17  and  C_18
REMARK    8  A    between atoms: C_21  and  O_22
REMARK    9  A    between atoms: O_22  and  C_23
REMARK   10  A    between atoms: C_32  and  N_36
REMARK                            x       y       z     vdW  Elec       q    Type
REMARK                         _______ _______ _______ _____ _____    ______ ____
ROOT
ATOM      1  C   UNL     1      -7.032  -1.728 127.779  0.00  0.00    +0.000 A 
ATOM      2  C   UNL     1      -7.116  -1.928 129.154  0.00  0.00    +0.000 A 
ATOM      3  C   UNL     1      -7.492  -0.877 130.004  0.00  0.00    +0.000 A 
ATOM      4  C   UNL     1      -7.751   0.412 129.518  0.00  0.00    +0.000 A 
ATOM      5  C   UNL     1      -7.676   0.589 128.133  0.00  0.00    +0.000 A 
ATOM      6  C   UNL     1      -7.311  -0.463 127.269  0.00  0.00    +0.000 A 
ENDROOT
BRANCH   4   7
ATOM      7  N   UNL     1      -8.017   1.451 130.381  0.00  0.00    +0.000 N 
ATOM      8  C   UNL     1      -8.312   2.781 129.866  0.00  0.00    +0.000 C 
ATOM      9  C   UNL     1      -7.250   3.738 130.406  0.00  0.00    +0.000 C 
ATOM     10  C   UNL     1      -7.290   3.774 131.942  0.00  0.00    +0.000 C 
ATOM     11  C   UNL     1      -7.070   2.323 132.449  0.00  0.00    +0.000 C 
ATOM     12  C   UNL     1      -8.075   1.325 131.835  0.00  0.00    +0.000 C 
BRANCH  10  13
ATOM     13  O   UNL     1      -8.515   4.260 132.543  0.00  0.00    +0.000 OA
BRANCH  13  14
ATOM     14  C   UNL     1      -9.206   5.266 131.921  0.00  0.00    +0.000 A 
ATOM     15  C   UNL     1     -10.564   5.087 131.662  0.00  0.00    +0.000 A 
ATOM     16  C   UNL     1     -11.251   5.986 130.822  0.00  0.00    +0.000 A 
ATOM     17  C   UNL     1     -10.614   7.121 130.310  0.00  0.00    +0.000 A 
ATOM     18  C   UNL     1      -9.263   7.291 130.570  0.00  0.00    +0.000 A 
ATOM     19  C   UNL     1      -8.569   6.347 131.321  0.00  0.00    +0.000 A 
BRANCH  17  20
ATOM     20  O   UNL     1     -11.375   7.977 129.565  0.00  0.00    +0.000 OA
BRANCH  20  21
ATOM     21  C   UNL     1     -11.012   8.119 128.193  0.00  0.00    +0.000 C 
ATOM     22  F   UNL     1     -10.612   6.940 127.664  0.00  0.00    +0.000 F 
ATOM     23  F   UNL     1     -12.043   8.606 127.467  0.00  0.00    +0.000 F 
ATOM     24  F   UNL     1      -9.984   8.988 128.092  0.00  0.00    +0.000 F 
ENDBRANCH  20  21
ENDBRANCH  17  20
ENDBRANCH  13  14
ENDBRANCH  10  13
ENDBRANCH   4   7
BRANCH   1  25
ATOM     25  O   UNL     1      -6.785  -2.850 127.034  0.00  0.00    +0.000 OA
BRANCH  25  26
ATOM     26  C   UNL     1      -5.596  -2.844 126.243  0.00  0.00    +0.000 C 
BRANCH  26  28
ATOM     27  C   UNL     1      -4.985  -3.591 123.950  0.00  0.00    +0.000 C 
ATOM     28  C   UNL     1      -5.945  -2.687 124.740  0.00  0.00    +0.000 C 
ATOM     29  C   UNL     1      -7.412  -3.106 124.474  0.00  0.00    +0.000 C 
ATOM     30  N   UNL     1      -7.966  -1.884 123.969  0.00  0.00    +0.000 N 
ATOM     31  C   UNL     1      -9.157  -1.455 123.540  0.00  0.00    +0.000 A 
ATOM     32  C   UNL     1      -8.904  -0.134 123.191  0.00  0.00    +0.000 A 
ATOM     33  N   UNL     1      -7.550   0.202 123.402  0.00  0.00    +0.000 NA
ATOM     34  C   UNL     1      -7.042  -0.910 123.884  0.00  0.00    +0.000 A 
ATOM     35  O   UNL     1      -5.824  -1.280 124.286  0.00  0.00    +0.000 OA
BRANCH  32  36
ATOM     36  N   UNL     1      -9.898   0.789 122.665  0.00  0.00    +0.000 N 
ATOM     37  O   UNL     1      -9.490   1.944 122.422  0.00  0.00    +0.000 OA
ATOM     38  O   UNL     1     -11.051   0.393 122.498  0.00  0.00    +0.000 OA
ENDBRANCH  32  36
ENDBRANCH  26  28
ENDBRANCH  25  26
ENDBRANCH   1  25
TORSDOF 9
ENDMDL
MODEL 5
REMARK VINA RESULT:      -8.2      7.391     12.769
REMARK  Name = Delamanid
REMARK  10 active torsions:
REMARK  status: ('A' for Active; 'I' for Inactive)
REMARK    1  A    between atoms: C_1  and  C_2
REMARK    2  A    between atoms: C_2  and  C_3
REMARK    3  A    between atoms: C_3  and  O_4
REMARK    4  A    between atoms: O_4  and  C_5
REMARK    5  A    between atoms: C_8  and  N_11
REMARK    6  A    between atoms: C_14  and  O_17
REMARK    7  A    between atoms: O_17  and  C_18
REMARK    8  A    between atoms: C_21  and  O_22
REMARK    9  A    between atoms: O_22  and  C_23
REMARK   10  A    between atoms: C_32  and  N_36
REMARK                            x       y       z     vdW  Elec       q    Type
REMARK                         _______ _______ _______ _____ _____    ______ ____
ROOT
ATOM      1  C   UNL     1      -4.210   2.703 134.196  0.00  0.00    +0.000 A 
ATOM      2  C   UNL     1      -3.521   2.393 133.027  0.00  0.00    +0.000 A 
ATOM      3  C   UNL     1      -3.990   1.386 132.171  0.00  0.00    +0.000 A 
ATOM      4  C   UNL     1      -5.130   0.629 132.472  0.00  0.00    +0.000 A 
ATOM      5  C   UNL     1      -5.818   0.966 133.643  0.00  0.00    +0.000 A 
ATOM      6  C   UNL     1      -5.362   1.984 134.504  0.00  0.00    +0.000 A 
ENDROOT
BRANCH   4   7
ATOM      7  N   UNL     1      -5.513  -0.422 131.669  0.00  0.00    +0.000 N 
ATOM      8  C   UNL     1      -6.598  -0.261 130.711  0.00  0.00    +0.000 C 
ATOM      9  C   UNL     1      -7.695  -1.261 131.075  0.00  0.00    +0.000 C 
ATOM     10  C   UNL     1      -7.159  -2.700 130.992  0.00  0.00    +0.000 C 
ATOM     11  C   UNL     1      -5.944  -2.802 131.952  0.00  0.00    +0.000 C 
ATOM     12  C   UNL     1      -4.870  -1.734 131.660  0.00  0.00    +0.000 C 
BRANCH  10  13
ATOM     13  O   UNL     1      -6.718  -3.148 129.687  0.00  0.00    +0.000 OA
BRANCH  13  14
ATOM     14  C   UNL     1      -7.515  -2.911 128.598  0.00  0.00    +0.000 A 
ATOM     15  C   UNL     1      -8.632  -3.720 128.396  0.00  0.00    +0.000 A 
ATOM     16  C   UNL     1      -9.337  -3.666 127.177  0.00  0.00    +0.000 A 
ATOM     17  C   UNL     1      -8.991  -2.739 126.187  0.00  0.00    +0.000 A 
ATOM     18  C   UNL     1      -7.878  -1.939 126.395  0.00  0.00    +0.000 A 
ATOM     19  C   UNL     1      -7.130  -2.067 127.562  0.00  0.00    +0.000 A 
BRANCH  17  20
ATOM     20  O   UNL     1      -9.772  -2.706 125.067  0.00  0.00    +0.000 OA
BRANCH  20  21
ATOM     21  C   UNL     1      -9.209  -3.266 123.883  0.00  0.00    +0.000 C 
ATOM     22  F   UNL     1      -8.625  -2.318 123.117  0.00  0.00    +0.000 F 
ATOM     23  F   UNL     1      -8.298  -4.219 124.184  0.00  0.00    +0.000 F 
ATOM     24  F   UNL     1     -10.188  -3.843 123.154  0.00  0.00    +0.000 F 
ENDBRANCH  20  21
ENDBRANCH  17  20
ENDBRANCH  13  14
ENDBRANCH  10  13
ENDBRANCH   4   7
BRANCH   1  25
ATOM     25  O   UNL     1      -3.740   3.786 134.889  0.00  0.00    +0.000 OA
BRANCH  25  26
ATOM     26  C   UNL     1      -3.119   4.817 134.120  0.00  0.00    +0.000 C 
BRANCH  26  28
ATOM     27  C   UNL     1      -3.552   7.082 135.053  0.00  0.00    +0.000 C 
ATOM     28  C   UNL     1      -4.048   6.055 134.023  0.00  0.00    +0.000 C 
ATOM     29  C   UNL     1      -4.001   6.662 132.599  0.00  0.00    +0.000 C 
ATOM     30  N   UNL     1      -5.368   6.527 132.190  0.00  0.00    +0.000 N 
ATOM     31  C   UNL     1      -6.094   6.808 131.104  0.00  0.00    +0.000 A 
ATOM     32  C   UNL     1      -7.371   6.398 131.470  0.00  0.00    +0.000 A 
ATOM     33  N   UNL     1      -7.389   5.892 132.788  0.00  0.00    +0.000 NA
ATOM     34  C   UNL     1      -6.133   5.995 133.160  0.00  0.00    +0.000 A 
ATOM     35  O   UNL     1      -5.467   5.706 134.280  0.00  0.00    +0.000 OA
BRANCH  32  36
ATOM     36  N   UNL     1      -8.547   6.484 130.618  0.00  0.00    +0.000 N 
ATOM     37  O   UNL     1      -8.748   7.593 130.081  0.00  0.00    +0.000 OA
ATOM     38  O   UNL     1      -9.258   5.488 130.480  0.00  0.00    +0.000 OA
ENDBRANCH  32  36
ENDBRANCH  26  28
ENDBRANCH  25  26
ENDBRANCH   1  25
TORSDOF 9
ENDMDL
MODEL 6
REMARK VINA RESULT:      -8.2      1.949      2.962
REMARK  Name = Delamanid
REMARK  10 active torsions:
REMARK  status: ('A' for Active; 'I' for Inactive)
REMARK    1  A    between atoms: C_1  and  C_2
REMARK    2  A    between atoms: C_2  and  C_3
REMARK    3  A    between atoms: C_3  and  O_4
REMARK    4  A    between atoms: O_4  and  C_5
REMARK    5  A    between atoms: C_8  and  N_11
REMARK    6  A    between atoms: C_14  and  O_17
REMARK    7  A    between atoms: O_17  and  C_18
REMARK    8  A    between atoms: C_21  and  O_22
REMARK    9  A    between atoms: O_22  and  C_23
REMARK   10  A    between atoms: C_32  and  N_36
REMARK                            x       y       z     vdW  Elec       q    Type
REMARK                         _______ _______ _______ _____ _____    ______ ____
ROOT
ATOM      1  C   UNL     1      -4.673   1.727 127.773  0.00  0.00    +0.000 A 
ATOM      2  C   UNL     1      -5.028   1.660 129.117  0.00  0.00    +0.000 A 
ATOM      3  C   UNL     1      -4.643   2.675 130.006  0.00  0.00    +0.000 A 
ATOM      4  C   UNL     1      -3.858   3.761 129.595  0.00  0.00    +0.000 A 
ATOM      5  C   UNL     1      -3.525   3.819 128.238  0.00  0.00    +0.000 A 
ATOM      6  C   UNL     1      -3.917   2.810 127.334  0.00  0.00    +0.000 A 
ENDROOT
BRANCH   4   7
ATOM      7  N   UNL     1      -3.406   4.690 130.505  0.00  0.00    +0.000 N 
ATOM      8  C   UNL     1      -3.212   6.077 130.109  0.00  0.00    +0.000 C 
ATOM      9  C   UNL     1      -1.739   6.423 130.319  0.00  0.00    +0.000 C 
ATOM     10  C   UNL     1      -1.356   6.265 131.799  0.00  0.00    +0.000 C 
ATOM     11  C   UNL     1      -1.669   4.800 132.209  0.00  0.00    +0.000 C 
ATOM     12  C   UNL     1      -3.130   4.405 131.911  0.00  0.00    +0.000 C 
BRANCH  10  13
ATOM     13  O   UNL     1      -2.039   7.131 132.737  0.00  0.00    +0.000 OA
BRANCH  13  14
ATOM     14  C   UNL     1      -1.471   8.334 133.065  0.00  0.00    +0.000 A 
ATOM     15  C   UNL     1      -2.207   9.500 132.864  0.00  0.00    +0.000 A 
ATOM     16  C   UNL     1      -1.584  10.760 132.962  0.00  0.00    +0.000 A 
ATOM     17  C   UNL     1      -0.245  10.870 133.354  0.00  0.00    +0.000 A 
ATOM     18  C   UNL     1       0.481   9.705 133.551  0.00  0.00    +0.000 A 
ATOM     19  C   UNL     1      -0.118   8.465 133.357  0.00  0.00    +0.000 A 
BRANCH  17  20
ATOM     20  O   UNL     1       0.259  12.132 133.495  0.00  0.00    +0.000 OA
BRANCH  20  21
ATOM     21  C   UNL     1       0.847  12.714 132.334  0.00  0.00    +0.000 C 
ATOM     22  F   UNL     1       1.503  11.789 131.596  0.00  0.00    +0.000 F 
ATOM     23  F   UNL     1      -0.089  13.314 131.565  0.00  0.00    +0.000 F 
ATOM     24  F   UNL     1       1.741  13.653 132.711  0.00  0.00    +0.000 F 
ENDBRANCH  20  21
ENDBRANCH  17  20
ENDBRANCH  13  14
ENDBRANCH  10  13
ENDBRANCH   4   7
BRANCH   1  25
ATOM     25  O   UNL     1      -5.210   0.755 126.972  0.00  0.00    +0.000 OA
BRANCH  25  26
ATOM     26  C   UNL     1      -5.449  -0.515 127.579  0.00  0.00    +0.000 C 
BRANCH  26  28
ATOM     27  C   UNL     1      -7.025  -2.423 127.842  0.00  0.00    +0.000 C 
ATOM     28  C   UNL     1      -6.775  -1.125 127.056  0.00  0.00    +0.000 C 
ATOM     29  C   UNL     1      -7.950  -0.140 127.268  0.00  0.00    +0.000 C 
ATOM     30  N   UNL     1      -8.381   0.080 125.919  0.00  0.00    +0.000 N 
ATOM     31  C   UNL     1      -9.318   0.802 125.297  0.00  0.00    +0.000 A 
ATOM     32  C   UNL     1      -9.126   0.476 123.960  0.00  0.00    +0.000 A 
ATOM     33  N   UNL     1      -8.078  -0.458 123.805  0.00  0.00    +0.000 NA
ATOM     34  C   UNL     1      -7.668  -0.647 125.039  0.00  0.00    +0.000 A 
ATOM     35  O   UNL     1      -6.722  -1.403 125.600  0.00  0.00    +0.000 OA
BRANCH  32  36
ATOM     36  N   UNL     1      -9.904   1.014 122.855  0.00  0.00    +0.000 N 
ATOM     37  O   UNL     1     -10.949   0.391 122.573  0.00  0.00    +0.000 OA
ATOM     38  O   UNL     1      -9.497   2.020 122.274  0.00  0.00    +0.000 OA
ENDBRANCH  32  36
ENDBRANCH  26  28
ENDBRANCH  25  26
ENDBRANCH   1  25
TORSDOF 9
ENDMDL
MODEL 7
REMARK VINA RESULT:      -8.0      5.350      6.801
REMARK  Name = Delamanid
REMARK  10 active torsions:
REMARK  status: ('A' for Active; 'I' for Inactive)
REMARK    1  A    between atoms: C_1  and  C_2
REMARK    2  A    between atoms: C_2  and  C_3
REMARK    3  A    between atoms: C_3  and  O_4
REMARK    4  A    between atoms: O_4  and  C_5
REMARK    5  A    between atoms: C_8  and  N_11
REMARK    6  A    between atoms: C_14  and  O_17
REMARK    7  A    between atoms: O_17  and  C_18
REMARK    8  A    between atoms: C_21  and  O_22
REMARK    9  A    between atoms: O_22  and  C_23
REMARK   10  A    between atoms: C_32  and  N_36
REMARK                            x       y       z     vdW  Elec       q    Type
REMARK                         _______ _______ _______ _____ _____    ______ ____
ROOT
ATOM      1  C   UNL     1      -7.829   2.186 127.509  0.00  0.00    +0.000 A 
ATOM      2  C   UNL     1      -8.650   2.051 128.625  0.00  0.00    +0.000 A 
ATOM      3  C   UNL     1      -8.265   2.591 129.861  0.00  0.00    +0.000 A 
ATOM      4  C   UNL     1      -7.034   3.239 130.035  0.00  0.00    +0.000 A 
ATOM      5  C   UNL     1      -6.230   3.379 128.899  0.00  0.00    +0.000 A 
ATOM      6  C   UNL     1      -6.614   2.851 127.649  0.00  0.00    +0.000 A 
ENDROOT
BRANCH   4   7
ATOM      7  N   UNL     1      -6.633   3.670 131.279  0.00  0.00    +0.000 N 
ATOM      8  C   UNL     1      -7.421   4.651 132.010  0.00  0.00    +0.000 C 
ATOM      9  C   UNL     1      -6.540   5.876 132.249  0.00  0.00    +0.000 C 
ATOM     10  C   UNL     1      -5.308   5.497 133.087  0.00  0.00    +0.000 C 
ATOM     11  C   UNL     1      -4.548   4.381 132.320  0.00  0.00    +0.000 C 
ATOM     12  C   UNL     1      -5.453   3.176 131.985  0.00  0.00    +0.000 C 
BRANCH  10  13
ATOM     13  O   UNL     1      -5.566   5.006 134.424  0.00  0.00    +0.000 OA
BRANCH  13  14
ATOM     14  C   UNL     1      -6.137   5.847 135.342  0.00  0.00    +0.000 A 
ATOM     15  C   UNL     1      -5.322   6.752 136.020  0.00  0.00    +0.000 A 
ATOM     16  C   UNL     1      -5.820   7.462 137.131  0.00  0.00    +0.000 A 
ATOM     17  C   UNL     1      -7.160   7.346 137.516  0.00  0.00    +0.000 A 
ATOM     18  C   UNL     1      -7.963   6.442 136.838  0.00  0.00    +0.000 A 
ATOM     19  C   UNL     1      -7.437   5.674 135.804  0.00  0.00    +0.000 A 
BRANCH  17  20
ATOM     20  O   UNL     1      -7.576   8.126 138.558  0.00  0.00    +0.000 OA
BRANCH  20  21
ATOM     21  C   UNL     1      -8.655   9.019 138.290  0.00  0.00    +0.000 C 
ATOM     22  F   UNL     1      -8.459   9.699 137.138  0.00  0.00    +0.000 F 
ATOM     23  F   UNL     1      -9.830   8.353 138.219  0.00  0.00    +0.000 F 
ATOM     24  F   UNL     1      -8.747   9.919 139.292  0.00  0.00    +0.000 F 
ENDBRANCH  20  21
ENDBRANCH  17  20
ENDBRANCH  13  14
ENDBRANCH  10  13
ENDBRANCH   4   7
BRANCH   1  25
ATOM     25  O   UNL     1      -8.359   1.739 126.329  0.00  0.00    +0.000 OA
BRANCH  25  26
ATOM     26  C   UNL     1      -8.406   2.678 125.253  0.00  0.00    +0.000 C 
BRANCH  26  28
ATOM     27  C   UNL     1      -7.536   0.598 124.202  0.00  0.00    +0.000 C 
ATOM     28  C   UNL     1      -7.664   2.118 124.012  0.00  0.00    +0.000 C 
ATOM     29  C   UNL     1      -8.455   2.428 122.718  0.00  0.00    +0.000 C 
ATOM     30  N   UNL     1      -7.512   3.232 121.997  0.00  0.00    +0.000 N 
ATOM     31  C   UNL     1      -7.468   3.873 120.826  0.00  0.00    +0.000 A 
ATOM     32  C   UNL     1      -6.192   4.425 120.821  0.00  0.00    +0.000 A 
ATOM     33  N   UNL     1      -5.482   4.086 121.993  0.00  0.00    +0.000 NA
ATOM     34  C   UNL     1      -6.351   3.365 122.665  0.00  0.00    +0.000 A 
ATOM     35  O   UNL     1      -6.326   2.734 123.841  0.00  0.00    +0.000 OA
BRANCH  32  36
ATOM     36  N   UNL     1      -5.645   5.240 119.747  0.00  0.00    +0.000 N 
ATOM     37  O   UNL     1      -6.077   4.992 118.603  0.00  0.00    +0.000 OA
ATOM     38  O   UNL     1      -4.808   6.101 120.020  0.00  0.00    +0.000 OA
ENDBRANCH  32  36
ENDBRANCH  26  28
ENDBRANCH  25  26
ENDBRANCH   1  25
TORSDOF 9
ENDMDL
MODEL 8
REMARK VINA RESULT:      -7.9      6.866     14.037
REMARK  Name = Delamanid
REMARK  10 active torsions:
REMARK  status: ('A' for Active; 'I' for Inactive)
REMARK    1  A    between atoms: C_1  and  C_2
REMARK    2  A    between atoms: C_2  and  C_3
REMARK    3  A    between atoms: C_3  and  O_4
REMARK    4  A    between atoms: O_4  and  C_5
REMARK    5  A    between atoms: C_8  and  N_11
REMARK    6  A    between atoms: C_14  and  O_17
REMARK    7  A    between atoms: O_17  and  C_18
REMARK    8  A    between atoms: C_21  and  O_22
REMARK    9  A    between atoms: O_22  and  C_23
REMARK   10  A    between atoms: C_32  and  N_36
REMARK                            x       y       z     vdW  Elec       q    Type
REMARK                         _______ _______ _______ _____ _____    ______ ____
ROOT
ATOM      1  C   UNL     1      -3.231   3.818 132.736  0.00  0.00    +0.000 A 
ATOM      2  C   UNL     1      -3.696   3.838 131.424  0.00  0.00    +0.000 A 
ATOM      3  C   UNL     1      -4.273   2.693 130.856  0.00  0.00    +0.000 A 
ATOM      4  C   UNL     1      -4.364   1.483 131.559  0.00  0.00    +0.000 A 
ATOM      5  C   UNL     1      -3.906   1.487 132.880  0.00  0.00    +0.000 A 
ATOM      6  C   UNL     1      -3.335   2.636 133.464  0.00  0.00    +0.000 A 
ENDROOT
BRANCH   4   7
ATOM      7  N   UNL     1      -4.840   0.346 130.947  0.00  0.00    +0.000 N 
ATOM      8  C   UNL     1      -6.019   0.404 130.095  0.00  0.00    +0.000 C 
ATOM      9  C   UNL     1      -7.081  -0.513 130.700  0.00  0.00    +0.000 C 
ATOM     10  C   UNL     1      -6.572  -1.962 130.754  0.00  0.00    +0.000 C 
ATOM     11  C   UNL     1      -5.262  -1.966 131.588  0.00  0.00    +0.000 C 
ATOM     12  C   UNL     1      -4.215  -0.971 131.046  0.00  0.00    +0.000 C 
BRANCH  10  13
ATOM     13  O   UNL     1      -6.276  -2.588 129.482  0.00  0.00    +0.000 OA
BRANCH  13  14
ATOM     14  C   UNL     1      -7.219  -2.552 128.489  0.00  0.00    +0.000 A 
ATOM     15  C   UNL     1      -8.200  -3.542 128.460  0.00  0.00    +0.000 A 
ATOM     16  C   UNL     1      -9.037  -3.680 127.335  0.00  0.00    +0.000 A 
ATOM     17  C   UNL     1      -8.965  -2.774 126.270  0.00  0.00    +0.000 A 
ATOM     18  C   UNL     1      -7.986  -1.794 126.306  0.00  0.00    +0.000 A 
ATOM     19  C   UNL     1      -7.101  -1.725 127.378  0.00  0.00    +0.000 A 
BRANCH  17  20
ATOM     20  O   UNL     1      -9.862  -2.939 125.253  0.00  0.00    +0.000 OA
BRANCH  20  21
ATOM     21  C   UNL     1      -9.319  -3.253 123.973  0.00  0.00    +0.000 C 
ATOM     22  F   UNL     1      -8.992  -2.134 123.287  0.00  0.00    +0.000 F 
ATOM     23  F   UNL     1      -8.226  -4.040 124.089  0.00  0.00    +0.000 F 
ATOM     24  F   UNL     1     -10.242  -3.926 123.251  0.00  0.00    +0.000 F 
ENDBRANCH  20  21
ENDBRANCH  17  20
ENDBRANCH  13  14
ENDBRANCH  10  13
ENDBRANCH   4   7
BRANCH   1  25
ATOM     25  O   UNL     1      -2.808   5.022 133.231  0.00  0.00    +0.000 OA
BRANCH  25  26
ATOM     26  C   UNL     1      -1.440   5.364 133.001  0.00  0.00    +0.000 C 
BRANCH  26  28
ATOM     27  C   UNL     1      -1.352   6.451 130.765  0.00  0.00    +0.000 C 
ATOM     28  C   UNL     1      -1.338   6.731 132.276  0.00  0.00    +0.000 C 
ATOM     29  C   UNL     1      -2.529   7.643 132.660  0.00  0.00    +0.000 C 
ATOM     30  N   UNL     1      -1.852   8.750 133.267  0.00  0.00    +0.000 N 
ATOM     31  C   UNL     1      -2.192   9.907 133.844  0.00  0.00    +0.000 A 
ATOM     32  C   UNL     1      -0.962  10.462 134.177  0.00  0.00    +0.000 A 
ATOM     33  N   UNL     1       0.103   9.628 133.774  0.00  0.00    +0.000 NA
ATOM     34  C   UNL     1      -0.515   8.602 133.234  0.00  0.00    +0.000 A 
ATOM     35  O   UNL     1      -0.109   7.469 132.655  0.00  0.00    +0.000 OA
BRANCH  32  36
ATOM     36  N   UNL     1      -0.783  11.741 134.846  0.00  0.00    +0.000 N 
ATOM     37  O   UNL     1       0.312  11.903 135.424  0.00  0.00    +0.000 OA
ATOM     38  O   UNL     1      -1.696  12.566 134.810  0.00  0.00    +0.000 OA
ENDBRANCH  32  36
ENDBRANCH  26  28
ENDBRANCH  25  26
ENDBRANCH   1  25
TORSDOF 9
ENDMDL
MODEL 9
REMARK VINA RESULT:      -7.9      5.156      6.771
REMARK  Name = Delamanid
REMARK  10 active torsions:
REMARK  status: ('A' for Active; 'I' for Inactive)
REMARK    1  A    between atoms: C_1  and  C_2
REMARK    2  A    between atoms: C_2  and  C_3
REMARK    3  A    between atoms: C_3  and  O_4
REMARK    4  A    between atoms: O_4  and  C_5
REMARK    5  A    between atoms: C_8  and  N_11
REMARK    6  A    between atoms: C_14  and  O_17
REMARK    7  A    between atoms: O_17  and  C_18
REMARK    8  A    between atoms: C_21  and  O_22
REMARK    9  A    between atoms: O_22  and  C_23
REMARK   10  A    between atoms: C_32  and  N_36
REMARK                            x       y       z     vdW  Elec       q    Type
REMARK                         _______ _______ _______ _____ _____    ______ ____
ROOT
ATOM      1  C   UNL     1      -5.374   4.902 130.527  0.00  0.00    +0.000 A 
ATOM      2  C   UNL     1      -4.110   4.383 130.791  0.00  0.00    +0.000 A 
ATOM      3  C   UNL     1      -3.099   5.204 131.312  0.00  0.00    +0.000 A 
ATOM      4  C   UNL     1      -3.301   6.571 131.543  0.00  0.00    +0.000 A 
ATOM      5  C   UNL     1      -4.581   7.071 131.287  0.00  0.00    +0.000 A 
ATOM      6  C   UNL     1      -5.608   6.252 130.774  0.00  0.00    +0.000 A 
ENDROOT
BRANCH   4   7
ATOM      7  N   UNL     1      -2.264   7.378 131.957  0.00  0.00    +0.000 N 
ATOM      8  C   UNL     1      -0.911   6.848 132.054  0.00  0.00    +0.000 C 
ATOM      9  C   UNL     1      -0.459   6.981 133.507  0.00  0.00    +0.000 C 
ATOM     10  C   UNL     1      -0.452   8.458 133.935  0.00  0.00    +0.000 C 
ATOM     11  C   UNL     1      -1.888   9.011 133.725  0.00  0.00    +0.000 C 
ATOM     12  C   UNL     1      -2.397   8.795 132.284  0.00  0.00    +0.000 C 
BRANCH  10  13
ATOM     13  O   UNL     1       0.456   9.330 133.221  0.00  0.00    +0.000 OA
BRANCH  13  14
ATOM     14  C   UNL     1       0.705  10.582 133.720  0.00  0.00    +0.000 A 
ATOM     15  C   UNL     1       0.812  11.649 132.831  0.00  0.00    +0.000 A 
ATOM     16  C   UNL     1       1.297  12.896 133.272  0.00  0.00    +0.000 A 
ATOM     17  C   UNL     1       1.592  13.115 134.623  0.00  0.00    +0.000 A 
ATOM     18  C   UNL     1       1.485  12.048 135.501  0.00  0.00    +0.000 A 
ATOM     19  C   UNL     1       1.097  10.794 135.037  0.00  0.00    +0.000 A 
BRANCH  17  20
ATOM     20  O   UNL     1       1.987  14.375 134.976  0.00  0.00    +0.000 OA
BRANCH  20  21
ATOM     21  C   UNL     1       1.097  15.107 135.815  0.00  0.00    +0.000 C 
ATOM     22  F   UNL     1      -0.193  14.902 135.465  0.00  0.00    +0.000 F 
ATOM     23  F   UNL     1       1.265  14.768 137.113  0.00  0.00    +0.000 F 
ATOM     24  F   UNL     1       1.355  16.427 135.693  0.00  0.00    +0.000 F 
ENDBRANCH  20  21
ENDBRANCH  17  20
ENDBRANCH  13  14
ENDBRANCH  10  13
ENDBRANCH   4   7
BRANCH   1  25
ATOM     25  O   UNL     1      -6.320   3.988 130.146  0.00  0.00    +0.000 OA
BRANCH  25  26
ATOM     26  C   UNL     1      -7.534   3.972 130.899  0.00  0.00    +0.000 C 
BRANCH  26  28
ATOM     27  C   UNL     1      -8.805   2.692 129.186  0.00  0.00    +0.000 C 
ATOM     28  C   UNL     1      -8.759   4.025 129.952  0.00  0.00    +0.000 C 
ATOM     29  C   UNL     1     -10.066   4.220 130.759  0.00  0.00    +0.000 C 
ATOM     30  N   UNL     1     -10.539   5.467 130.234  0.00  0.00    +0.000 N 
ATOM     31  C   UNL     1     -11.579   6.281 130.435  0.00  0.00    +0.000 A 
ATOM     32  C   UNL     1     -11.355   7.304 129.523  0.00  0.00    +0.000 A 
ATOM     33  N   UNL     1     -10.182   7.074 128.771  0.00  0.00    +0.000 NA
ATOM     34  C   UNL     1      -9.735   5.941 129.265  0.00  0.00    +0.000 A 
ATOM     35  O   UNL     1      -8.681   5.164 129.005  0.00  0.00    +0.000 OA
BRANCH  32  36
ATOM     36  N   UNL     1     -12.216   8.464 129.348  0.00  0.00    +0.000 N 
ATOM     37  O   UNL     1     -12.797   8.868 130.377  0.00  0.00    +0.000 OA
ATOM     38  O   UNL     1     -12.322   8.964 128.228  0.00  0.00    +0.000 OA
ENDBRANCH  32  36
ENDBRANCH  26  28
ENDBRANCH  25  26
ENDBRANCH   1  25
TORSDOF 9
ENDMDL
