MODEL 1
REMARK VINA RESULT:      -7.2      0.000      0.000
REMARK  Name = Demecarium
REMARK  25 active torsions:
REMARK  status: ('A' for Active; 'I' for Inactive)
REMARK    1  A    between atoms: C_1  and  N_2
REMARK    2  A    between atoms: N_2  and  C_3
REMARK    3  A    between atoms: C_3  and  C_4
REMARK    4  A    between atoms: C_4  and  C_5
REMARK    5  A    between atoms: C_5  and  C_6
REMARK    6  A    between atoms: C_6  and  C_7
REMARK    7  A    between atoms: C_7  and  C_8
REMARK    8  A    between atoms: C_8  and  C_9
REMARK    9  A    between atoms: C_9  and  C_10
REMARK   10  A    between atoms: C_10  and  C_11
REMARK   11  A    between atoms: C_11  and  C_12
REMARK   12  A    between atoms: C_12  and  N_13
REMARK   13  A    between atoms: N_13  and  C_14
REMARK   14  A    between atoms: C_15  and  O_17
REMARK   15  A    between atoms: O_17  and  C_18
REMARK   16  A    between atoms: C_22  and  N_24
REMARK   17  A    between atoms: N_24  and  C_25
REMARK   18  A    between atoms: N_24  and  C_26
REMARK   19  A    between atoms: N_24  and  C_27
REMARK   20  A    between atoms: C_28  and  O_30
REMARK   21  A    between atoms: O_30  and  C_31
REMARK   22  A    between atoms: C_35  and  N_37
REMARK   23  A    between atoms: N_37  and  C_38
REMARK   24  A    between atoms: N_37  and  C_39
REMARK   25  A    between atoms: N_37  and  C_40
REMARK                            x       y       z     vdW  Elec       q    Type
REMARK                         _______ _______ _______ _____ _____    ______ ____
ROOT
ATOM      1  C   UNL     1      -8.597  -2.001 122.749  0.00  0.00    +0.000 C 
ENDROOT
BRANCH   1   2
ATOM      2  C   UNL     1      -9.235  -3.159 123.491  0.00  0.00    +0.000 C 
BRANCH   2   3
ATOM      3  C   UNL     1      -8.375  -3.547 124.676  0.00  0.00    +0.000 C 
BRANCH   3   4
ATOM      4  C   UNL     1      -6.916  -3.211 124.392  0.00  0.00    +0.000 C 
BRANCH   4   5
ATOM      5  C   UNL     1      -6.339  -2.489 125.591  0.00  0.00    +0.000 C 
BRANCH   5   6
ATOM      6  C   UNL     1      -7.200  -2.599 126.847  0.00  0.00    +0.000 C 
BRANCH   6   7
ATOM      7  N   UNL     1      -6.938  -1.568 127.868  0.00  0.00    +0.000 N 
ATOM      8  C   UNL     1      -5.990  -1.809 128.946  0.00  0.00    +0.000 C 
ATOM      9  C   UNL     1      -7.641  -0.356 127.795  0.00  0.00    +0.000 C 
ATOM     10  O   UNL     1      -8.522  -0.141 126.984  0.00  0.00    +0.000 OA
BRANCH   9  11
ATOM     11  O   UNL     1      -7.247   0.585 128.789  0.00  0.00    +0.000 OA
BRANCH  11  12
ATOM     12  C   UNL     1      -8.196   1.043 129.749  0.00  0.00    +0.000 A 
ATOM     13  C   UNL     1      -8.468   0.267 130.874  0.00  0.00    +0.000 A 
ATOM     14  C   UNL     1      -9.345   0.779 131.829  0.00  0.00    +0.000 A 
ATOM     15  C   UNL     1      -9.839   2.095 131.708  0.00  0.00    +0.000 A 
ATOM     16  C   UNL     1      -9.609   2.889 130.550  0.00  0.00    +0.000 A 
ATOM     17  C   UNL     1      -8.856   2.269 129.537  0.00  0.00    +0.000 A 
BRANCH  16  18
ATOM     18  N   UNL     1      -9.529   4.451 130.657  0.00  0.00    +0.000 NA
ATOM     19  C   UNL     1      -8.504   4.589 131.822  0.00  0.00    +0.000 C 
ATOM     20  C   UNL     1     -10.946   5.073 130.713  0.00  0.00    +0.000 C 
ATOM     21  C   UNL     1      -8.822   5.326 129.601  0.00  0.00    +0.000 C 
ENDBRANCH  16  18
ENDBRANCH  11  12
ENDBRANCH   9  11
ENDBRANCH   6   7
ENDBRANCH   5   6
ENDBRANCH   4   5
ENDBRANCH   3   4
ENDBRANCH   2   3
ENDBRANCH   1   2
BRANCH   1  22
ATOM     22  C   UNL     1      -9.532  -0.809 122.750  0.00  0.00    +0.000 C 
BRANCH  22  23
ATOM     23  C   UNL     1      -8.999   0.257 123.700  0.00  0.00    +0.000 C 
BRANCH  23  24
ATOM     24  C   UNL     1      -7.551   0.530 123.366  0.00  0.00    +0.000 C 
BRANCH  24  25
ATOM     25  C   UNL     1      -6.885   1.512 124.325  0.00  0.00    +0.000 C 
BRANCH  25  27
ATOM     26  C   UNL     1      -6.486   2.928 122.246  0.00  0.00    +0.000 C 
ATOM     27  N   UNL     1      -6.479   2.775 123.698  0.00  0.00    +0.000 N 
ATOM     28  C   UNL     1      -6.043   3.879 124.423  0.00  0.00    +0.000 C 
ATOM     29  O   UNL     1      -5.749   4.947 123.862  0.00  0.00    +0.000 OA
BRANCH  28  30
ATOM     30  O   UNL     1      -5.982   3.710 125.816  0.00  0.00    +0.000 OA
BRANCH  30  31
ATOM     31  C   UNL     1      -4.763   4.028 126.478  0.00  0.00    +0.000 A 
ATOM     32  C   UNL     1      -3.659   3.207 126.287  0.00  0.00    +0.000 A 
ATOM     33  C   UNL     1      -2.502   3.454 127.027  0.00  0.00    +0.000 A 
ATOM     34  C   UNL     1      -2.433   4.539 127.920  0.00  0.00    +0.000 A 
ATOM     35  C   UNL     1      -3.547   5.365 128.154  0.00  0.00    +0.000 A 
ATOM     36  C   UNL     1      -4.707   5.067 127.420  0.00  0.00    +0.000 A 
BRANCH  35  37
ATOM     37  N   UNL     1      -3.636   6.314 129.371  0.00  0.00    +0.000 NA
ATOM     38  C   UNL     1      -2.384   6.061 130.198  0.00  0.00    +0.000 C 
ATOM     39  C   UNL     1      -3.635   7.803 128.985  0.00  0.00    +0.000 C 
ATOM     40  C   UNL     1      -4.812   5.978 130.325  0.00  0.00    +0.000 C 
ENDBRANCH  35  37
ENDBRANCH  30  31
ENDBRANCH  28  30
ENDBRANCH  25  27
ENDBRANCH  24  25
ENDBRANCH  23  24
ENDBRANCH  22  23
ENDBRANCH   1  22
TORSDOF 17
ENDMDL
MODEL 2
REMARK VINA RESULT:      -7.0      3.207      6.090
REMARK  Name = Demecarium
REMARK  25 active torsions:
REMARK  status: ('A' for Active; 'I' for Inactive)
REMARK    1  A    between atoms: C_1  and  N_2
REMARK    2  A    between atoms: N_2  and  C_3
REMARK    3  A    between atoms: C_3  and  C_4
REMARK    4  A    between atoms: C_4  and  C_5
REMARK    5  A    between atoms: C_5  and  C_6
REMARK    6  A    between atoms: C_6  and  C_7
REMARK    7  A    between atoms: C_7  and  C_8
REMARK    8  A    between atoms: C_8  and  C_9
REMARK    9  A    between atoms: C_9  and  C_10
REMARK   10  A    between atoms: C_10  and  C_11
REMARK   11  A    between atoms: C_11  and  C_12
REMARK   12  A    between atoms: C_12  and  N_13
REMARK   13  A    between atoms: N_13  and  C_14
REMARK   14  A    between atoms: C_15  and  O_17
REMARK   15  A    between atoms: O_17  and  C_18
REMARK   16  A    between atoms: C_22  and  N_24
REMARK   17  A    between atoms: N_24  and  C_25
REMARK   18  A    between atoms: N_24  and  C_26
REMARK   19  A    between atoms: N_24  and  C_27
REMARK   20  A    between atoms: C_28  and  O_30
REMARK   21  A    between atoms: O_30  and  C_31
REMARK   22  A    between atoms: C_35  and  N_37
REMARK   23  A    between atoms: N_37  and  C_38
REMARK   24  A    between atoms: N_37  and  C_39
REMARK   25  A    between atoms: N_37  and  C_40
REMARK                            x       y       z     vdW  Elec       q    Type
REMARK                         _______ _______ _______ _____ _____    ______ ____
ROOT
ATOM      1  C   UNL     1      -7.172  -3.171 129.739  0.00  0.00    +0.000 C 
ENDROOT
BRANCH   1   2
ATOM      2  C   UNL     1      -7.601  -2.727 131.125  0.00  0.00    +0.000 C 
BRANCH   2   3
ATOM      3  C   UNL     1      -6.798  -1.515 131.549  0.00  0.00    +0.000 C 
BRANCH   3   4
ATOM      4  C   UNL     1      -7.667  -0.581 132.382  0.00  0.00    +0.000 C 
BRANCH   4   5
ATOM      5  C   UNL     1      -8.726   0.028 131.487  0.00  0.00    +0.000 C 
BRANCH   5   6
ATOM      6  C   UNL     1      -8.166   0.972 130.428  0.00  0.00    +0.000 C 
BRANCH   6   7
ATOM      7  N   UNL     1      -8.220   2.402 130.784  0.00  0.00    +0.000 N 
ATOM      8  C   UNL     1      -7.718   2.872 132.066  0.00  0.00    +0.000 C 
ATOM      9  C   UNL     1      -8.790   3.300 129.869  0.00  0.00    +0.000 C 
ATOM     10  O   UNL     1      -9.324   2.953 128.833  0.00  0.00    +0.000 OA
BRANCH   9  11
ATOM     11  O   UNL     1      -8.716   4.659 130.293  0.00  0.00    +0.000 OA
BRANCH  11  12
ATOM     12  C   UNL     1      -9.909   5.365 130.625  0.00  0.00    +0.000 A 
ATOM     13  C   UNL     1     -10.214   5.612 131.962  0.00  0.00    +0.000 A 
ATOM     14  C   UNL     1     -11.349   6.370 132.248  0.00  0.00    +0.000 A 
ATOM     15  C   UNL     1     -12.087   6.966 131.204  0.00  0.00    +0.000 A 
ATOM     16  C   UNL     1     -11.820   6.695 129.833  0.00  0.00    +0.000 A 
ATOM     17  C   UNL     1     -10.769   5.791 129.594  0.00  0.00    +0.000 A 
BRANCH  16  18
ATOM     18  N   UNL     1     -12.107   7.776 128.735  0.00  0.00    +0.000 NA
ATOM     19  C   UNL     1     -13.377   7.160 128.075  0.00  0.00    +0.000 C 
ATOM     20  C   UNL     1     -10.822   8.099 127.932  0.00  0.00    +0.000 C 
ATOM     21  C   UNL     1     -12.656   9.179 129.066  0.00  0.00    +0.000 C 
ENDBRANCH  16  18
ENDBRANCH  11  12
ENDBRANCH   9  11
ENDBRANCH   6   7
ENDBRANCH   5   6
ENDBRANCH   4   5
ENDBRANCH   3   4
ENDBRANCH   2   3
ENDBRANCH   1   2
BRANCH   1  22
ATOM     22  C   UNL     1      -8.384  -3.307 128.842  0.00  0.00    +0.000 C 
BRANCH  22  23
ATOM     23  C   UNL     1      -8.144  -2.550 127.542  0.00  0.00    +0.000 C 
BRANCH  23  24
ATOM     24  C   UNL     1      -9.030  -3.131 126.465  0.00  0.00    +0.000 C 
BRANCH  24  25
ATOM     25  C   UNL     1      -8.251  -3.789 125.330  0.00  0.00    +0.000 C 
BRANCH  25  27
ATOM     26  C   UNL     1      -9.788  -3.516 123.317  0.00  0.00    +0.000 C 
ATOM     27  N   UNL     1      -8.534  -3.222 124.007  0.00  0.00    +0.000 N 
ATOM     28  C   UNL     1      -7.639  -2.409 123.320  0.00  0.00    +0.000 C 
ATOM     29  O   UNL     1      -7.930  -1.910 122.221  0.00  0.00    +0.000 OA
BRANCH  28  30
ATOM     30  O   UNL     1      -6.411  -2.175 123.959  0.00  0.00    +0.000 OA
BRANCH  30  31
ATOM     31  C   UNL     1      -6.186  -0.892 124.533  0.00  0.00    +0.000 A 
ATOM     32  C   UNL     1      -5.353  -0.787 125.639  0.00  0.00    +0.000 A 
ATOM     33  C   UNL     1      -5.225   0.452 126.269  0.00  0.00    +0.000 A 
ATOM     34  C   UNL     1      -5.893   1.587 125.772  0.00  0.00    +0.000 A 
ATOM     35  C   UNL     1      -6.766   1.499 124.673  0.00  0.00    +0.000 A 
ATOM     36  C   UNL     1      -6.900   0.230 124.084  0.00  0.00    +0.000 A 
BRANCH  35  37
ATOM     37  N   UNL     1      -7.785   2.610 124.331  0.00  0.00    +0.000 NA
ATOM     38  C   UNL     1      -9.101   2.187 124.966  0.00  0.00    +0.000 C 
ATOM     39  C   UNL     1      -7.413   3.981 124.922  0.00  0.00    +0.000 C 
ATOM     40  C   UNL     1      -8.094   2.713 122.814  0.00  0.00    +0.000 C 
ENDBRANCH  35  37
ENDBRANCH  30  31
ENDBRANCH  28  30
ENDBRANCH  25  27
ENDBRANCH  24  25
ENDBRANCH  23  24
ENDBRANCH  22  23
ENDBRANCH   1  22
TORSDOF 17
ENDMDL
MODEL 3
REMARK VINA RESULT:      -6.9      2.129      6.810
REMARK  Name = Demecarium
REMARK  25 active torsions:
REMARK  status: ('A' for Active; 'I' for Inactive)
REMARK    1  A    between atoms: C_1  and  N_2
REMARK    2  A    between atoms: N_2  and  C_3
REMARK    3  A    between atoms: C_3  and  C_4
REMARK    4  A    between atoms: C_4  and  C_5
REMARK    5  A    between atoms: C_5  and  C_6
REMARK    6  A    between atoms: C_6  and  C_7
REMARK    7  A    between atoms: C_7  and  C_8
REMARK    8  A    between atoms: C_8  and  C_9
REMARK    9  A    between atoms: C_9  and  C_10
REMARK   10  A    between atoms: C_10  and  C_11
REMARK   11  A    between atoms: C_11  and  C_12
REMARK   12  A    between atoms: C_12  and  N_13
REMARK   13  A    between atoms: N_13  and  C_14
REMARK   14  A    between atoms: C_15  and  O_17
REMARK   15  A    between atoms: O_17  and  C_18
REMARK   16  A    between atoms: C_22  and  N_24
REMARK   17  A    between atoms: N_24  and  C_25
REMARK   18  A    between atoms: N_24  and  C_26
REMARK   19  A    between atoms: N_24  and  C_27
REMARK   20  A    between atoms: C_28  and  O_30
REMARK   21  A    between atoms: O_30  and  C_31
REMARK   22  A    between atoms: C_35  and  N_37
REMARK   23  A    between atoms: N_37  and  C_38
REMARK   24  A    between atoms: N_37  and  C_39
REMARK   25  A    between atoms: N_37  and  C_40
REMARK                            x       y       z     vdW  Elec       q    Type
REMARK                         _______ _______ _______ _____ _____    ______ ____
ROOT
ATOM      1  C   UNL     1      -8.456   1.937 132.629  0.00  0.00    +0.000 C 
ENDROOT
BRANCH   1   2
ATOM      2  C   UNL     1      -9.229   0.936 131.791  0.00  0.00    +0.000 C 
BRANCH   2   3
ATOM      3  C   UNL     1      -8.279  -0.094 131.215  0.00  0.00    +0.000 C 
BRANCH   3   4
ATOM      4  C   UNL     1      -6.848   0.424 131.284  0.00  0.00    +0.000 C 
BRANCH   4   5
ATOM      5  C   UNL     1      -5.915  -0.650 130.763  0.00  0.00    +0.000 C 
BRANCH   5   6
ATOM      6  C   UNL     1      -6.638  -1.839 130.136  0.00  0.00    +0.000 C 
BRANCH   6   7
ATOM      7  N   UNL     1      -6.201  -2.176 128.768  0.00  0.00    +0.000 N 
ATOM      8  C   UNL     1      -4.827  -2.574 128.499  0.00  0.00    +0.000 C 
ATOM      9  C   UNL     1      -7.133  -2.081 127.723  0.00  0.00    +0.000 C 
ATOM     10  O   UNL     1      -8.261  -1.650 127.869  0.00  0.00    +0.000 OA
BRANCH   9  11
ATOM     11  O   UNL     1      -6.614  -2.505 126.465  0.00  0.00    +0.000 OA
BRANCH  11  12
ATOM     12  C   UNL     1      -7.401  -2.355 125.287  0.00  0.00    +0.000 A 
ATOM     13  C   UNL     1      -8.135  -3.438 124.806  0.00  0.00    +0.000 A 
ATOM     14  C   UNL     1      -8.953  -3.237 123.696  0.00  0.00    +0.000 A 
ATOM     15  C   UNL     1      -9.117  -1.942 123.159  0.00  0.00    +0.000 A 
ATOM     16  C   UNL     1      -8.348  -0.831 123.604  0.00  0.00    +0.000 A 
ATOM     17  C   UNL     1      -7.413  -1.116 124.617  0.00  0.00    +0.000 A 
BRANCH  16  18
ATOM     18  N   UNL     1      -8.937   0.620 123.554  0.00  0.00    +0.000 NA
ATOM     19  C   UNL     1     -10.100   0.403 122.539  0.00  0.00    +0.000 C 
ATOM     20  C   UNL     1      -7.815   1.663 123.327  0.00  0.00    +0.000 C 
ATOM     21  C   UNL     1      -9.738   1.238 124.719  0.00  0.00    +0.000 C 
ENDBRANCH  16  18
ENDBRANCH  11  12
ENDBRANCH   9  11
ENDBRANCH   6   7
ENDBRANCH   5   6
ENDBRANCH   4   5
ENDBRANCH   3   4
ENDBRANCH   2   3
ENDBRANCH   1   2
BRANCH   1  22
ATOM     22  C   UNL     1      -9.407   2.958 133.220  0.00  0.00    +0.000 C 
BRANCH  22  23
ATOM     23  C   UNL     1      -8.621   4.178 133.684  0.00  0.00    +0.000 C 
BRANCH  23  24
ATOM     24  C   UNL     1      -8.730   5.259 132.635  0.00  0.00    +0.000 C 
BRANCH  24  25
ATOM     25  C   UNL     1      -9.989   5.147 131.781  0.00  0.00    +0.000 C 
BRANCH  25  27
ATOM     26  C   UNL     1     -10.181   7.280 130.401  0.00  0.00    +0.000 C 
ATOM     27  N   UNL     1      -9.902   5.849 130.495  0.00  0.00    +0.000 N 
ATOM     28  C   UNL     1      -9.582   5.212 129.301  0.00  0.00    +0.000 C 
ATOM     29  O   UNL     1      -9.472   5.846 128.239  0.00  0.00    +0.000 OA
BRANCH  28  30
ATOM     30  O   UNL     1      -9.370   3.827 129.384  0.00  0.00    +0.000 OA
BRANCH  30  31
ATOM     31  C   UNL     1      -8.121   3.309 128.941  0.00  0.00    +0.000 A 
ATOM     32  C   UNL     1      -8.106   2.152 128.174  0.00  0.00    +0.000 A 
ATOM     33  C   UNL     1      -6.876   1.584 127.839  0.00  0.00    +0.000 A 
ATOM     34  C   UNL     1      -5.668   2.191 128.231  0.00  0.00    +0.000 A 
ATOM     35  C   UNL     1      -5.659   3.346 129.034  0.00  0.00    +0.000 A 
ATOM     36  C   UNL     1      -6.913   3.871 129.384  0.00  0.00    +0.000 A 
BRANCH  35  37
ATOM     37  N   UNL     1      -4.394   3.824 129.785  0.00  0.00    +0.000 NA
ATOM     38  C   UNL     1      -4.058   2.729 130.787  0.00  0.00    +0.000 C 
ATOM     39  C   UNL     1      -3.170   3.996 128.869  0.00  0.00    +0.000 C 
ATOM     40  C   UNL     1      -4.637   5.089 130.649  0.00  0.00    +0.000 C 
ENDBRANCH  35  37
ENDBRANCH  30  31
ENDBRANCH  28  30
ENDBRANCH  25  27
ENDBRANCH  24  25
ENDBRANCH  23  24
ENDBRANCH  22  23
ENDBRANCH   1  22
TORSDOF 17
ENDMDL
MODEL 4
REMARK VINA RESULT:      -6.8      2.941      7.349
REMARK  Name = Demecarium
REMARK  25 active torsions:
REMARK  status: ('A' for Active; 'I' for Inactive)
REMARK    1  A    between atoms: C_1  and  N_2
REMARK    2  A    between atoms: N_2  and  C_3
REMARK    3  A    between atoms: C_3  and  C_4
REMARK    4  A    between atoms: C_4  and  C_5
REMARK    5  A    between atoms: C_5  and  C_6
REMARK    6  A    between atoms: C_6  and  C_7
REMARK    7  A    between atoms: C_7  and  C_8
REMARK    8  A    between atoms: C_8  and  C_9
REMARK    9  A    between atoms: C_9  and  C_10
REMARK   10  A    between atoms: C_10  and  C_11
REMARK   11  A    between atoms: C_11  and  C_12
REMARK   12  A    between atoms: C_12  and  N_13
REMARK   13  A    between atoms: N_13  and  C_14
REMARK   14  A    between atoms: C_15  and  O_17
REMARK   15  A    between atoms: O_17  and  C_18
REMARK   16  A    between atoms: C_22  and  N_24
REMARK   17  A    between atoms: N_24  and  C_25
REMARK   18  A    between atoms: N_24  and  C_26
REMARK   19  A    between atoms: N_24  and  C_27
REMARK   20  A    between atoms: C_28  and  O_30
REMARK   21  A    between atoms: O_30  and  C_31
REMARK   22  A    between atoms: C_35  and  N_37
REMARK   23  A    between atoms: N_37  and  C_38
REMARK   24  A    between atoms: N_37  and  C_39
REMARK   25  A    between atoms: N_37  and  C_40
REMARK                            x       y       z     vdW  Elec       q    Type
REMARK                         _______ _______ _______ _____ _____    ______ ____
ROOT
ATOM      1  C   UNL     1      -7.505  -1.097 131.964  0.00  0.00    +0.000 C 
ENDROOT
BRANCH   1   2
ATOM      2  C   UNL     1      -7.607  -2.431 131.250  0.00  0.00    +0.000 C 
BRANCH   2   3
ATOM      3  C   UNL     1      -7.309  -2.250 129.776  0.00  0.00    +0.000 C 
BRANCH   3   4
ATOM      4  C   UNL     1      -7.690  -3.510 129.010  0.00  0.00    +0.000 C 
BRANCH   4   5
ATOM      5  C   UNL     1      -8.679  -3.141 127.923  0.00  0.00    +0.000 C 
BRANCH   5   6
ATOM      6  C   UNL     1      -8.410  -3.831 126.589  0.00  0.00    +0.000 C 
BRANCH   6   7
ATOM      7  N   UNL     1      -7.878  -2.950 125.533  0.00  0.00    +0.000 N 
ATOM      8  C   UNL     1      -6.583  -2.303 125.682  0.00  0.00    +0.000 C 
ATOM      9  C   UNL     1      -8.659  -2.726 124.389  0.00  0.00    +0.000 C 
ATOM     10  O   UNL     1      -9.792  -3.150 124.257  0.00  0.00    +0.000 OA
BRANCH   9  11
ATOM     11  O   UNL     1      -8.006  -1.921 123.410  0.00  0.00    +0.000 OA
BRANCH  11  12
ATOM     12  C   UNL     1      -8.427  -0.575 123.204  0.00  0.00    +0.000 A 
ATOM     13  C   UNL     1      -9.693  -0.321 122.681  0.00  0.00    +0.000 A 
ATOM     14  C   UNL     1     -10.101   1.007 122.563  0.00  0.00    +0.000 A 
ATOM     15  C   UNL     1      -9.296   2.046 123.076  0.00  0.00    +0.000 A 
ATOM     16  C   UNL     1      -7.984   1.816 123.575  0.00  0.00    +0.000 A 
ATOM     17  C   UNL     1      -7.548   0.479 123.522  0.00  0.00    +0.000 A 
BRANCH  16  18
ATOM     18  N   UNL     1      -7.389   2.725 124.705  0.00  0.00    +0.000 NA
ATOM     19  C   UNL     1      -6.170   3.333 123.947  0.00  0.00    +0.000 C 
ATOM     20  C   UNL     1      -7.238   1.932 126.028  0.00  0.00    +0.000 C 
ATOM     21  C   UNL     1      -8.066   4.030 125.172  0.00  0.00    +0.000 C 
ENDBRANCH  16  18
ENDBRANCH  11  12
ENDBRANCH   9  11
ENDBRANCH   6   7
ENDBRANCH   5   6
ENDBRANCH   4   5
ENDBRANCH   3   4
ENDBRANCH   2   3
ENDBRANCH   1   2
BRANCH   1  22
ATOM     22  C   UNL     1      -8.367  -0.068 131.262  0.00  0.00    +0.000 C 
BRANCH  22  23
ATOM     23  C   UNL     1      -8.680   1.074 132.220  0.00  0.00    +0.000 C 
BRANCH  23  24
ATOM     24  C   UNL     1      -7.475   1.982 132.311  0.00  0.00    +0.000 C 
BRANCH  24  25
ATOM     25  C   UNL     1      -7.786   3.435 131.966  0.00  0.00    +0.000 C 
BRANCH  25  27
ATOM     26  C   UNL     1      -7.193   2.740 129.588  0.00  0.00    +0.000 C 
ATOM     27  N   UNL     1      -7.629   3.756 130.543  0.00  0.00    +0.000 N 
ATOM     28  C   UNL     1      -7.851   5.026 130.020  0.00  0.00    +0.000 C 
ATOM     29  O   UNL     1      -7.752   5.251 128.803  0.00  0.00    +0.000 OA
BRANCH  28  30
ATOM     30  O   UNL     1      -8.214   6.014 130.949  0.00  0.00    +0.000 OA
BRANCH  30  31
ATOM     31  C   UNL     1      -9.570   6.446 130.976  0.00  0.00    +0.000 A 
ATOM     32  C   UNL     1     -10.376   6.064 132.040  0.00  0.00    +0.000 A 
ATOM     33  C   UNL     1     -11.733   6.391 132.006  0.00  0.00    +0.000 A 
ATOM     34  C   UNL     1     -12.271   7.131 130.937  0.00  0.00    +0.000 A 
ATOM     35  C   UNL     1     -11.482   7.501 129.833  0.00  0.00    +0.000 A 
ATOM     36  C   UNL     1     -10.129   7.125 129.882  0.00  0.00    +0.000 A 
BRANCH  35  37
ATOM     37  N   UNL     1     -12.095   7.974 128.495  0.00  0.00    +0.000 NA
ATOM     38  C   UNL     1     -12.696   9.346 128.767  0.00  0.00    +0.000 C 
ATOM     39  C   UNL     1     -11.054   8.146 127.375  0.00  0.00    +0.000 C 
ATOM     40  C   UNL     1     -13.291   7.105 128.028  0.00  0.00    +0.000 C 
ENDBRANCH  35  37
ENDBRANCH  30  31
ENDBRANCH  28  30
ENDBRANCH  25  27
ENDBRANCH  24  25
ENDBRANCH  23  24
ENDBRANCH  22  23
ENDBRANCH   1  22
TORSDOF 17
ENDMDL
MODEL 5
REMARK VINA RESULT:      -6.7      2.802      8.499
REMARK  Name = Demecarium
REMARK  25 active torsions:
REMARK  status: ('A' for Active; 'I' for Inactive)
REMARK    1  A    between atoms: C_1  and  N_2
REMARK    2  A    between atoms: N_2  and  C_3
REMARK    3  A    between atoms: C_3  and  C_4
REMARK    4  A    between atoms: C_4  and  C_5
REMARK    5  A    between atoms: C_5  and  C_6
REMARK    6  A    between atoms: C_6  and  C_7
REMARK    7  A    between atoms: C_7  and  C_8
REMARK    8  A    between atoms: C_8  and  C_9
REMARK    9  A    between atoms: C_9  and  C_10
REMARK   10  A    between atoms: C_10  and  C_11
REMARK   11  A    between atoms: C_11  and  C_12
REMARK   12  A    between atoms: C_12  and  N_13
REMARK   13  A    between atoms: N_13  and  C_14
REMARK   14  A    between atoms: C_15  and  O_17
REMARK   15  A    between atoms: O_17  and  C_18
REMARK   16  A    between atoms: C_22  and  N_24
REMARK   17  A    between atoms: N_24  and  C_25
REMARK   18  A    between atoms: N_24  and  C_26
REMARK   19  A    between atoms: N_24  and  C_27
REMARK   20  A    between atoms: C_28  and  O_30
REMARK   21  A    between atoms: O_30  and  C_31
REMARK   22  A    between atoms: C_35  and  N_37
REMARK   23  A    between atoms: N_37  and  C_38
REMARK   24  A    between atoms: N_37  and  C_39
REMARK   25  A    between atoms: N_37  and  C_40
REMARK                            x       y       z     vdW  Elec       q    Type
REMARK                         _______ _______ _______ _____ _____    ______ ____
ROOT
ATOM      1  C   UNL     1      -6.538   4.425 134.327  0.00  0.00    +0.000 C 
ENDROOT
BRANCH   1   2
ATOM      2  C   UNL     1      -7.963   4.512 134.838  0.00  0.00    +0.000 C 
BRANCH   2   3
ATOM      3  C   UNL     1      -8.911   3.901 133.827  0.00  0.00    +0.000 C 
BRANCH   3   4
ATOM      4  C   UNL     1      -8.143   2.981 132.886  0.00  0.00    +0.000 C 
BRANCH   4   5
ATOM      5  C   UNL     1      -8.981   1.748 132.616  0.00  0.00    +0.000 C 
BRANCH   5   6
ATOM      6  C   UNL     1      -9.036   1.354 131.143  0.00  0.00    +0.000 C 
BRANCH   6   7
ATOM      7  N   UNL     1      -8.227   0.174 130.788  0.00  0.00    +0.000 N 
ATOM      8  C   UNL     1      -7.931  -0.854 131.775  0.00  0.00    +0.000 C 
ATOM      9  C   UNL     1      -7.724   0.073 129.482  0.00  0.00    +0.000 C 
ATOM     10  O   UNL     1      -7.845   0.950 128.648  0.00  0.00    +0.000 OA
BRANCH   9  11
ATOM     11  O   UNL     1      -7.024  -1.145 129.241  0.00  0.00    +0.000 OA
BRANCH  11  12
ATOM     12  C   UNL     1      -7.514  -2.064 128.268  0.00  0.00    +0.000 A 
ATOM     13  C   UNL     1      -8.393  -3.074 128.654  0.00  0.00    +0.000 A 
ATOM     14  C   UNL     1      -8.912  -3.908 127.666  0.00  0.00    +0.000 A 
ATOM     15  C   UNL     1      -8.644  -3.649 126.305  0.00  0.00    +0.000 A 
ATOM     16  C   UNL     1      -7.718  -2.652 125.888  0.00  0.00    +0.000 A 
ATOM     17  C   UNL     1      -7.091  -1.944 126.929  0.00  0.00    +0.000 A 
BRANCH  16  18
ATOM     18  N   UNL     1      -7.906  -1.910 124.521  0.00  0.00    +0.000 NA
ATOM     19  C   UNL     1      -6.432  -1.899 124.015  0.00  0.00    +0.000 C 
ATOM     20  C   UNL     1      -8.735  -0.615 124.706  0.00  0.00    +0.000 C 
ATOM     21  C   UNL     1      -8.581  -2.567 123.299  0.00  0.00    +0.000 C 
ENDBRANCH  16  18
ENDBRANCH  11  12
ENDBRANCH   9  11
ENDBRANCH   6   7
ENDBRANCH   5   6
ENDBRANCH   4   5
ENDBRANCH   3   4
ENDBRANCH   2   3
ENDBRANCH   1   2
BRANCH   1  22
ATOM     22  C   UNL     1      -5.907   5.802 134.318  0.00  0.00    +0.000 C 
BRANCH  22  23
ATOM     23  C   UNL     1      -5.072   5.973 133.055  0.00  0.00    +0.000 C 
BRANCH  23  24
ATOM     24  C   UNL     1      -5.970   6.431 131.931  0.00  0.00    +0.000 C 
BRANCH  24  25
ATOM     25  C   UNL     1      -5.554   5.890 130.566  0.00  0.00    +0.000 C 
BRANCH  25  27
ATOM     26  C   UNL     1      -6.166   3.948 129.036  0.00  0.00    +0.000 C 
ATOM     27  N   UNL     1      -6.561   5.032 129.933  0.00  0.00    +0.000 N 
ATOM     28  C   UNL     1      -7.929   5.202 130.114  0.00  0.00    +0.000 C 
ATOM     29  O   UNL     1      -8.752   4.428 129.599  0.00  0.00    +0.000 OA
BRANCH  28  30
ATOM     30  O   UNL     1      -8.308   6.279 130.930  0.00  0.00    +0.000 OA
BRANCH  30  31
ATOM     31  C   UNL     1      -9.679   6.663 130.944  0.00  0.00    +0.000 A 
ATOM     32  C   UNL     1     -10.467   6.303 132.028  0.00  0.00    +0.000 A 
ATOM     33  C   UNL     1     -11.835   6.579 131.986  0.00  0.00    +0.000 A 
ATOM     34  C   UNL     1     -12.403   7.249 130.887  0.00  0.00    +0.000 A 
ATOM     35  C   UNL     1     -11.630   7.596 129.764  0.00  0.00    +0.000 A 
ATOM     36  C   UNL     1     -10.265   7.271 129.823  0.00  0.00    +0.000 A 
BRANCH  35  37
ATOM     37  N   UNL     1     -12.264   7.985 128.408  0.00  0.00    +0.000 NA
ATOM     38  C   UNL     1     -13.020   9.283 128.652  0.00  0.00    +0.000 C 
ATOM     39  C   UNL     1     -11.226   8.262 127.306  0.00  0.00    +0.000 C 
ATOM     40  C   UNL     1     -13.346   6.983 127.928  0.00  0.00    +0.000 C 
ENDBRANCH  35  37
ENDBRANCH  30  31
ENDBRANCH  28  30
ENDBRANCH  25  27
ENDBRANCH  24  25
ENDBRANCH  23  24
ENDBRANCH  22  23
ENDBRANCH   1  22
TORSDOF 17
ENDMDL
MODEL 6
REMARK VINA RESULT:      -6.7      2.895      7.047
REMARK  Name = Demecarium
REMARK  25 active torsions:
REMARK  status: ('A' for Active; 'I' for Inactive)
REMARK    1  A    between atoms: C_1  and  N_2
REMARK    2  A    between atoms: N_2  and  C_3
REMARK    3  A    between atoms: C_3  and  C_4
REMARK    4  A    between atoms: C_4  and  C_5
REMARK    5  A    between atoms: C_5  and  C_6
REMARK    6  A    between atoms: C_6  and  C_7
REMARK    7  A    between atoms: C_7  and  C_8
REMARK    8  A    between atoms: C_8  and  C_9
REMARK    9  A    between atoms: C_9  and  C_10
REMARK   10  A    between atoms: C_10  and  C_11
REMARK   11  A    between atoms: C_11  and  C_12
REMARK   12  A    between atoms: C_12  and  N_13
REMARK   13  A    between atoms: N_13  and  C_14
REMARK   14  A    between atoms: C_15  and  O_17
REMARK   15  A    between atoms: O_17  and  C_18
REMARK   16  A    between atoms: C_22  and  N_24
REMARK   17  A    between atoms: N_24  and  C_25
REMARK   18  A    between atoms: N_24  and  C_26
REMARK   19  A    between atoms: N_24  and  C_27
REMARK   20  A    between atoms: C_28  and  O_30
REMARK   21  A    between atoms: O_30  and  C_31
REMARK   22  A    between atoms: C_35  and  N_37
REMARK   23  A    between atoms: N_37  and  C_38
REMARK   24  A    between atoms: N_37  and  C_39
REMARK   25  A    between atoms: N_37  and  C_40
REMARK                            x       y       z     vdW  Elec       q    Type
REMARK                         _______ _______ _______ _____ _____    ______ ____
ROOT
ATOM      1  C   UNL     1      -7.169  -2.426 128.744  0.00  0.00    +0.000 C 
ENDROOT
BRANCH   1   2
ATOM      2  C   UNL     1      -8.435  -3.233 128.962  0.00  0.00    +0.000 C 
BRANCH   2   3
ATOM      3  C   UNL     1      -8.797  -3.974 127.692  0.00  0.00    +0.000 C 
BRANCH   3   4
ATOM      4  C   UNL     1      -8.910  -2.993 126.532  0.00  0.00    +0.000 C 
BRANCH   4   5
ATOM      5  C   UNL     1      -8.506  -3.699 125.254  0.00  0.00    +0.000 C 
BRANCH   5   6
ATOM      6  C   UNL     1      -7.373  -3.005 124.502  0.00  0.00    +0.000 C 
BRANCH   6   7
ATOM      7  N   UNL     1      -7.480  -1.536 124.441  0.00  0.00    +0.000 N 
ATOM      8  C   UNL     1      -8.503  -0.895 123.628  0.00  0.00    +0.000 C 
ATOM      9  C   UNL     1      -6.558  -0.765 125.164  0.00  0.00    +0.000 C 
ATOM     10  O   UNL     1      -5.617  -1.240 125.771  0.00  0.00    +0.000 OA
BRANCH   9  11
ATOM     11  O   UNL     1      -6.811   0.636 125.086  0.00  0.00    +0.000 OA
BRANCH  11  12
ATOM     12  C   UNL     1      -7.123   1.367 126.270  0.00  0.00    +0.000 A 
ATOM     13  C   UNL     1      -8.160   0.935 127.094  0.00  0.00    +0.000 A 
ATOM     14  C   UNL     1      -8.389   1.629 128.281  0.00  0.00    +0.000 A 
ATOM     15  C   UNL     1      -7.511   2.658 128.683  0.00  0.00    +0.000 A 
ATOM     16  C   UNL     1      -6.473   3.144 127.841  0.00  0.00    +0.000 A 
ATOM     17  C   UNL     1      -6.383   2.525 126.580  0.00  0.00    +0.000 A 
BRANCH  16  18
ATOM     18  N   UNL     1      -5.153   3.725 128.455  0.00  0.00    +0.000 NA
ATOM     19  C   UNL     1      -4.458   4.244 127.160  0.00  0.00    +0.000 C 
ATOM     20  C   UNL     1      -4.488   2.698 129.405  0.00  0.00    +0.000 C 
ATOM     21  C   UNL     1      -5.120   5.023 129.289  0.00  0.00    +0.000 C 
ENDBRANCH  16  18
ENDBRANCH  11  12
ENDBRANCH   9  11
ENDBRANCH   6   7
ENDBRANCH   5   6
ENDBRANCH   4   5
ENDBRANCH   3   4
ENDBRANCH   2   3
ENDBRANCH   1   2
BRANCH   1  22
ATOM     22  C   UNL     1      -6.000  -3.108 129.425  0.00  0.00    +0.000 C 
BRANCH  22  23
ATOM     23  C   UNL     1      -6.480  -3.793 130.698  0.00  0.00    +0.000 C 
BRANCH  23  24
ATOM     24  C   UNL     1      -5.279  -4.258 131.487  0.00  0.00    +0.000 C 
BRANCH  24  25
ATOM     25  C   UNL     1      -4.734  -3.199 132.440  0.00  0.00    +0.000 C 
BRANCH  25  27
ATOM     26  C   UNL     1      -5.712  -4.200 134.568  0.00  0.00    +0.000 C 
ATOM     27  N   UNL     1      -5.505  -3.059 133.680  0.00  0.00    +0.000 N 
ATOM     28  C   UNL     1      -6.103  -1.867 134.074  0.00  0.00    +0.000 C 
ATOM     29  O   UNL     1      -6.711  -1.773 135.152  0.00  0.00    +0.000 OA
BRANCH  28  30
ATOM     30  O   UNL     1      -5.952  -0.786 133.190  0.00  0.00    +0.000 OA
BRANCH  30  31
ATOM     31  C   UNL     1      -7.113  -0.048 132.827  0.00  0.00    +0.000 A 
ATOM     32  C   UNL     1      -8.073  -0.653 132.027  0.00  0.00    +0.000 A 
ATOM     33  C   UNL     1      -9.152   0.109 131.578  0.00  0.00    +0.000 A 
ATOM     34  C   UNL     1      -9.294   1.457 131.960  0.00  0.00    +0.000 A 
ATOM     35  C   UNL     1      -8.319   2.100 132.743  0.00  0.00    +0.000 A 
ATOM     36  C   UNL     1      -7.227   1.314 133.148  0.00  0.00    +0.000 A 
BRANCH  35  37
ATOM     37  N   UNL     1      -8.241   3.639 132.872  0.00  0.00    +0.000 NA
ATOM     38  C   UNL     1      -9.251   4.198 131.881  0.00  0.00    +0.000 C 
ATOM     39  C   UNL     1      -8.638   4.154 134.267  0.00  0.00    +0.000 C 
ATOM     40  C   UNL     1      -6.878   4.224 132.419  0.00  0.00    +0.000 C 
ENDBRANCH  35  37
ENDBRANCH  30  31
ENDBRANCH  28  30
ENDBRANCH  25  27
ENDBRANCH  24  25
ENDBRANCH  23  24
ENDBRANCH  22  23
ENDBRANCH   1  22
TORSDOF 17
ENDMDL
MODEL 7
REMARK VINA RESULT:      -6.7      2.415      6.708
REMARK  Name = Demecarium
REMARK  25 active torsions:
REMARK  status: ('A' for Active; 'I' for Inactive)
REMARK    1  A    between atoms: C_1  and  N_2
REMARK    2  A    between atoms: N_2  and  C_3
REMARK    3  A    between atoms: C_3  and  C_4
REMARK    4  A    between atoms: C_4  and  C_5
REMARK    5  A    between atoms: C_5  and  C_6
REMARK    6  A    between atoms: C_6  and  C_7
REMARK    7  A    between atoms: C_7  and  C_8
REMARK    8  A    between atoms: C_8  and  C_9
REMARK    9  A    between atoms: C_9  and  C_10
REMARK   10  A    between atoms: C_10  and  C_11
REMARK   11  A    between atoms: C_11  and  C_12
REMARK   12  A    between atoms: C_12  and  N_13
REMARK   13  A    between atoms: N_13  and  C_14
REMARK   14  A    between atoms: C_15  and  O_17
REMARK   15  A    between atoms: O_17  and  C_18
REMARK   16  A    between atoms: C_22  and  N_24
REMARK   17  A    between atoms: N_24  and  C_25
REMARK   18  A    between atoms: N_24  and  C_26
REMARK   19  A    between atoms: N_24  and  C_27
REMARK   20  A    between atoms: C_28  and  O_30
REMARK   21  A    between atoms: O_30  and  C_31
REMARK   22  A    between atoms: C_35  and  N_37
REMARK   23  A    between atoms: N_37  and  C_38
REMARK   24  A    between atoms: N_37  and  C_39
REMARK   25  A    between atoms: N_37  and  C_40
REMARK                            x       y       z     vdW  Elec       q    Type
REMARK                         _______ _______ _______ _____ _____    ______ ____
ROOT
ATOM      1  C   UNL     1      -7.965  -3.426 128.496  0.00  0.00    +0.000 C 
ENDROOT
BRANCH   1   2
ATOM      2  C   UNL     1      -8.454  -2.557 127.352  0.00  0.00    +0.000 C 
BRANCH   2   3
ATOM      3  C   UNL     1      -8.296  -3.297 126.040  0.00  0.00    +0.000 C 
BRANCH   3   4
ATOM      4  C   UNL     1      -9.524  -3.072 125.166  0.00  0.00    +0.000 C 
BRANCH   4   5
ATOM      5  C   UNL     1      -9.126  -3.238 123.714  0.00  0.00    +0.000 C 
BRANCH   5   6
ATOM      6  C   UNL     1      -9.034  -1.922 122.949  0.00  0.00    +0.000 C 
BRANCH   6   7
ATOM      7  N   UNL     1      -7.843  -1.109 123.258  0.00  0.00    +0.000 N 
ATOM      8  C   UNL     1      -6.519  -1.528 122.822  0.00  0.00    +0.000 C 
ATOM      9  C   UNL     1      -8.008   0.068 124.005  0.00  0.00    +0.000 C 
ATOM     10  O   UNL     1      -9.071   0.411 124.488  0.00  0.00    +0.000 OA
BRANCH   9  11
ATOM     11  O   UNL     1      -6.799   0.803 124.173  0.00  0.00    +0.000 OA
BRANCH  11  12
ATOM     12  C   UNL     1      -6.260   0.993 125.478  0.00  0.00    +0.000 A 
ATOM     13  C   UNL     1      -5.938  -0.114 126.260  0.00  0.00    +0.000 A 
ATOM     14  C   UNL     1      -5.344   0.107 127.501  0.00  0.00    +0.000 A 
ATOM     15  C   UNL     1      -4.973   1.412 127.888  0.00  0.00    +0.000 A 
ATOM     16  C   UNL     1      -5.327   2.561 127.129  0.00  0.00    +0.000 A 
ATOM     17  C   UNL     1      -6.074   2.302 125.964  0.00  0.00    +0.000 A 
BRANCH  16  18
ATOM     18  N   UNL     1      -4.414   3.834 127.133  0.00  0.00    +0.000 NA
ATOM     19  C   UNL     1      -5.244   4.764 126.198  0.00  0.00    +0.000 C 
ATOM     20  C   UNL     1      -2.940   3.456 126.840  0.00  0.00    +0.000 C 
ATOM     21  C   UNL     1      -4.284   4.765 128.356  0.00  0.00    +0.000 C 
ENDBRANCH  16  18
ENDBRANCH  11  12
ENDBRANCH   9  11
ENDBRANCH   6   7
ENDBRANCH   5   6
ENDBRANCH   4   5
ENDBRANCH   3   4
ENDBRANCH   2   3
ENDBRANCH   1   2
BRANCH   1  22
ATOM     22  C   UNL     1      -7.154  -2.592 129.467  0.00  0.00    +0.000 C 
BRANCH  22  23
ATOM     23  C   UNL     1      -7.524  -2.971 130.896  0.00  0.00    +0.000 C 
BRANCH  23  24
ATOM     24  C   UNL     1      -6.366  -2.637 131.806  0.00  0.00    +0.000 C 
BRANCH  24  25
ATOM     25  C   UNL     1      -6.791  -1.930 133.090  0.00  0.00    +0.000 C 
BRANCH  25  27
ATOM     26  C   UNL     1      -4.679  -0.678 133.769  0.00  0.00    +0.000 C 
ATOM     27  N   UNL     1      -6.077  -0.674 133.343  0.00  0.00    +0.000 N 
ATOM     28  C   UNL     1      -6.672   0.577 133.226  0.00  0.00    +0.000 C 
ATOM     29  O   UNL     1      -6.025   1.622 133.404  0.00  0.00    +0.000 OA
BRANCH  28  30
ATOM     30  O   UNL     1      -8.031   0.576 132.873  0.00  0.00    +0.000 OA
BRANCH  30  31
ATOM     31  C   UNL     1      -8.411   1.217 131.659  0.00  0.00    +0.000 A 
ATOM     32  C   UNL     1      -8.012   0.660 130.452  0.00  0.00    +0.000 A 
ATOM     33  C   UNL     1      -8.287   1.350 129.270  0.00  0.00    +0.000 A 
ATOM     34  C   UNL     1      -8.992   2.568 129.292  0.00  0.00    +0.000 A 
ATOM     35  C   UNL     1      -9.379   3.167 130.505  0.00  0.00    +0.000 A 
ATOM     36  C   UNL     1      -9.055   2.464 131.677  0.00  0.00    +0.000 A 
BRANCH  35  37
ATOM     37  N   UNL     1      -9.812   4.648 130.598  0.00  0.00    +0.000 NA
ATOM     38  C   UNL     1      -9.557   5.074 132.036  0.00  0.00    +0.000 C 
ATOM     39  C   UNL     1      -8.990   5.582 129.693  0.00  0.00    +0.000 C 
ATOM     40  C   UNL     1     -11.335   4.855 130.390  0.00  0.00    +0.000 C 
ENDBRANCH  35  37
ENDBRANCH  30  31
ENDBRANCH  28  30
ENDBRANCH  25  27
ENDBRANCH  24  25
ENDBRANCH  23  24
ENDBRANCH  22  23
ENDBRANCH   1  22
TORSDOF 17
ENDMDL
MODEL 8
REMARK VINA RESULT:      -6.7      2.975      5.434
REMARK  Name = Demecarium
REMARK  25 active torsions:
REMARK  status: ('A' for Active; 'I' for Inactive)
REMARK    1  A    between atoms: C_1  and  N_2
REMARK    2  A    between atoms: N_2  and  C_3
REMARK    3  A    between atoms: C_3  and  C_4
REMARK    4  A    between atoms: C_4  and  C_5
REMARK    5  A    between atoms: C_5  and  C_6
REMARK    6  A    between atoms: C_6  and  C_7
REMARK    7  A    between atoms: C_7  and  C_8
REMARK    8  A    between atoms: C_8  and  C_9
REMARK    9  A    between atoms: C_9  and  C_10
REMARK   10  A    between atoms: C_10  and  C_11
REMARK   11  A    between atoms: C_11  and  C_12
REMARK   12  A    between atoms: C_12  and  N_13
REMARK   13  A    between atoms: N_13  and  C_14
REMARK   14  A    between atoms: C_15  and  O_17
REMARK   15  A    between atoms: O_17  and  C_18
REMARK   16  A    between atoms: C_22  and  N_24
REMARK   17  A    between atoms: N_24  and  C_25
REMARK   18  A    between atoms: N_24  and  C_26
REMARK   19  A    between atoms: N_24  and  C_27
REMARK   20  A    between atoms: C_28  and  O_30
REMARK   21  A    between atoms: O_30  and  C_31
REMARK   22  A    between atoms: C_35  and  N_37
REMARK   23  A    between atoms: N_37  and  C_38
REMARK   24  A    between atoms: N_37  and  C_39
REMARK   25  A    between atoms: N_37  and  C_40
REMARK                            x       y       z     vdW  Elec       q    Type
REMARK                         _______ _______ _______ _____ _____    ______ ____
ROOT
ATOM      1  C   UNL     1      -7.767  -3.285 129.833  0.00  0.00    +0.000 C 
ENDROOT
BRANCH   1   2
ATOM      2  C   UNL     1      -6.306  -3.685 129.740  0.00  0.00    +0.000 C 
BRANCH   2   3
ATOM      3  C   UNL     1      -5.864  -4.324 131.040  0.00  0.00    +0.000 C 
BRANCH   3   4
ATOM      4  C   UNL     1      -4.406  -3.982 131.318  0.00  0.00    +0.000 C 
BRANCH   4   5
ATOM      5  C   UNL     1      -3.795  -3.394 130.062  0.00  0.00    +0.000 C 
BRANCH   5   6
ATOM      6  C   UNL     1      -3.029  -2.096 130.302  0.00  0.00    +0.000 C 
BRANCH   6   7
ATOM      7  N   UNL     1      -3.777  -1.064 131.043  0.00  0.00    +0.000 N 
ATOM      8  C   UNL     1      -3.612  -0.910 132.481  0.00  0.00    +0.000 C 
ATOM      9  C   UNL     1      -4.673  -0.247 130.337  0.00  0.00    +0.000 C 
ATOM     10  O   UNL     1      -4.934  -0.401 129.159  0.00  0.00    +0.000 OA
BRANCH   9  11
ATOM     11  O   UNL     1      -5.277   0.758 131.148  0.00  0.00    +0.000 OA
BRANCH  11  12
ATOM     12  C   UNL     1      -6.697   0.826 131.253  0.00  0.00    +0.000 A 
ATOM     13  C   UNL     1      -7.385  -0.170 131.943  0.00  0.00    +0.000 A 
ATOM     14  C   UNL     1      -8.765  -0.033 132.091  0.00  0.00    +0.000 A 
ATOM     15  C   UNL     1      -9.413   1.143 131.659  0.00  0.00    +0.000 A 
ATOM     16  C   UNL     1      -8.740   2.153 130.916  0.00  0.00    +0.000 A 
ATOM     17  C   UNL     1      -7.384   1.895 130.645  0.00  0.00    +0.000 A 
BRANCH  16  18
ATOM     18  N   UNL     1      -9.182   3.653 131.026  0.00  0.00    +0.000 NA
ATOM     19  C   UNL     1     -10.672   3.527 130.589  0.00  0.00    +0.000 C 
ATOM     20  C   UNL     1      -8.174   4.578 130.301  0.00  0.00    +0.000 C 
ATOM     21  C   UNL     1      -9.380   4.369 132.378  0.00  0.00    +0.000 C 
ENDBRANCH  16  18
ENDBRANCH  11  12
ENDBRANCH   9  11
ENDBRANCH   6   7
ENDBRANCH   5   6
ENDBRANCH   4   5
ENDBRANCH   3   4
ENDBRANCH   2   3
ENDBRANCH   1   2
BRANCH   1  22
ATOM     22  C   UNL     1      -8.009  -2.027 129.025  0.00  0.00    +0.000 C 
BRANCH  22  23
ATOM     23  C   UNL     1      -7.675  -2.288 127.562  0.00  0.00    +0.000 C 
BRANCH  23  24
ATOM     24  C   UNL     1      -8.683  -3.259 126.994  0.00  0.00    +0.000 C 
BRANCH  24  25
ATOM     25  C   UNL     1      -9.399  -2.730 125.755  0.00  0.00    +0.000 C 
BRANCH  25  27
ATOM     26  C   UNL     1      -7.537  -3.783 124.374  0.00  0.00    +0.000 C 
ATOM     27  N   UNL     1      -8.593  -2.787 124.531  0.00  0.00    +0.000 N 
ATOM     28  C   UNL     1      -8.756  -1.902 123.471  0.00  0.00    +0.000 C 
ATOM     29  O   UNL     1      -8.086  -2.007 122.431  0.00  0.00    +0.000 OA
BRANCH  28  30
ATOM     30  O   UNL     1      -9.733  -0.909 123.648  0.00  0.00    +0.000 OA
BRANCH  30  31
ATOM     31  C   UNL     1      -9.305   0.445 123.745  0.00  0.00    +0.000 A 
ATOM     32  C   UNL     1      -9.515   1.296 122.668  0.00  0.00    +0.000 A 
ATOM     33  C   UNL     1      -8.993   2.589 122.721  0.00  0.00    +0.000 A 
ATOM     34  C   UNL     1      -8.303   3.043 123.861  0.00  0.00    +0.000 A 
ATOM     35  C   UNL     1      -8.051   2.190 124.951  0.00  0.00    +0.000 A 
ATOM     36  C   UNL     1      -8.558   0.885 124.849  0.00  0.00    +0.000 A 
BRANCH  35  37
ATOM     37  N   UNL     1      -7.000   2.519 126.036  0.00  0.00    +0.000 NA
ATOM     38  C   UNL     1      -7.384   3.880 126.598  0.00  0.00    +0.000 C 
ATOM     39  C   UNL     1      -7.004   1.524 127.210  0.00  0.00    +0.000 C 
ATOM     40  C   UNL     1      -5.571   2.717 125.466  0.00  0.00    +0.000 C 
ENDBRANCH  35  37
ENDBRANCH  30  31
ENDBRANCH  28  30
ENDBRANCH  25  27
ENDBRANCH  24  25
ENDBRANCH  23  24
ENDBRANCH  22  23
ENDBRANCH   1  22
TORSDOF 17
ENDMDL
MODEL 9
REMARK VINA RESULT:      -6.7      2.654      8.699
REMARK  Name = Demecarium
REMARK  25 active torsions:
REMARK  status: ('A' for Active; 'I' for Inactive)
REMARK    1  A    between atoms: C_1  and  N_2
REMARK    2  A    between atoms: N_2  and  C_3
REMARK    3  A    between atoms: C_3  and  C_4
REMARK    4  A    between atoms: C_4  and  C_5
REMARK    5  A    between atoms: C_5  and  C_6
REMARK    6  A    between atoms: C_6  and  C_7
REMARK    7  A    between atoms: C_7  and  C_8
REMARK    8  A    between atoms: C_8  and  C_9
REMARK    9  A    between atoms: C_9  and  C_10
REMARK   10  A    between atoms: C_10  and  C_11
REMARK   11  A    between atoms: C_11  and  C_12
REMARK   12  A    between atoms: C_12  and  N_13
REMARK   13  A    between atoms: N_13  and  C_14
REMARK   14  A    between atoms: C_15  and  O_17
REMARK   15  A    between atoms: O_17  and  C_18
REMARK   16  A    between atoms: C_22  and  N_24
REMARK   17  A    between atoms: N_24  and  C_25
REMARK   18  A    between atoms: N_24  and  C_26
REMARK   19  A    between atoms: N_24  and  C_27
REMARK   20  A    between atoms: C_28  and  O_30
REMARK   21  A    between atoms: O_30  and  C_31
REMARK   22  A    between atoms: C_35  and  N_37
REMARK   23  A    between atoms: N_37  and  C_38
REMARK   24  A    between atoms: N_37  and  C_39
REMARK   25  A    between atoms: N_37  and  C_40
REMARK                            x       y       z     vdW  Elec       q    Type
REMARK                         _______ _______ _______ _____ _____    ______ ____
ROOT
ATOM      1  C   UNL     1      -8.595  -0.246 131.170  0.00  0.00    +0.000 C 
ENDROOT
BRANCH   1   2
ATOM      2  C   UNL     1      -8.463   1.230 130.841  0.00  0.00    +0.000 C 
BRANCH   2   3
ATOM      3  C   UNL     1      -8.407   2.038 132.121  0.00  0.00    +0.000 C 
BRANCH   3   4
ATOM      4  C   UNL     1      -9.537   3.060 132.139  0.00  0.00    +0.000 C 
BRANCH   4   5
ATOM      5  C   UNL     1     -10.272   2.998 130.816  0.00  0.00    +0.000 C 
BRANCH   5   6
ATOM      6  C   UNL     1     -10.847   4.340 130.370  0.00  0.00    +0.000 C 
BRANCH   6   7
ATOM      7  N   UNL     1     -10.068   5.518 130.794  0.00  0.00    +0.000 N 
ATOM      8  C   UNL     1     -10.504   6.338 131.915  0.00  0.00    +0.000 C 
ATOM      9  C   UNL     1      -8.909   5.849 130.078  0.00  0.00    +0.000 C 
ATOM     10  O   UNL     1      -8.555   5.269 129.069  0.00  0.00    +0.000 OA
BRANCH   9  11
ATOM     11  O   UNL     1      -8.204   6.959 130.628  0.00  0.00    +0.000 OA
BRANCH  11  12
ATOM     12  C   UNL     1      -6.967   6.749 131.306  0.00  0.00    +0.000 A 
ATOM     13  C   UNL     1      -6.953   6.060 132.517  0.00  0.00    +0.000 A 
ATOM     14  C   UNL     1      -5.720   5.806 133.114  0.00  0.00    +0.000 A 
ATOM     15  C   UNL     1      -4.524   6.134 132.442  0.00  0.00    +0.000 A 
ATOM     16  C   UNL     1      -4.512   6.874 131.227  0.00  0.00    +0.000 A 
ATOM     17  C   UNL     1      -5.778   7.254 130.744  0.00  0.00    +0.000 A 
BRANCH  16  18
ATOM     18  N   UNL     1      -3.372   6.660 130.173  0.00  0.00    +0.000 NA
ATOM     19  C   UNL     1      -2.125   6.755 131.102  0.00  0.00    +0.000 C 
ATOM     20  C   UNL     1      -3.574   7.587 128.948  0.00  0.00    +0.000 C 
ATOM     21  C   UNL     1      -3.087   5.294 129.515  0.00  0.00    +0.000 C 
ENDBRANCH  16  18
ENDBRANCH  11  12
ENDBRANCH   9  11
ENDBRANCH   6   7
ENDBRANCH   5   6
ENDBRANCH   4   5
ENDBRANCH   3   4
ENDBRANCH   2   3
ENDBRANCH   1   2
BRANCH   1  22
ATOM     22  C   UNL     1      -7.664  -0.605 132.310  0.00  0.00    +0.000 C 
BRANCH  22  23
ATOM     23  C   UNL     1      -8.068  -1.954 132.891  0.00  0.00    +0.000 C 
BRANCH  23  24
ATOM     24  C   UNL     1      -6.859  -2.859 132.915  0.00  0.00    +0.000 C 
BRANCH  24  25
ATOM     25  C   UNL     1      -5.598  -2.197 132.368  0.00  0.00    +0.000 C 
BRANCH  25  27
ATOM     26  C   UNL     1      -3.852  -4.015 131.999  0.00  0.00    +0.000 C 
ATOM     27  N   UNL     1      -4.816  -3.054 131.469  0.00  0.00    +0.000 N 
ATOM     28  C   UNL     1      -4.916  -2.995 130.084  0.00  0.00    +0.000 C 
ATOM     29  O   UNL     1      -4.273  -3.767 129.355  0.00  0.00    +0.000 OA
BRANCH  28  30
ATOM     30  O   UNL     1      -5.801  -2.031 129.576  0.00  0.00    +0.000 OA
BRANCH  30  31
ATOM     31  C   UNL     1      -6.869  -2.471 128.743  0.00  0.00    +0.000 A 
ATOM     32  C   UNL     1      -7.845  -3.298 129.281  0.00  0.00    +0.000 A 
ATOM     33  C   UNL     1      -8.824  -3.821 128.435  0.00  0.00    +0.000 A 
ATOM     34  C   UNL     1      -8.853  -3.484 127.069  0.00  0.00    +0.000 A 
ATOM     35  C   UNL     1      -7.858  -2.673 126.495  0.00  0.00    +0.000 A 
ATOM     36  C   UNL     1      -6.866  -2.194 127.366  0.00  0.00    +0.000 A 
BRANCH  35  37
ATOM     37  N   UNL     1      -7.639  -2.584 124.967  0.00  0.00    +0.000 NA
ATOM     38  C   UNL     1      -7.932  -1.142 124.581  0.00  0.00    +0.000 C 
ATOM     39  C   UNL     1      -6.192  -2.885 124.539  0.00  0.00    +0.000 C 
ATOM     40  C   UNL     1      -8.656  -3.425 124.152  0.00  0.00    +0.000 C 
ENDBRANCH  35  37
ENDBRANCH  30  31
ENDBRANCH  28  30
ENDBRANCH  25  27
ENDBRANCH  24  25
ENDBRANCH  23  24
ENDBRANCH  22  23
ENDBRANCH   1  22
TORSDOF 17
ENDMDL
