MODEL 1
REMARK VINA RESULT:      -8.3      0.000      0.000
REMARK  Name = Demeclocycline
REMARK  9 active torsions:
REMARK  status: ('A' for Active; 'I' for Inactive)
REMARK    1  A    between atoms: C_6  and  N_7
REMARK    2  A    between atoms: N_7  and  C_8
REMARK    3  A    between atoms: N_7  and  C_9
REMARK    4  A    between atoms: C_10  and  O_11
REMARK    5  A    between atoms: C_12  and  C_13
REMARK    6  A    between atoms: C_18  and  O_19
REMARK    7  A    between atoms: C_20  and  O_21
REMARK    8  A    between atoms: C_27  and  O_28
REMARK    9  A    between atoms: C_33  and  O_34
REMARK                            x       y       z     vdW  Elec       q    Type
REMARK                         _______ _______ _______ _____ _____    ______ ____
ROOT
ATOM      1  C   UNL     1      -7.374   0.790 126.520  0.00  0.00    +0.000 C 
ATOM      2  C   UNL     1      -7.774   1.971 127.391  0.00  0.00    +0.000 C 
ATOM      3  C   UNL     1      -6.865   3.144 127.055  0.00  0.00    +0.000 C 
ATOM      4  C   UNL     1      -5.468   2.877 127.609  0.00  0.00    +0.000 C 
ATOM      5  C   UNL     1      -4.621   4.120 127.393  0.00  0.00    +0.000 C 
ATOM      6  C   UNL     1      -4.127   3.893 126.191  0.00  0.00    +0.000 C 
ATOM      7  C   UNL     1      -5.705   4.494 125.784  0.00  0.00    +0.000 C 
ATOM      8  O   UNL     1      -6.198   5.649 125.859  0.00  0.00    +0.000 OA
ATOM      9  C   UNL     1      -6.815   3.521 125.449  0.00  0.00    +0.000 C 
ATOM     10  C   UNL     1      -7.299   2.383 124.612  0.00  0.00    +0.000 C 
ATOM     11  C   UNL     1      -7.432   1.147 125.078  0.00  0.00    +0.000 C 
ATOM     12  C   UNL     1      -7.292   0.012 124.118  0.00  0.00    +0.000 C 
ATOM     13  O   UNL     1      -6.569   0.102 123.182  0.00  0.00    +0.000 OA
ATOM     14  C   UNL     1      -7.826  -1.299 124.609  0.00  0.00    +0.000 A 
ATOM     15  C   UNL     1      -8.153  -1.511 125.974  0.00  0.00    +0.000 A 
ATOM     16  C   UNL     1      -8.288  -0.345 126.905  0.00  0.00    +0.000 C 
ATOM     17  C   UNL     1      -8.415  -2.811 126.410  0.00  0.00    +0.000 A 
ATOM     18 CL   UNL     1      -8.806  -3.232 128.044  0.00  0.00    +0.000 Cl
ATOM     19  C   UNL     1      -8.340  -3.865 125.512  0.00  0.00    +0.000 A 
ATOM     20  C   UNL     1      -8.077  -3.641 124.161  0.00  0.00    +0.000 A 
ATOM     21  C   UNL     1      -7.840  -2.356 123.701  0.00  0.00    +0.000 A 
ENDROOT
BRANCH   6  22
ATOM     22  C   UNL     1      -2.583   3.971 126.746  0.00  0.00    +0.000 C 
ATOM     23  N   UNL     1      -1.418   3.321 126.189  0.00  0.00    +0.000 N 
ATOM     24  O   UNL     1      -2.263   4.689 127.694  0.00  0.00    +0.000 OA
ATOM     25  H   UNL     1      -0.525   3.484 126.666  0.00  0.00    +0.000 HD
ATOM     26  H   UNL     1      -1.153   2.703 125.426  0.00  0.00    +0.000 HD
ENDBRANCH   6  22
BRANCH   4  27
ATOM     27  N   UNL     1      -5.361   2.394 128.974  0.00  0.00    +0.000 NA
ATOM     28  C   UNL     1      -5.500   3.561 129.857  0.00  0.00    +0.000 C 
ATOM     29  C   UNL     1      -4.054   1.780 129.157  0.00  0.00    +0.000 C 
ENDBRANCH   4  27
BRANCH   5  30
ATOM     30  O   UNL     1      -5.063   5.425 127.823  0.00  0.00    +0.000 OA
ATOM     31  H   UNL     1      -4.327   6.037 128.119  0.00  0.00    +0.000 HD
ENDBRANCH   5  30
BRANCH   9  32
ATOM     32  O   UNL     1      -5.751   3.964 124.282  0.00  0.00    +0.000 OA
ATOM     33  H   UNL     1      -5.774   3.439 123.414  0.00  0.00    +0.000 HD
ENDBRANCH   9  32
BRANCH  10  34
ATOM     34  O   UNL     1      -7.570   2.704 123.284  0.00  0.00    +0.000 OA
ATOM     35  H   UNL     1      -6.706   2.921 122.883  0.00  0.00    +0.000 HD
ENDBRANCH  10  34
BRANCH  16  36
ATOM     36  O   UNL     1      -7.903  -0.646 128.245  0.00  0.00    +0.000 OA
ATOM     37  H   UNL     1      -8.433  -1.406 128.543  0.00  0.00    +0.000 HD
ENDBRANCH  16  36
BRANCH  21  38
ATOM     38  O   UNL     1      -7.640  -2.125 122.374  0.00  0.00    +0.000 OA
ATOM     39  H   UNL     1      -7.062  -1.368 122.214  0.00  0.00    +0.000 HD
ENDBRANCH  21  38
TORSDOF 7
ENDMDL
MODEL 2
REMARK VINA RESULT:      -7.9      5.681      8.561
REMARK  Name = Demeclocycline
REMARK  9 active torsions:
REMARK  status: ('A' for Active; 'I' for Inactive)
REMARK    1  A    between atoms: C_6  and  N_7
REMARK    2  A    between atoms: N_7  and  C_8
REMARK    3  A    between atoms: N_7  and  C_9
REMARK    4  A    between atoms: C_10  and  O_11
REMARK    5  A    between atoms: C_12  and  C_13
REMARK    6  A    between atoms: C_18  and  O_19
REMARK    7  A    between atoms: C_20  and  O_21
REMARK    8  A    between atoms: C_27  and  O_28
REMARK    9  A    between atoms: C_33  and  O_34
REMARK                            x       y       z     vdW  Elec       q    Type
REMARK                         _______ _______ _______ _____ _____    ______ ____
ROOT
ATOM      1  C   UNL     1      -9.105   5.412 129.805  0.00  0.00    +0.000 C 
ATOM      2  C   UNL     1      -8.355   4.147 129.414  0.00  0.00    +0.000 C 
ATOM      3  C   UNL     1      -7.342   3.833 130.504  0.00  0.00    +0.000 C 
ATOM      4  C   UNL     1      -6.198   4.841 130.439  0.00  0.00    +0.000 C 
ATOM      5  C   UNL     1      -5.131   4.420 131.436  0.00  0.00    +0.000 C 
ATOM      6  C   UNL     1      -5.538   5.037 132.529  0.00  0.00    +0.000 C 
ATOM      7  C   UNL     1      -6.571   3.641 132.542  0.00  0.00    +0.000 C 
ATOM      8  O   UNL     1      -6.325   2.429 132.772  0.00  0.00    +0.000 OA
ATOM      9  C   UNL     1      -7.988   3.751 132.021  0.00  0.00    +0.000 C 
ATOM     10  C   UNL     1      -9.315   4.433 132.081  0.00  0.00    +0.000 C 
ATOM     11  C   UNL     1      -9.747   5.260 131.137  0.00  0.00    +0.000 C 
ATOM     12  C   UNL     1     -10.703   6.338 131.528  0.00  0.00    +0.000 C 
ATOM     13  O   UNL     1     -10.656   6.819 132.611  0.00  0.00    +0.000 OA
ATOM     14  C   UNL     1     -11.437   6.975 130.387  0.00  0.00    +0.000 A 
ATOM     15  C   UNL     1     -11.035   6.784 129.039  0.00  0.00    +0.000 A 
ATOM     16  C   UNL     1     -10.076   5.688 128.687  0.00  0.00    +0.000 C 
ATOM     17  C   UNL     1     -11.603   7.586 128.047  0.00  0.00    +0.000 A 
ATOM     18 CL   UNL     1     -11.202   7.489 126.366  0.00  0.00    +0.000 Cl
ATOM     19  C   UNL     1     -12.533   8.554 128.395  0.00  0.00    +0.000 A 
ATOM     20  C   UNL     1     -12.967   8.694 129.714  0.00  0.00    +0.000 A 
ATOM     21  C   UNL     1     -12.436   7.890 130.710  0.00  0.00    +0.000 A 
ENDROOT
BRANCH   6  22
ATOM     22  C   UNL     1      -4.126   5.867 132.657  0.00  0.00    +0.000 C 
ATOM     23  N   UNL     1      -2.792   5.317 132.746  0.00  0.00    +0.000 N 
ATOM     24  O   UNL     1      -4.083   7.097 132.612  0.00  0.00    +0.000 OA
ATOM     25  H   UNL     1      -2.020   5.988 132.818  0.00  0.00    +0.000 HD
ATOM     26  H   UNL     1      -2.312   4.420 132.768  0.00  0.00    +0.000 HD
ENDBRANCH   6  22
BRANCH   4  27
ATOM     27  N   UNL     1      -5.623   5.130 129.138  0.00  0.00    +0.000 NA
ATOM     28  C   UNL     1      -5.252   3.842 128.535  0.00  0.00    +0.000 C 
ATOM     29  C   UNL     1      -4.439   5.957 129.317  0.00  0.00    +0.000 C 
ENDBRANCH   4  27
BRANCH   5  30
ATOM     30  O   UNL     1      -4.588   3.083 131.449  0.00  0.00    +0.000 OA
ATOM     31  H   UNL     1      -5.266   2.356 131.324  0.00  0.00    +0.000 HD
ENDBRANCH   5  30
BRANCH   9  32
ATOM     32  O   UNL     1      -7.659   4.193 133.566  0.00  0.00    +0.000 OA
ATOM     33  H   UNL     1      -8.356   4.757 134.042  0.00  0.00    +0.000 HD
ENDBRANCH   9  32
BRANCH  10  34
ATOM     34  O   UNL     1     -10.062   4.164 133.225  0.00  0.00    +0.000 OA
ATOM     35  H   UNL     1     -10.996   4.168 132.940  0.00  0.00    +0.000 HD
ENDBRANCH  10  34
BRANCH  16  36
ATOM     36  O   UNL     1      -9.234   6.010 127.582  0.00  0.00    +0.000 OA
ATOM     37  H   UNL     1      -8.789   5.191 127.298  0.00  0.00    +0.000 HD
ENDBRANCH  16  36
BRANCH  21  38
ATOM     38  O   UNL     1     -12.897   7.984 131.988  0.00  0.00    +0.000 OA
ATOM     39  H   UNL     1     -12.181   8.020 132.637  0.00  0.00    +0.000 HD
ENDBRANCH  21  38
TORSDOF 7
ENDMDL
MODEL 3
REMARK VINA RESULT:      -7.8      2.975      6.616
REMARK  Name = Demeclocycline
REMARK  9 active torsions:
REMARK  status: ('A' for Active; 'I' for Inactive)
REMARK    1  A    between atoms: C_6  and  N_7
REMARK    2  A    between atoms: N_7  and  C_8
REMARK    3  A    between atoms: N_7  and  C_9
REMARK    4  A    between atoms: C_10  and  O_11
REMARK    5  A    between atoms: C_12  and  C_13
REMARK    6  A    between atoms: C_18  and  O_19
REMARK    7  A    between atoms: C_20  and  O_21
REMARK    8  A    between atoms: C_27  and  O_28
REMARK    9  A    between atoms: C_33  and  O_34
REMARK                            x       y       z     vdW  Elec       q    Type
REMARK                         _______ _______ _______ _____ _____    ______ ____
ROOT
ATOM      1  C   UNL     1      -6.927   2.537 127.429  0.00  0.00    +0.000 C 
ATOM      2  C   UNL     1      -5.853   1.853 126.596  0.00  0.00    +0.000 C 
ATOM      3  C   UNL     1      -6.331   1.794 125.153  0.00  0.00    +0.000 C 
ATOM      4  C   UNL     1      -7.448   0.761 125.030  0.00  0.00    +0.000 C 
ATOM      5  C   UNL     1      -7.805   0.614 123.561  0.00  0.00    +0.000 C 
ATOM      6  C   UNL     1      -8.729   1.547 123.422  0.00  0.00    +0.000 C 
ATOM      7  C   UNL     1      -7.283   2.503 123.316  0.00  0.00    +0.000 C 
ATOM      8  O   UNL     1      -6.411   2.592 122.413  0.00  0.00    +0.000 OA
ATOM      9  C   UNL     1      -6.788   3.254 124.534  0.00  0.00    +0.000 C 
ATOM     10  C   UNL     1      -7.069   4.238 125.622  0.00  0.00    +0.000 C 
ATOM     11  C   UNL     1      -7.242   3.886 126.890  0.00  0.00    +0.000 C 
ATOM     12  C   UNL     1      -8.103   4.748 127.751  0.00  0.00    +0.000 C 
ATOM     13  O   UNL     1      -9.019   5.340 127.283  0.00  0.00    +0.000 OA
ATOM     14  C   UNL     1      -7.948   4.525 129.224  0.00  0.00    +0.000 A 
ATOM     15  C   UNL     1      -7.272   3.388 129.742  0.00  0.00    +0.000 A 
ATOM     16  C   UNL     1      -6.414   2.550 128.846  0.00  0.00    +0.000 C 
ATOM     17  C   UNL     1      -7.366   3.114 131.108  0.00  0.00    +0.000 A 
ATOM     18 CL   UNL     1      -6.620   1.758 131.884  0.00  0.00    +0.000 Cl
ATOM     19  C   UNL     1      -8.122   3.942 131.925  0.00  0.00    +0.000 A 
ATOM     20  C   UNL     1      -8.733   5.089 131.419  0.00  0.00    +0.000 A 
ATOM     21  C   UNL     1      -8.629   5.396 130.071  0.00  0.00    +0.000 A 
ENDROOT
BRANCH   6  22
ATOM     22  C   UNL     1      -9.848   0.450 122.931  0.00  0.00    +0.000 C 
ATOM     23  N   UNL     1      -9.624  -0.938 122.592  0.00  0.00    +0.000 N 
ATOM     24  O   UNL     1     -11.049   0.717 122.877  0.00  0.00    +0.000 OA
ATOM     25  H   UNL     1     -10.445  -1.482 122.307  0.00  0.00    +0.000 HD
ATOM     26  H   UNL     1      -8.871  -1.620 122.531  0.00  0.00    +0.000 HD
ENDBRANCH   6  22
BRANCH   4  27
ATOM     27  N   UNL     1      -7.247  -0.531 125.659  0.00  0.00    +0.000 NA
ATOM     28  C   UNL     1      -6.662  -1.419 124.644  0.00  0.00    +0.000 C 
ATOM     29  C   UNL     1      -8.535  -1.051 126.095  0.00  0.00    +0.000 C 
ENDBRANCH   4  27
BRANCH   5  30
ATOM     30  O   UNL     1      -6.803   0.352 122.557  0.00  0.00    +0.000 OA
ATOM     31  H   UNL     1      -5.892   0.709 122.773  0.00  0.00    +0.000 HD
ENDBRANCH   5  30
BRANCH   9  32
ATOM     32  O   UNL     1      -7.950   3.924 123.589  0.00  0.00    +0.000 OA
ATOM     33  H   UNL     1      -7.638   4.491 122.807  0.00  0.00    +0.000 HD
ENDBRANCH   9  32
BRANCH  10  34
ATOM     34  O   UNL     1      -7.173   5.562 125.203  0.00  0.00    +0.000 OA
ATOM     35  H   UNL     1      -7.288   5.525 124.233  0.00  0.00    +0.000 HD
ENDBRANCH  10  34
BRANCH  16  36
ATOM     36  O   UNL     1      -6.396   1.172 129.210  0.00  0.00    +0.000 OA
ATOM     37  H   UNL     1      -7.277   0.944 129.556  0.00  0.00    +0.000 HD
ENDBRANCH  16  36
BRANCH  21  38
ATOM     38  O   UNL     1      -9.175   6.545 129.583  0.00  0.00    +0.000 OA
ATOM     39  H   UNL     1      -9.403   7.170 130.283  0.00  0.00    +0.000 HD
ENDBRANCH  21  38
TORSDOF 7
ENDMDL
MODEL 4
REMARK VINA RESULT:      -7.8      3.221      5.987
REMARK  Name = Demeclocycline
REMARK  9 active torsions:
REMARK  status: ('A' for Active; 'I' for Inactive)
REMARK    1  A    between atoms: C_6  and  N_7
REMARK    2  A    between atoms: N_7  and  C_8
REMARK    3  A    between atoms: N_7  and  C_9
REMARK    4  A    between atoms: C_10  and  O_11
REMARK    5  A    between atoms: C_12  and  C_13
REMARK    6  A    between atoms: C_18  and  O_19
REMARK    7  A    between atoms: C_20  and  O_21
REMARK    8  A    between atoms: C_27  and  O_28
REMARK    9  A    between atoms: C_33  and  O_34
REMARK                            x       y       z     vdW  Elec       q    Type
REMARK                         _______ _______ _______ _____ _____    ______ ____
ROOT
ATOM      1  C   UNL     1      -6.676   0.269 126.335  0.00  0.00    +0.000 C 
ATOM      2  C   UNL     1      -5.447  -0.313 127.018  0.00  0.00    +0.000 C 
ATOM      3  C   UNL     1      -5.904  -1.104 128.234  0.00  0.00    +0.000 C 
ATOM      4  C   UNL     1      -6.369  -0.138 129.321  0.00  0.00    +0.000 C 
ATOM      5  C   UNL     1      -6.678  -0.940 130.574  0.00  0.00    +0.000 C 
ATOM      6  C   UNL     1      -7.947  -1.245 130.381  0.00  0.00    +0.000 C 
ATOM      7  C   UNL     1      -7.171  -2.451 129.401  0.00  0.00    +0.000 C 
ATOM      8  O   UNL     1      -6.503  -3.471 129.713  0.00  0.00    +0.000 OA
ATOM      9  C   UNL     1      -7.053  -2.242 127.906  0.00  0.00    +0.000 C 
ATOM     10  C   UNL     1      -7.730  -1.967 126.604  0.00  0.00    +0.000 C 
ATOM     11  C   UNL     1      -7.643  -0.801 125.975  0.00  0.00    +0.000 C 
ATOM     12  C   UNL     1      -8.775  -0.389 125.094  0.00  0.00    +0.000 C 
ATOM     13  O   UNL     1      -9.885  -0.722 125.346  0.00  0.00    +0.000 OA
ATOM     14  C   UNL     1      -8.457   0.717 124.134  0.00  0.00    +0.000 A 
ATOM     15  C   UNL     1      -7.284   1.506 124.263  0.00  0.00    +0.000 A 
ATOM     16  C   UNL     1      -6.168   1.055 125.154  0.00  0.00    +0.000 C 
ATOM     17  C   UNL     1      -7.162   2.663 123.490  0.00  0.00    +0.000 A 
ATOM     18 CL   UNL     1      -5.806   3.738 123.550  0.00  0.00    +0.000 Cl
ATOM     19  C   UNL     1      -8.188   3.025 122.629  0.00  0.00    +0.000 A 
ATOM     20  C   UNL     1      -9.310   2.213 122.465  0.00  0.00    +0.000 A 
ATOM     21  C   UNL     1      -9.438   1.046 123.201  0.00  0.00    +0.000 A 
ENDROOT
BRANCH   6  22
ATOM     22  C   UNL     1      -8.400  -0.499 131.772  0.00  0.00    +0.000 C 
ATOM     23  N   UNL     1      -9.325   0.603 131.914  0.00  0.00    +0.000 N 
ATOM     24  O   UNL     1      -8.020  -0.887 132.878  0.00  0.00    +0.000 OA
ATOM     25  H   UNL     1      -9.495   0.944 132.866  0.00  0.00    +0.000 HD
ATOM     26  H   UNL     1      -9.915   1.211 131.351  0.00  0.00    +0.000 HD
ENDBRANCH   6  22
BRANCH   4  27
ATOM     27  N   UNL     1      -5.524   1.004 129.618  0.00  0.00    +0.000 NA
ATOM     28  C   UNL     1      -4.990   0.806 130.973  0.00  0.00    +0.000 C 
ATOM     29  C   UNL     1      -6.332   2.215 129.571  0.00  0.00    +0.000 C 
ENDBRANCH   4  27
BRANCH   5  30
ATOM     30  O   UNL     1      -5.727  -1.869 131.137  0.00  0.00    +0.000 OA
ATOM     31  H   UNL     1      -6.028  -2.312 131.983  0.00  0.00    +0.000 HD
ENDBRANCH   5  30
BRANCH   9  32
ATOM     32  O   UNL     1      -8.439  -2.861 128.528  0.00  0.00    +0.000 OA
ATOM     33  H   UNL     1      -8.348  -3.491 129.319  0.00  0.00    +0.000 HD
ENDBRANCH   9  32
BRANCH  10  34
ATOM     34  O   UNL     1      -8.496  -3.018 126.107  0.00  0.00    +0.000 OA
ATOM     35  H   UNL     1      -9.388  -2.649 125.958  0.00  0.00    +0.000 HD
ENDBRANCH  10  34
BRANCH  16  36
ATOM     36  O   UNL     1      -5.453   2.135 125.752  0.00  0.00    +0.000 OA
ATOM     37  H   UNL     1      -4.636   2.270 125.241  0.00  0.00    +0.000 HD
ENDBRANCH  16  36
BRANCH  21  38
ATOM     38  O   UNL     1     -10.504   0.221 123.002  0.00  0.00    +0.000 OA
ATOM     39  H   UNL     1     -11.055   0.134 123.791  0.00  0.00    +0.000 HD
ENDBRANCH  21  38
TORSDOF 7
ENDMDL
MODEL 5
REMARK VINA RESULT:      -7.6      3.526      6.077
REMARK  Name = Demeclocycline
REMARK  9 active torsions:
REMARK  status: ('A' for Active; 'I' for Inactive)
REMARK    1  A    between atoms: C_6  and  N_7
REMARK    2  A    between atoms: N_7  and  C_8
REMARK    3  A    between atoms: N_7  and  C_9
REMARK    4  A    between atoms: C_10  and  O_11
REMARK    5  A    between atoms: C_12  and  C_13
REMARK    6  A    between atoms: C_18  and  O_19
REMARK    7  A    between atoms: C_20  and  O_21
REMARK    8  A    between atoms: C_27  and  O_28
REMARK    9  A    between atoms: C_33  and  O_34
REMARK                            x       y       z     vdW  Elec       q    Type
REMARK                         _______ _______ _______ _____ _____    ______ ____
ROOT
ATOM      1  C   UNL     1      -6.703  -0.399 127.922  0.00  0.00    +0.000 C 
ATOM      2  C   UNL     1      -5.780  -0.162 126.735  0.00  0.00    +0.000 C 
ATOM      3  C   UNL     1      -6.461   0.812 125.786  0.00  0.00    +0.000 C 
ATOM      4  C   UNL     1      -7.615   0.107 125.078  0.00  0.00    +0.000 C 
ATOM      5  C   UNL     1      -8.182   1.050 124.031  0.00  0.00    +0.000 C 
ATOM      6  C   UNL     1      -9.088   1.705 124.733  0.00  0.00    +0.000 C 
ATOM      7  C   UNL     1      -7.645   2.554 125.194  0.00  0.00    +0.000 C 
ATOM      8  O   UNL     1      -6.908   3.348 124.553  0.00  0.00    +0.000 OA
ATOM      9  C   UNL     1      -6.958   2.214 126.500  0.00  0.00    +0.000 C 
ATOM     10  C   UNL     1      -7.051   2.062 127.983  0.00  0.00    +0.000 C 
ATOM     11  C   UNL     1      -7.051   0.882 128.591  0.00  0.00    +0.000 C 
ATOM     12  C   UNL     1      -7.755   0.764 129.902  0.00  0.00    +0.000 C 
ATOM     13  O   UNL     1      -8.709   1.429 130.133  0.00  0.00    +0.000 OA
ATOM     14  C   UNL     1      -7.397  -0.451 130.703  0.00  0.00    +0.000 A 
ATOM     15  C   UNL     1      -6.689  -1.542 130.133  0.00  0.00    +0.000 A 
ATOM     16  C   UNL     1      -5.993  -1.381 128.816  0.00  0.00    +0.000 C 
ATOM     17  C   UNL     1      -6.595  -2.734 130.854  0.00  0.00    +0.000 A 
ATOM     18 CL   UNL     1      -5.786  -4.156 130.286  0.00  0.00    +0.000 Cl
ATOM     19  C   UNL     1      -7.201  -2.834 132.097  0.00  0.00    +0.000 A 
ATOM     20  C   UNL     1      -7.843  -1.739 132.675  0.00  0.00    +0.000 A 
ATOM     21  C   UNL     1      -7.924  -0.538 131.989  0.00  0.00    +0.000 A 
ENDROOT
BRANCH   6  22
ATOM     22  C   UNL     1     -10.298   1.226 123.732  0.00  0.00    +0.000 C 
ATOM     23  N   UNL     1     -10.169   0.699 122.392  0.00  0.00    +0.000 N 
ATOM     24  O   UNL     1     -11.477   1.209 124.089  0.00  0.00    +0.000 OA
ATOM     25  H   UNL     1     -11.037   0.445 121.909  0.00  0.00    +0.000 HD
ATOM     26  H   UNL     1      -9.456   0.475 121.701  0.00  0.00    +0.000 HD
ENDBRANCH   6  22
BRANCH   4  27
ATOM     27  N   UNL     1      -7.365  -1.211 124.523  0.00  0.00    +0.000 NA
ATOM     28  C   UNL     1      -6.870  -1.016 123.153  0.00  0.00    +0.000 C 
ATOM     29  C   UNL     1      -8.613  -1.960 124.503  0.00  0.00    +0.000 C 
ENDBRANCH   4  27
BRANCH   5  30
ATOM     30  O   UNL     1      -7.342   1.692 123.049  0.00  0.00    +0.000 OA
ATOM     31  H   UNL     1      -7.169   2.664 123.219  0.00  0.00    +0.000 HD
ENDBRANCH   5  30
BRANCH   9  32
ATOM     32  O   UNL     1      -8.222   3.260 126.500  0.00  0.00    +0.000 OA
ATOM     33  H   UNL     1      -9.091   2.934 126.914  0.00  0.00    +0.000 HD
ENDBRANCH   9  32
BRANCH  10  34
ATOM     34  O   UNL     1      -7.174   3.256 128.689  0.00  0.00    +0.000 OA
ATOM     35  H   UNL     1      -7.519   3.909 128.048  0.00  0.00    +0.000 HD
ENDBRANCH  10  34
BRANCH  16  36
ATOM     36  O   UNL     1      -5.964  -2.580 128.044  0.00  0.00    +0.000 OA
ATOM     37  H   UNL     1      -6.858  -2.967 128.061  0.00  0.00    +0.000 HD
ENDBRANCH  16  36
BRANCH  21  38
ATOM     38  O   UNL     1      -8.499   0.550 132.573  0.00  0.00    +0.000 OA
ATOM     39  H   UNL     1      -7.981   1.355 132.441  0.00  0.00    +0.000 HD
ENDBRANCH  21  38
TORSDOF 7
ENDMDL
MODEL 6
REMARK VINA RESULT:      -7.6      3.564      6.929
REMARK  Name = Demeclocycline
REMARK  9 active torsions:
REMARK  status: ('A' for Active; 'I' for Inactive)
REMARK    1  A    between atoms: C_6  and  N_7
REMARK    2  A    between atoms: N_7  and  C_8
REMARK    3  A    between atoms: N_7  and  C_9
REMARK    4  A    between atoms: C_10  and  O_11
REMARK    5  A    between atoms: C_12  and  C_13
REMARK    6  A    between atoms: C_18  and  O_19
REMARK    7  A    between atoms: C_20  and  O_21
REMARK    8  A    between atoms: C_27  and  O_28
REMARK    9  A    between atoms: C_33  and  O_34
REMARK                            x       y       z     vdW  Elec       q    Type
REMARK                         _______ _______ _______ _____ _____    ______ ____
ROOT
ATOM      1  C   UNL     1      -7.506  -0.842 128.461  0.00  0.00    +0.000 C 
ATOM      2  C   UNL     1      -8.475  -0.161 127.505  0.00  0.00    +0.000 C 
ATOM      3  C   UNL     1      -8.525  -0.969 126.217  0.00  0.00    +0.000 C 
ATOM      4  C   UNL     1      -7.222  -0.774 125.446  0.00  0.00    +0.000 C 
ATOM      5  C   UNL     1      -7.353  -1.467 124.100  0.00  0.00    +0.000 C 
ATOM      6  C   UNL     1      -6.932  -2.683 124.391  0.00  0.00    +0.000 C 
ATOM      7  C   UNL     1      -8.571  -2.761 124.963  0.00  0.00    +0.000 C 
ATOM      8  O   UNL     1      -9.665  -2.797 124.344  0.00  0.00    +0.000 OA
ATOM      9  C   UNL     1      -8.861  -2.570 126.437  0.00  0.00    +0.000 C 
ATOM     10  C   UNL     1      -8.605  -2.987 127.848  0.00  0.00    +0.000 C 
ATOM     11  C   UNL     1      -7.900  -2.255 128.702  0.00  0.00    +0.000 C 
ATOM     12  C   UNL     1      -7.171  -2.958 129.799  0.00  0.00    +0.000 C 
ATOM     13  O   UNL     1      -6.746  -4.052 129.633  0.00  0.00    +0.000 OA
ATOM     14  C   UNL     1      -6.729  -2.077 130.928  0.00  0.00    +0.000 A 
ATOM     15  C   UNL     1      -6.733  -0.661 130.820  0.00  0.00    +0.000 A 
ATOM     16  C   UNL     1      -7.480   0.006 129.706  0.00  0.00    +0.000 C 
ATOM     17  C   UNL     1      -6.092   0.091 131.806  0.00  0.00    +0.000 A 
ATOM     18 CL   UNL     1      -5.991   1.819 131.802  0.00  0.00    +0.000 Cl
ATOM     19  C   UNL     1      -5.457  -0.553 132.858  0.00  0.00    +0.000 A 
ATOM     20  C   UNL     1      -5.510  -1.941 132.988  0.00  0.00    +0.000 A 
ATOM     21  C   UNL     1      -6.165  -2.705 132.036  0.00  0.00    +0.000 A 
ENDROOT
BRANCH   6  22
ATOM     22  C   UNL     1      -5.730  -2.599 123.276  0.00  0.00    +0.000 C 
ATOM     23  N   UNL     1      -4.417  -3.198 123.357  0.00  0.00    +0.000 N 
ATOM     24  O   UNL     1      -5.884  -2.046 122.186  0.00  0.00    +0.000 OA
ATOM     25  H   UNL     1      -3.789  -3.045 122.561  0.00  0.00    +0.000 HD
ATOM     26  H   UNL     1      -3.849  -3.765 123.983  0.00  0.00    +0.000 HD
ENDBRANCH   6  22
BRANCH   4  27
ATOM     27  N   UNL     1      -6.719   0.580 125.297  0.00  0.00    +0.000 NA
ATOM     28  C   UNL     1      -6.812   0.922 123.871  0.00  0.00    +0.000 C 
ATOM     29  C   UNL     1      -5.330   0.618 125.732  0.00  0.00    +0.000 C 
ENDBRANCH   4  27
BRANCH   5  30
ATOM     30  O   UNL     1      -8.470  -1.216 123.220  0.00  0.00    +0.000 OA
ATOM     31  H   UNL     1      -8.294  -1.418 122.255  0.00  0.00    +0.000 HD
ENDBRANCH   5  30
BRANCH   9  32
ATOM     32  O   UNL     1      -8.410  -4.048 125.888  0.00  0.00    +0.000 OA
ATOM     33  H   UNL     1      -8.324  -4.789 126.577  0.00  0.00    +0.000 HD
ENDBRANCH   9  32
BRANCH  10  34
ATOM     34  O   UNL     1      -9.132  -4.227 128.198  0.00  0.00    +0.000 OA
ATOM     35  H   UNL     1      -9.184  -4.227 129.174  0.00  0.00    +0.000 HD
ENDBRANCH  10  34
BRANCH  16  36
ATOM     36  O   UNL     1      -6.876   1.222 129.272  0.00  0.00    +0.000 OA
ATOM     37  H   UNL     1      -6.715   1.773 130.059  0.00  0.00    +0.000 HD
ENDBRANCH  16  36
BRANCH  21  38
ATOM     38  O   UNL     1      -6.269  -4.055 132.189  0.00  0.00    +0.000 OA
ATOM     39  H   UNL     1      -5.412  -4.498 132.138  0.00  0.00    +0.000 HD
ENDBRANCH  21  38
TORSDOF 7
ENDMDL
MODEL 7
REMARK VINA RESULT:      -7.5      4.593      5.453
REMARK  Name = Demeclocycline
REMARK  9 active torsions:
REMARK  status: ('A' for Active; 'I' for Inactive)
REMARK    1  A    between atoms: C_6  and  N_7
REMARK    2  A    between atoms: N_7  and  C_8
REMARK    3  A    between atoms: N_7  and  C_9
REMARK    4  A    between atoms: C_10  and  O_11
REMARK    5  A    between atoms: C_12  and  C_13
REMARK    6  A    between atoms: C_18  and  O_19
REMARK    7  A    between atoms: C_20  and  O_21
REMARK    8  A    between atoms: C_27  and  O_28
REMARK    9  A    between atoms: C_33  and  O_34
REMARK                            x       y       z     vdW  Elec       q    Type
REMARK                         _______ _______ _______ _____ _____    ______ ____
ROOT
ATOM      1  C   UNL     1      -8.107   0.540 131.096  0.00  0.00    +0.000 C 
ATOM      2  C   UNL     1      -9.356   1.159 131.706  0.00  0.00    +0.000 C 
ATOM      3  C   UNL     1      -9.418   2.621 131.290  0.00  0.00    +0.000 C 
ATOM      4  C   UNL     1      -8.347   3.408 132.042  0.00  0.00    +0.000 C 
ATOM      5  C   UNL     1      -8.525   4.883 131.724  0.00  0.00    +0.000 C 
ATOM      6  C   UNL     1      -7.779   5.008 130.643  0.00  0.00    +0.000 C 
ATOM      7  C   UNL     1      -9.231   4.346 129.959  0.00  0.00    +0.000 C 
ATOM      8  O   UNL     1     -10.371   4.850 129.783  0.00  0.00    +0.000 OA
ATOM      9  C   UNL     1      -9.313   2.864 129.661  0.00  0.00    +0.000 C 
ATOM     10  C   UNL     1      -8.735   1.672 128.973  0.00  0.00    +0.000 C 
ATOM     11  C   UNL     1      -8.099   0.701 129.618  0.00  0.00    +0.000 C 
ATOM     12  C   UNL     1      -7.051  -0.066 128.883  0.00  0.00    +0.000 C 
ATOM     13  O   UNL     1      -6.405   0.458 128.037  0.00  0.00    +0.000 OA
ATOM     14  C   UNL     1      -6.657  -1.365 129.518  0.00  0.00    +0.000 A 
ATOM     15  C   UNL     1      -7.023  -1.688 130.851  0.00  0.00    +0.000 A 
ATOM     16  C   UNL     1      -8.084  -0.896 131.553  0.00  0.00    +0.000 C 
ATOM     17  C   UNL     1      -6.432  -2.795 131.462  0.00  0.00    +0.000 A 
ATOM     18 CL   UNL     1      -6.758  -3.303 133.085  0.00  0.00    +0.000 Cl
ATOM     19  C   UNL     1      -5.496  -3.545 130.766  0.00  0.00    +0.000 A 
ATOM     20  C   UNL     1      -5.186  -3.257 129.437  0.00  0.00    +0.000 A 
ATOM     21  C   UNL     1      -5.782  -2.179 128.802  0.00  0.00    +0.000 A 
ENDROOT
BRANCH   6  22
ATOM     22  C   UNL     1      -6.833   6.146 131.356  0.00  0.00    +0.000 C 
ATOM     23  N   UNL     1      -5.856   5.943 132.402  0.00  0.00    +0.000 N 
ATOM     24  O   UNL     1      -6.829   7.321 130.985  0.00  0.00    +0.000 OA
ATOM     25  H   UNL     1      -5.350   6.773 132.729  0.00  0.00    +0.000 HD
ATOM     26  H   UNL     1      -5.465   5.202 132.978  0.00  0.00    +0.000 HD
ENDBRANCH   6  22
BRANCH   4  27
ATOM     27  N   UNL     1      -8.221   3.185 133.470  0.00  0.00    +0.000 NA
ATOM     28  C   UNL     1      -8.567   4.448 134.137  0.00  0.00    +0.000 C 
ATOM     29  C   UNL     1      -6.844   2.821 133.772  0.00  0.00    +0.000 C 
ENDBRANCH   4  27
BRANCH   5  30
ATOM     30  O   UNL     1      -9.798   5.546 131.876  0.00  0.00    +0.000 OA
ATOM     31  H   UNL     1     -10.008   6.215 131.161  0.00  0.00    +0.000 HD
ENDBRANCH   5  30
BRANCH   9  32
ATOM     32  O   UNL     1      -8.612   3.869 128.570  0.00  0.00    +0.000 OA
ATOM     33  H   UNL     1      -7.762   3.542 128.122  0.00  0.00    +0.000 HD
ENDBRANCH   9  32
BRANCH  10  34
ATOM     34  O   UNL     1      -8.879   1.666 127.588  0.00  0.00    +0.000 OA
ATOM     35  H   UNL     1      -8.783   2.598 127.307  0.00  0.00    +0.000 HD
ENDBRANCH  10  34
BRANCH  16  36
ATOM     36  O   UNL     1      -7.874  -0.797 132.960  0.00  0.00    +0.000 OA
ATOM     37  H   UNL     1      -6.953  -1.053 133.143  0.00  0.00    +0.000 HD
ENDBRANCH  16  36
BRANCH  21  38
ATOM     38  O   UNL     1      -5.527  -1.928 127.488  0.00  0.00    +0.000 OA
ATOM     39  H   UNL     1      -5.119  -1.062 127.351  0.00  0.00    +0.000 HD
ENDBRANCH  21  38
TORSDOF 7
ENDMDL
MODEL 8
REMARK VINA RESULT:      -7.3      4.912      7.530
REMARK  Name = Demeclocycline
REMARK  9 active torsions:
REMARK  status: ('A' for Active; 'I' for Inactive)
REMARK    1  A    between atoms: C_6  and  N_7
REMARK    2  A    between atoms: N_7  and  C_8
REMARK    3  A    between atoms: N_7  and  C_9
REMARK    4  A    between atoms: C_10  and  O_11
REMARK    5  A    between atoms: C_12  and  C_13
REMARK    6  A    between atoms: C_18  and  O_19
REMARK    7  A    between atoms: C_20  and  O_21
REMARK    8  A    between atoms: C_27  and  O_28
REMARK    9  A    between atoms: C_33  and  O_34
REMARK                            x       y       z     vdW  Elec       q    Type
REMARK                         _______ _______ _______ _____ _____    ______ ____
ROOT
ATOM      1  C   UNL     1      -5.566   3.693 130.502  0.00  0.00    +0.000 C 
ATOM      2  C   UNL     1      -5.852   3.735 131.996  0.00  0.00    +0.000 C 
ATOM      3  C   UNL     1      -7.320   3.399 132.213  0.00  0.00    +0.000 C 
ATOM      4  C   UNL     1      -8.181   4.572 131.753  0.00  0.00    +0.000 C 
ATOM      5  C   UNL     1      -9.627   4.276 132.116  0.00  0.00    +0.000 C 
ATOM      6  C   UNL     1     -10.037   3.627 131.042  0.00  0.00    +0.000 C 
ATOM      7  C   UNL     1      -9.216   2.356 131.896  0.00  0.00    +0.000 C 
ATOM      8  O   UNL     1      -9.518   1.731 132.945  0.00  0.00    +0.000 OA
ATOM      9  C   UNL     1      -7.800   1.985 131.509  0.00  0.00    +0.000 C 
ATOM     10  C   UNL     1      -6.842   1.559 130.446  0.00  0.00    +0.000 C 
ATOM     11  C   UNL     1      -5.928   2.370 129.928  0.00  0.00    +0.000 C 
ATOM     12  C   UNL     1      -5.479   2.123 128.526  0.00  0.00    +0.000 C 
ATOM     13  O   UNL     1      -6.225   1.661 127.728  0.00  0.00    +0.000 OA
ATOM     14  C   UNL     1      -4.201   2.806 128.143  0.00  0.00    +0.000 A 
ATOM     15  C   UNL     1      -3.635   3.837 128.939  0.00  0.00    +0.000 A 
ATOM     16  C   UNL     1      -4.112   4.050 130.343  0.00  0.00    +0.000 C 
ATOM     17  C   UNL     1      -2.584   4.592 128.415  0.00  0.00    +0.000 A 
ATOM     18 CL   UNL     1      -1.807   5.893 129.251  0.00  0.00    +0.000 Cl
ATOM     19  C   UNL     1      -2.125   4.332 127.132  0.00  0.00    +0.000 A 
ATOM     20  C   UNL     1      -2.646   3.279 126.380  0.00  0.00    +0.000 A 
ATOM     21  C   UNL     1      -3.670   2.499 126.892  0.00  0.00    +0.000 A 
ENDROOT
BRANCH   6  22
ATOM     22  C   UNL     1     -11.222   4.727 130.757  0.00  0.00    +0.000 C 
ATOM     23  N   UNL     1     -11.708   5.746 131.661  0.00  0.00    +0.000 N 
ATOM     24  O   UNL     1     -11.776   4.825 129.661  0.00  0.00    +0.000 OA
ATOM     25  H   UNL     1     -12.457   6.353 131.313  0.00  0.00    +0.000 HD
ATOM     26  H   UNL     1     -11.554   6.098 132.603  0.00  0.00    +0.000 HD
ENDBRANCH   6  22
BRANCH   4  27
ATOM     27  N   UNL     1      -7.792   5.905 132.176  0.00  0.00    +0.000 NA
ATOM     28  C   UNL     1      -8.420   6.145 133.483  0.00  0.00    +0.000 C 
ATOM     29  C   UNL     1      -8.279   6.871 131.202  0.00  0.00    +0.000 C 
ENDBRANCH   4  27
BRANCH   5  30
ATOM     30  O   UNL     1     -10.014   3.896 133.454  0.00  0.00    +0.000 OA
ATOM     31  H   UNL     1     -11.000   3.790 133.588  0.00  0.00    +0.000 HD
ENDBRANCH   5  30
BRANCH   9  32
ATOM     32  O   UNL     1      -9.058   1.348 130.672  0.00  0.00    +0.000 OA
ATOM     33  H   UNL     1      -9.016   0.356 130.461  0.00  0.00    +0.000 HD
ENDBRANCH   9  32
BRANCH  10  34
ATOM     34  O   UNL     1      -7.000   0.248 130.005  0.00  0.00    +0.000 OA
ATOM     35  H   UNL     1      -7.108   0.305 129.035  0.00  0.00    +0.000 HD
ENDBRANCH  10  34
BRANCH  16  36
ATOM     36  O   UNL     1      -4.054   5.414 130.756  0.00  0.00    +0.000 OA
ATOM     37  H   UNL     1      -4.967   5.734 130.857  0.00  0.00    +0.000 HD
ENDBRANCH  16  36
BRANCH  21  38
ATOM     38  O   UNL     1      -4.143   1.434 126.186  0.00  0.00    +0.000 OA
ATOM     39  H   UNL     1      -4.639   1.704 125.401  0.00  0.00    +0.000 HD
ENDBRANCH  21  38
TORSDOF 7
ENDMDL
MODEL 9
REMARK VINA RESULT:      -7.3      4.314      6.822
REMARK  Name = Demeclocycline
REMARK  9 active torsions:
REMARK  status: ('A' for Active; 'I' for Inactive)
REMARK    1  A    between atoms: C_6  and  N_7
REMARK    2  A    between atoms: N_7  and  C_8
REMARK    3  A    between atoms: N_7  and  C_9
REMARK    4  A    between atoms: C_10  and  O_11
REMARK    5  A    between atoms: C_12  and  C_13
REMARK    6  A    between atoms: C_18  and  O_19
REMARK    7  A    between atoms: C_20  and  O_21
REMARK    8  A    between atoms: C_27  and  O_28
REMARK    9  A    between atoms: C_33  and  O_34
REMARK                            x       y       z     vdW  Elec       q    Type
REMARK                         _______ _______ _______ _____ _____    ______ ____
ROOT
ATOM      1  C   UNL     1      -7.605  -1.565 128.774  0.00  0.00    +0.000 C 
ATOM      2  C   UNL     1      -8.031  -2.772 129.598  0.00  0.00    +0.000 C 
ATOM      3  C   UNL     1      -7.465  -2.617 131.001  0.00  0.00    +0.000 C 
ATOM      4  C   UNL     1      -5.956  -2.847 130.968  0.00  0.00    +0.000 C 
ATOM      5  C   UNL     1      -5.438  -2.835 132.396  0.00  0.00    +0.000 C 
ATOM      6  C   UNL     1      -5.181  -1.552 132.569  0.00  0.00    +0.000 C 
ATOM      7  C   UNL     1      -6.896  -1.579 132.841  0.00  0.00    +0.000 C 
ATOM      8  O   UNL     1      -7.578  -2.037 133.794  0.00  0.00    +0.000 OA
ATOM      9  C   UNL     1      -7.840  -1.182 131.726  0.00  0.00    +0.000 C 
ATOM     10  C   UNL     1      -8.261  -0.162 130.719  0.00  0.00    +0.000 C 
ATOM     11  C   UNL     1      -8.044  -0.299 129.417  0.00  0.00    +0.000 C 
ATOM     12  C   UNL     1      -7.896   0.937 128.593  0.00  0.00    +0.000 C 
ATOM     13  O   UNL     1      -7.425   1.919 129.063  0.00  0.00    +0.000 OA
ATOM     14  C   UNL     1      -8.042   0.733 127.116  0.00  0.00    +0.000 A 
ATOM     15  C   UNL     1      -8.017  -0.562 126.533  0.00  0.00    +0.000 A 
ATOM     16  C   UNL     1      -8.173  -1.778 127.394  0.00  0.00    +0.000 C 
ATOM     17  C   UNL     1      -7.918  -0.674 125.145  0.00  0.00    +0.000 A 
ATOM     18 CL   UNL     1      -7.854  -2.177 124.290  0.00  0.00    +0.000 Cl
ATOM     19  C   UNL     1      -7.834   0.472 124.368  0.00  0.00    +0.000 A 
ATOM     20  C   UNL     1      -7.919   1.740 124.943  0.00  0.00    +0.000 A 
ATOM     21  C   UNL     1      -8.046   1.873 126.317  0.00  0.00    +0.000 A 
ENDROOT
BRANCH   6  22
ATOM     22  C   UNL     1      -3.600  -1.851 132.897  0.00  0.00    +0.000 C 
ATOM     23  N   UNL     1      -2.979  -3.139 133.113  0.00  0.00    +0.000 N 
ATOM     24  O   UNL     1      -2.753  -0.957 132.914  0.00  0.00    +0.000 OA
ATOM     25  H   UNL     1      -1.971  -3.140 133.304  0.00  0.00    +0.000 HD
ATOM     26  H   UNL     1      -3.213  -4.128 133.148  0.00  0.00    +0.000 HD
ENDBRANCH   6  22
BRANCH   4  27
ATOM     27  N   UNL     1      -5.463  -3.999 130.235  0.00  0.00    +0.000 NA
ATOM     28  C   UNL     1      -5.402  -5.120 131.183  0.00  0.00    +0.000 C 
ATOM     29  C   UNL     1      -4.132  -3.701 129.726  0.00  0.00    +0.000 C 
ENDBRANCH   4  27
BRANCH   5  30
ATOM     30  O   UNL     1      -6.023  -3.661 133.425  0.00  0.00    +0.000 OA
ATOM     31  H   UNL     1      -7.023  -3.638 133.459  0.00  0.00    +0.000 HD
ENDBRANCH   5  30
BRANCH   9  32
ATOM     32  O   UNL     1      -7.163  -0.019 132.664  0.00  0.00    +0.000 OA
ATOM     33  H   UNL     1      -6.150  -0.017 132.736  0.00  0.00    +0.000 HD
ENDBRANCH   9  32
BRANCH  10  34
ATOM     34  O   UNL     1      -8.871   0.970 131.252  0.00  0.00    +0.000 OA
ATOM     35  H   UNL     1      -8.787   1.663 130.568  0.00  0.00    +0.000 HD
ENDBRANCH  10  34
BRANCH  16  36
ATOM     36  O   UNL     1      -7.455  -2.909 126.906  0.00  0.00    +0.000 OA
ATOM     37  H   UNL     1      -7.426  -3.573 127.618  0.00  0.00    +0.000 HD
ENDBRANCH  16  36
BRANCH  21  38
ATOM     38  O   UNL     1      -8.188   3.107 126.878  0.00  0.00    +0.000 OA
ATOM     39  H   UNL     1      -8.315   3.063 127.835  0.00  0.00    +0.000 HD
ENDBRANCH  21  38
TORSDOF 7
ENDMDL
