MODEL 1
REMARK VINA RESULT:      -8.1      0.000      0.000
REMARK  Name = Deoxycholic acid
REMARK  10 active torsions:
REMARK  status: ('A' for Active; 'I' for Inactive)
REMARK    1  A    between atoms: C_5  and  C_6
REMARK    2  A    between atoms: C_6  and  C_7
REMARK    3  A    between atoms: C_6  and  C_8
REMARK    4  A    between atoms: C_8  and  C_9
REMARK    5  A    between atoms: C_9  and  C_10
REMARK    6  A    between atoms: C_10  and  O_11
REMARK    7  A    between atoms: C_13  and  C_14
REMARK    8  A    between atoms: C_15  and  O_16
REMARK    9  A    between atoms: C_27  and  O_28
REMARK   10  A    between atoms: C_31  and  C_32
REMARK                            x       y       z     vdW  Elec       q    Type
REMARK                         _______ _______ _______ _____ _____    ______ ____
ROOT
ATOM      1  C   UNL     1      -7.844  -2.278 125.527  0.00  0.00    +0.000 C 
ATOM      2  C   UNL     1      -8.678  -3.231 124.650  0.00  0.00    +0.000 C 
ATOM      3  C   UNL     1      -8.729  -2.516 123.264  0.00  0.00    +0.000 C 
ATOM      4  C   UNL     1      -7.785  -1.267 123.360  0.00  0.00    +0.000 C 
ATOM      5  C   UNL     1      -6.838  -1.654 124.552  0.00  0.00    +0.000 C 
ATOM      6  C   UNL     1      -5.871  -2.777 124.059  0.00  0.00    +0.000 C 
ATOM      7  C   UNL     1      -5.964  -0.569 125.236  0.00  0.00    +0.000 C 
ATOM      8  C   UNL     1      -5.398  -1.061 126.562  0.00  0.00    +0.000 C 
ATOM      9  C   UNL     1      -6.508  -1.575 127.518  0.00  0.00    +0.000 C 
ATOM     10  C   UNL     1      -7.303  -2.751 126.867  0.00  0.00    +0.000 C 
ATOM     11  C   UNL     1      -8.473  -3.159 127.777  0.00  0.00    +0.000 C 
ATOM     12  C   UNL     1      -7.995  -3.533 129.169  0.00  0.00    +0.000 C 
ATOM     13  C   UNL     1      -7.165  -2.420 129.833  0.00  0.00    +0.000 C 
ATOM     14  C   UNL     1      -8.090  -1.267 130.281  0.00  0.00    +0.000 C 
ATOM     15  C   UNL     1      -7.315  -0.147 130.965  0.00  0.00    +0.000 C 
ATOM     16  C   UNL     1      -6.245   0.401 130.031  0.00  0.00    +0.000 C 
ATOM     17  C   UNL     1      -5.289  -0.717 129.619  0.00  0.00    +0.000 C 
ATOM     18  C   UNL     1      -5.981  -1.934 128.935  0.00  0.00    +0.000 C 
ATOM     19  C   UNL     1      -4.927  -3.056 128.810  0.00  0.00    +0.000 C 
ENDROOT
BRANCH   4  20
ATOM     20  C   UNL     1      -8.608   0.081 123.408  0.00  0.00    +0.000 C 
ATOM     21  C   UNL     1      -9.946  -0.065 122.646  0.00  0.00    +0.000 C 
BRANCH  20  22
ATOM     22  C   UNL     1      -7.876   1.388 122.991  0.00  0.00    +0.000 C 
BRANCH  22  23
ATOM     23  C   UNL     1      -8.623   2.697 123.253  0.00  0.00    +0.000 C 
BRANCH  23  24
ATOM     24  C   UNL     1      -8.604   3.283 124.645  0.00  0.00    +0.000 C 
ATOM     25  O   UNL     1      -8.842   2.593 125.641  0.00  0.00    +0.000 OA
BRANCH  24  26
ATOM     26  O   UNL     1      -8.193   4.555 124.768  0.00  0.00    +0.000 OA
ATOM     27  H   UNL     1      -7.229   4.679 124.819  0.00  0.00    +0.000 HD
ENDBRANCH  24  26
ENDBRANCH  23  24
ENDBRANCH  22  23
ENDBRANCH  20  22
ENDBRANCH   4  20
BRANCH   7  28
ATOM     28  O   UNL     1      -6.589   0.665 125.563  0.00  0.00    +0.000 OA
ATOM     29  H   UNL     1      -6.939   0.640 126.462  0.00  0.00    +0.000 HD
ENDBRANCH   7  28
BRANCH  15  30
ATOM     30  O   UNL     1      -8.196   0.898 131.356  0.00  0.00    +0.000 OA
ATOM     31  H   UNL     1      -9.096   0.536 131.421  0.00  0.00    +0.000 HD
ENDBRANCH  15  30
TORSDOF 7
ENDMDL
MODEL 2
REMARK VINA RESULT:      -7.7      2.663      7.214
REMARK  Name = Deoxycholic acid
REMARK  10 active torsions:
REMARK  status: ('A' for Active; 'I' for Inactive)
REMARK    1  A    between atoms: C_5  and  C_6
REMARK    2  A    between atoms: C_6  and  C_7
REMARK    3  A    between atoms: C_6  and  C_8
REMARK    4  A    between atoms: C_8  and  C_9
REMARK    5  A    between atoms: C_9  and  C_10
REMARK    6  A    between atoms: C_10  and  O_11
REMARK    7  A    between atoms: C_13  and  C_14
REMARK    8  A    between atoms: C_15  and  O_16
REMARK    9  A    between atoms: C_27  and  O_28
REMARK   10  A    between atoms: C_31  and  C_32
REMARK                            x       y       z     vdW  Elec       q    Type
REMARK                         _______ _______ _______ _____ _____    ______ ____
ROOT
ATOM      1  C   UNL     1      -7.373  -2.386 128.612  0.00  0.00    +0.000 C 
ATOM      2  C   UNL     1      -7.810  -3.392 129.692  0.00  0.00    +0.000 C 
ATOM      3  C   UNL     1      -6.739  -3.226 130.815  0.00  0.00    +0.000 C 
ATOM      4  C   UNL     1      -5.831  -2.015 130.403  0.00  0.00    +0.000 C 
ATOM      5  C   UNL     1      -6.755  -1.228 129.407  0.00  0.00    +0.000 C 
ATOM      6  C   UNL     1      -7.887  -0.540 130.233  0.00  0.00    +0.000 C 
ATOM      7  C   UNL     1      -6.150  -0.143 128.475  0.00  0.00    +0.000 C 
ATOM      8  C   UNL     1      -7.119   0.245 127.366  0.00  0.00    +0.000 C 
ATOM      9  C   UNL     1      -7.605  -0.986 126.554  0.00  0.00    +0.000 C 
ATOM     10  C   UNL     1      -8.321  -2.018 127.483  0.00  0.00    +0.000 C 
ATOM     11  C   UNL     1      -8.682  -3.281 126.683  0.00  0.00    +0.000 C 
ATOM     12  C   UNL     1      -9.538  -2.951 125.473  0.00  0.00    +0.000 C 
ATOM     13  C   UNL     1      -8.892  -1.902 124.552  0.00  0.00    +0.000 C 
ATOM     14  C   UNL     1      -7.728  -2.541 123.761  0.00  0.00    +0.000 C 
ATOM     15  C   UNL     1      -7.067  -1.544 122.816  0.00  0.00    +0.000 C 
ATOM     16  C   UNL     1      -6.547  -0.343 123.596  0.00  0.00    +0.000 C 
ATOM     17  C   UNL     1      -7.695   0.332 124.343  0.00  0.00    +0.000 C 
ATOM     18  C   UNL     1      -8.466  -0.607 125.318  0.00  0.00    +0.000 C 
ATOM     19  C   UNL     1      -9.723   0.152 125.796  0.00  0.00    +0.000 C 
ENDROOT
BRANCH   4  20
ATOM     20  C   UNL     1      -4.397  -2.494 129.944  0.00  0.00    +0.000 C 
ATOM     21  C   UNL     1      -4.298  -4.037 129.972  0.00  0.00    +0.000 C 
BRANCH  20  22
ATOM     22  C   UNL     1      -3.164  -1.850 130.640  0.00  0.00    +0.000 C 
BRANCH  22  23
ATOM     23  C   UNL     1      -3.344  -1.455 132.106  0.00  0.00    +0.000 C 
BRANCH  23  24
ATOM     24  C   UNL     1      -3.317  -2.534 133.162  0.00  0.00    +0.000 C 
ATOM     25  O   UNL     1      -2.263  -2.885 133.703  0.00  0.00    +0.000 OA
BRANCH  24  26
ATOM     26  O   UNL     1      -4.500  -3.009 133.583  0.00  0.00    +0.000 OA
ATOM     27  H   UNL     1      -4.798  -3.829 133.153  0.00  0.00    +0.000 HD
ENDBRANCH  24  26
ENDBRANCH  23  24
ENDBRANCH  22  23
ENDBRANCH  20  22
ENDBRANCH   4  20
BRANCH   7  28
ATOM     28  O   UNL     1      -4.949  -0.466 127.788  0.00  0.00    +0.000 OA
ATOM     29  H   UNL     1      -4.867  -1.421 127.679  0.00  0.00    +0.000 HD
ENDBRANCH   7  28
BRANCH  15  30
ATOM     30  O   UNL     1      -5.998  -2.162 122.113  0.00  0.00    +0.000 OA
ATOM     31  H   UNL     1      -5.390  -2.558 122.759  0.00  0.00    +0.000 HD
ENDBRANCH  15  30
TORSDOF 7
ENDMDL
MODEL 3
REMARK VINA RESULT:      -7.5      4.100      7.561
REMARK  Name = Deoxycholic acid
REMARK  10 active torsions:
REMARK  status: ('A' for Active; 'I' for Inactive)
REMARK    1  A    between atoms: C_5  and  C_6
REMARK    2  A    between atoms: C_6  and  C_7
REMARK    3  A    between atoms: C_6  and  C_8
REMARK    4  A    between atoms: C_8  and  C_9
REMARK    5  A    between atoms: C_9  and  C_10
REMARK    6  A    between atoms: C_10  and  O_11
REMARK    7  A    between atoms: C_13  and  C_14
REMARK    8  A    between atoms: C_15  and  O_16
REMARK    9  A    between atoms: C_27  and  O_28
REMARK   10  A    between atoms: C_31  and  C_32
REMARK                            x       y       z     vdW  Elec       q    Type
REMARK                         _______ _______ _______ _____ _____    ______ ____
ROOT
ATOM      1  C   UNL     1      -6.158   3.259 129.567  0.00  0.00    +0.000 C 
ATOM      2  C   UNL     1      -4.959   3.576 130.481  0.00  0.00    +0.000 C 
ATOM      3  C   UNL     1      -5.588   4.389 131.655  0.00  0.00    +0.000 C 
ATOM      4  C   UNL     1      -7.143   4.359 131.449  0.00  0.00    +0.000 C 
ATOM      5  C   UNL     1      -7.335   3.095 130.537  0.00  0.00    +0.000 C 
ATOM      6  C   UNL     1      -7.082   1.824 131.407  0.00  0.00    +0.000 C 
ATOM      7  C   UNL     1      -8.677   2.873 129.788  0.00  0.00    +0.000 C 
ATOM      8  C   UNL     1      -8.543   1.809 128.706  0.00  0.00    +0.000 C 
ATOM      9  C   UNL     1      -7.390   2.121 127.715  0.00  0.00    +0.000 C 
ATOM     10  C   UNL     1      -6.024   2.222 128.464  0.00  0.00    +0.000 C 
ATOM     11  C   UNL     1      -4.920   2.654 127.485  0.00  0.00    +0.000 C 
ATOM     12  C   UNL     1      -4.821   1.709 126.301  0.00  0.00    +0.000 C 
ATOM     13  C   UNL     1      -6.158   1.541 125.558  0.00  0.00    +0.000 C 
ATOM     14  C   UNL     1      -6.465   2.810 124.731  0.00  0.00    +0.000 C 
ATOM     15  C   UNL     1      -7.773   2.685 123.959  0.00  0.00    +0.000 C 
ATOM     16  C   UNL     1      -8.927   2.417 124.915  0.00  0.00    +0.000 C 
ATOM     17  C   UNL     1      -8.664   1.136 125.704  0.00  0.00    +0.000 C 
ATOM     18  C   UNL     1      -7.332   1.141 126.511  0.00  0.00    +0.000 C 
ATOM     19  C   UNL     1      -7.105  -0.292 127.041  0.00  0.00    +0.000 C 
ENDROOT
BRANCH   4  20
ATOM     20  C   UNL     1      -7.694   5.765 130.983  0.00  0.00    +0.000 C 
ATOM     21  C   UNL     1      -6.571   6.828 131.000  0.00  0.00    +0.000 C 
BRANCH  20  22
ATOM     22  C   UNL     1      -8.975   6.305 131.680  0.00  0.00    +0.000 C 
BRANCH  22  23
ATOM     23  C   UNL     1     -10.096   6.787 130.759  0.00  0.00    +0.000 C 
BRANCH  23  24
ATOM     24  C   UNL     1     -11.405   6.033 130.745  0.00  0.00    +0.000 C 
ATOM     25  O   UNL     1     -11.714   5.292 129.807  0.00  0.00    +0.000 OA
BRANCH  24  26
ATOM     26  O   UNL     1     -12.163   6.100 131.851  0.00  0.00    +0.000 OA
ATOM     27  H   UNL     1     -13.039   6.505 131.733  0.00  0.00    +0.000 HD
ENDBRANCH  24  26
ENDBRANCH  23  24
ENDBRANCH  22  23
ENDBRANCH  20  22
ENDBRANCH   4  20
BRANCH   7  28
ATOM     28  O   UNL     1      -9.240   3.987 129.108  0.00  0.00    +0.000 OA
ATOM     29  H   UNL     1      -8.884   4.054 128.214  0.00  0.00    +0.000 HD
ENDBRANCH   7  28
BRANCH  15  30
ATOM     30  O   UNL     1      -8.026   3.871 123.217  0.00  0.00    +0.000 OA
ATOM     31  H   UNL     1      -7.216   4.117 122.741  0.00  0.00    +0.000 HD
ENDBRANCH  15  30
TORSDOF 7
ENDMDL
MODEL 4
REMARK VINA RESULT:      -7.4      4.735      7.215
REMARK  Name = Deoxycholic acid
REMARK  10 active torsions:
REMARK  status: ('A' for Active; 'I' for Inactive)
REMARK    1  A    between atoms: C_5  and  C_6
REMARK    2  A    between atoms: C_6  and  C_7
REMARK    3  A    between atoms: C_6  and  C_8
REMARK    4  A    between atoms: C_8  and  C_9
REMARK    5  A    between atoms: C_9  and  C_10
REMARK    6  A    between atoms: C_10  and  O_11
REMARK    7  A    between atoms: C_13  and  C_14
REMARK    8  A    between atoms: C_15  and  O_16
REMARK    9  A    between atoms: C_27  and  O_28
REMARK   10  A    between atoms: C_31  and  C_32
REMARK                            x       y       z     vdW  Elec       q    Type
REMARK                         _______ _______ _______ _____ _____    ______ ____
ROOT
ATOM      1  C   UNL     1      -6.241   2.116 130.307  0.00  0.00    +0.000 C 
ATOM      2  C   UNL     1      -5.657   0.701 130.133  0.00  0.00    +0.000 C 
ATOM      3  C   UNL     1      -4.346   0.934 129.321  0.00  0.00    +0.000 C 
ATOM      4  C   UNL     1      -4.149   2.486 129.207  0.00  0.00    +0.000 C 
ATOM      5  C   UNL     1      -5.006   3.020 130.410  0.00  0.00    +0.000 C 
ATOM      6  C   UNL     1      -4.254   2.677 131.734  0.00  0.00    +0.000 C 
ATOM      7  C   UNL     1      -5.392   4.523 130.483  0.00  0.00    +0.000 C 
ATOM      8  C   UNL     1      -6.491   4.767 131.508  0.00  0.00    +0.000 C 
ATOM      9  C   UNL     1      -7.739   3.878 131.255  0.00  0.00    +0.000 C 
ATOM     10  C   UNL     1      -7.361   2.363 131.304  0.00  0.00    +0.000 C 
ATOM     11  C   UNL     1      -8.581   1.507 130.927  0.00  0.00    +0.000 C 
ATOM     12  C   UNL     1      -9.769   1.800 131.826  0.00  0.00    +0.000 C 
ATOM     13  C   UNL     1     -10.149   3.291 131.846  0.00  0.00    +0.000 C 
ATOM     14  C   UNL     1     -10.846   3.676 130.521  0.00  0.00    +0.000 C 
ATOM     15  C   UNL     1     -11.260   5.142 130.501  0.00  0.00    +0.000 C 
ATOM     16  C   UNL     1     -10.046   6.037 130.709  0.00  0.00    +0.000 C 
ATOM     17  C   UNL     1      -9.375   5.706 132.040  0.00  0.00    +0.000 C 
ATOM     18  C   UNL     1      -8.936   4.218 132.184  0.00  0.00    +0.000 C 
ATOM     19  C   UNL     1      -8.509   4.001 133.652  0.00  0.00    +0.000 C 
ENDROOT
BRANCH   4  20
ATOM     20  C   UNL     1      -4.432   3.002 127.741  0.00  0.00    +0.000 C 
ATOM     21  C   UNL     1      -4.835   1.831 126.815  0.00  0.00    +0.000 C 
BRANCH  20  22
ATOM     22  C   UNL     1      -3.347   3.889 127.067  0.00  0.00    +0.000 C 
BRANCH  22  23
ATOM     23  C   UNL     1      -2.566   4.825 127.991  0.00  0.00    +0.000 C 
BRANCH  23  24
ATOM     24  C   UNL     1      -2.883   6.302 127.971  0.00  0.00    +0.000 C 
ATOM     25  O   UNL     1      -1.991   7.156 128.018  0.00  0.00    +0.000 OA
BRANCH  24  26
ATOM     26  O   UNL     1      -4.164   6.651 127.772  0.00  0.00    +0.000 OA
ATOM     27  H   UNL     1      -4.467   7.429 128.272  0.00  0.00    +0.000 HD
ENDBRANCH  24  26
ENDBRANCH  23  24
ENDBRANCH  22  23
ENDBRANCH  20  22
ENDBRANCH   4  20
BRANCH   7  28
ATOM     28  O   UNL     1      -5.883   5.132 129.297  0.00  0.00    +0.000 OA
ATOM     29  H   UNL     1      -5.201   5.681 128.891  0.00  0.00    +0.000 HD
ENDBRANCH   7  28
BRANCH  15  30
ATOM     30  O   UNL     1     -11.890   5.461 129.266  0.00  0.00    +0.000 OA
ATOM     31  H   UNL     1     -12.822   5.192 129.316  0.00  0.00    +0.000 HD
ENDBRANCH  15  30
TORSDOF 7
ENDMDL
MODEL 5
REMARK VINA RESULT:      -7.4      2.673      5.289
REMARK  Name = Deoxycholic acid
REMARK  10 active torsions:
REMARK  status: ('A' for Active; 'I' for Inactive)
REMARK    1  A    between atoms: C_5  and  C_6
REMARK    2  A    between atoms: C_6  and  C_7
REMARK    3  A    between atoms: C_6  and  C_8
REMARK    4  A    between atoms: C_8  and  C_9
REMARK    5  A    between atoms: C_9  and  C_10
REMARK    6  A    between atoms: C_10  and  O_11
REMARK    7  A    between atoms: C_13  and  C_14
REMARK    8  A    between atoms: C_15  and  O_16
REMARK    9  A    between atoms: C_27  and  O_28
REMARK   10  A    between atoms: C_31  and  C_32
REMARK                            x       y       z     vdW  Elec       q    Type
REMARK                         _______ _______ _______ _____ _____    ______ ____
ROOT
ATOM      1  C   UNL     1      -7.331  -1.345 130.112  0.00  0.00    +0.000 C 
ATOM      2  C   UNL     1      -7.183  -2.713 130.805  0.00  0.00    +0.000 C 
ATOM      3  C   UNL     1      -7.070  -3.722 129.621  0.00  0.00    +0.000 C 
ATOM      4  C   UNL     1      -6.990  -2.874 128.303  0.00  0.00    +0.000 C 
ATOM      5  C   UNL     1      -6.495  -1.481 128.833  0.00  0.00    +0.000 C 
ATOM      6  C   UNL     1      -4.994  -1.621 129.240  0.00  0.00    +0.000 C 
ATOM      7  C   UNL     1      -6.605  -0.221 127.931  0.00  0.00    +0.000 C 
ATOM      8  C   UNL     1      -6.405   1.058 128.733  0.00  0.00    +0.000 C 
ATOM      9  C   UNL     1      -7.370   1.148 129.946  0.00  0.00    +0.000 C 
ATOM     10  C   UNL     1      -7.166  -0.063 130.911  0.00  0.00    +0.000 C 
ATOM     11  C   UNL     1      -8.214  -0.020 132.035  0.00  0.00    +0.000 C 
ATOM     12  C   UNL     1      -8.166   1.294 132.794  0.00  0.00    +0.000 C 
ATOM     13  C   UNL     1      -8.317   2.520 131.877  0.00  0.00    +0.000 C 
ATOM     14  C   UNL     1      -9.784   2.652 131.411  0.00  0.00    +0.000 C 
ATOM     15  C   UNL     1      -9.989   3.867 130.513  0.00  0.00    +0.000 C 
ATOM     16  C   UNL     1      -9.080   3.782 129.294  0.00  0.00    +0.000 C 
ATOM     17  C   UNL     1      -7.620   3.703 129.737  0.00  0.00    +0.000 C 
ATOM     18  C   UNL     1      -7.302   2.512 130.688  0.00  0.00    +0.000 C 
ATOM     19  C   UNL     1      -5.869   2.718 131.226  0.00  0.00    +0.000 C 
ENDROOT
BRANCH   4  20
ATOM     20  C   UNL     1      -8.327  -2.973 127.467  0.00  0.00    +0.000 C 
ATOM     21  C   UNL     1      -9.313  -3.969 128.122  0.00  0.00    +0.000 C 
BRANCH  20  22
ATOM     22  C   UNL     1      -8.203  -3.245 125.940  0.00  0.00    +0.000 C 
BRANCH  22  23
ATOM     23  C   UNL     1      -8.951  -2.281 125.018  0.00  0.00    +0.000 C 
BRANCH  23  24
ATOM     24  C   UNL     1      -9.227  -2.700 123.593  0.00  0.00    +0.000 C 
ATOM     25  O   UNL     1      -8.505  -2.335 122.659  0.00  0.00    +0.000 OA
BRANCH  24  26
ATOM     26  O   UNL     1     -10.214  -3.589 123.396  0.00  0.00    +0.000 OA
ATOM     27  H   UNL     1     -11.082  -3.207 123.177  0.00  0.00    +0.000 HD
ENDBRANCH  24  26
ENDBRANCH  23  24
ENDBRANCH  22  23
ENDBRANCH  20  22
ENDBRANCH   4  20
BRANCH   7  28
ATOM     28  O   UNL     1      -7.832  -0.012 127.246  0.00  0.00    +0.000 OA
ATOM     29  H   UNL     1      -8.537   0.201 127.870  0.00  0.00    +0.000 HD
ENDBRANCH   7  28
BRANCH  15  30
ATOM     30  O   UNL     1     -11.346   3.952 130.097  0.00  0.00    +0.000 OA
ATOM     31  H   UNL     1     -11.711   3.052 130.044  0.00  0.00    +0.000 HD
ENDBRANCH  15  30
TORSDOF 7
ENDMDL
MODEL 6
REMARK VINA RESULT:      -7.4      8.629     12.967
REMARK  Name = Deoxycholic acid
REMARK  10 active torsions:
REMARK  status: ('A' for Active; 'I' for Inactive)
REMARK    1  A    between atoms: C_5  and  C_6
REMARK    2  A    between atoms: C_6  and  C_7
REMARK    3  A    between atoms: C_6  and  C_8
REMARK    4  A    between atoms: C_8  and  C_9
REMARK    5  A    between atoms: C_9  and  C_10
REMARK    6  A    between atoms: C_10  and  O_11
REMARK    7  A    between atoms: C_13  and  C_14
REMARK    8  A    between atoms: C_15  and  O_16
REMARK    9  A    between atoms: C_27  and  O_28
REMARK   10  A    between atoms: C_31  and  C_32
REMARK                            x       y       z     vdW  Elec       q    Type
REMARK                         _______ _______ _______ _____ _____    ______ ____
ROOT
ATOM      1  C   UNL     1      -5.207   6.765 135.930  0.00  0.00    +0.000 C 
ATOM      2  C   UNL     1      -3.962   7.294 136.666  0.00  0.00    +0.000 C 
ATOM      3  C   UNL     1      -4.516   7.770 138.045  0.00  0.00    +0.000 C 
ATOM      4  C   UNL     1      -6.024   7.341 138.104  0.00  0.00    +0.000 C 
ATOM      5  C   UNL     1      -6.082   6.181 137.047  0.00  0.00    +0.000 C 
ATOM      6  C   UNL     1      -5.350   4.939 137.646  0.00  0.00    +0.000 C 
ATOM      7  C   UNL     1      -7.453   5.686 136.510  0.00  0.00    +0.000 C 
ATOM      8  C   UNL     1      -7.286   4.824 135.265  0.00  0.00    +0.000 C 
ATOM      9  C   UNL     1      -6.475   5.545 134.155  0.00  0.00    +0.000 C 
ATOM     10  C   UNL     1      -5.052   5.932 134.669  0.00  0.00    +0.000 C 
ATOM     11  C   UNL     1      -4.314   6.753 133.598  0.00  0.00    +0.000 C 
ATOM     12  C   UNL     1      -4.232   6.007 132.279  0.00  0.00    +0.000 C 
ATOM     13  C   UNL     1      -5.610   5.565 131.756  0.00  0.00    +0.000 C 
ATOM     14  C   UNL     1      -6.383   6.785 131.208  0.00  0.00    +0.000 C 
ATOM     15  C   UNL     1      -7.750   6.394 130.659  0.00  0.00    +0.000 C 
ATOM     16  C   UNL     1      -8.580   5.718 131.742  0.00  0.00    +0.000 C 
ATOM     17  C   UNL     1      -7.853   4.478 132.259  0.00  0.00    +0.000 C 
ATOM     18  C   UNL     1      -6.426   4.757 132.818  0.00  0.00    +0.000 C 
ATOM     19  C   UNL     1      -5.750   3.391 133.065  0.00  0.00    +0.000 C 
ENDROOT
BRANCH   4  20
ATOM     20  C   UNL     1      -6.987   8.585 137.969  0.00  0.00    +0.000 C 
ATOM     21  C   UNL     1      -6.189   9.909 138.038  0.00  0.00    +0.000 C 
BRANCH  20  22
ATOM     22  C   UNL     1      -8.228   8.641 138.906  0.00  0.00    +0.000 C 
BRANCH  22  23
ATOM     23  C   UNL     1      -9.376   9.546 138.456  0.00  0.00    +0.000 C 
BRANCH  23  24
ATOM     24  C   UNL     1     -10.448   8.974 137.558  0.00  0.00    +0.000 C 
ATOM     25  O   UNL     1     -11.610   8.825 137.950  0.00  0.00    +0.000 OA
BRANCH  24  26
ATOM     26  O   UNL     1     -10.118   8.752 136.275  0.00  0.00    +0.000 OA
ATOM     27  H   UNL     1      -9.606   7.942 136.110  0.00  0.00    +0.000 HD
ENDBRANCH  24  26
ENDBRANCH  23  24
ENDBRANCH  22  23
ENDBRANCH  20  22
ENDBRANCH   4  20
BRANCH   7  28
ATOM     28  O   UNL     1      -8.400   6.672 136.124  0.00  0.00    +0.000 OA
ATOM     29  H   UNL     1      -8.179   7.033 135.257  0.00  0.00    +0.000 HD
ENDBRANCH   7  28
BRANCH  15  30
ATOM     30  O   UNL     1      -8.434   7.540 130.171  0.00  0.00    +0.000 OA
ATOM     31  H   UNL     1      -8.972   7.909 130.892  0.00  0.00    +0.000 HD
ENDBRANCH  15  30
TORSDOF 7
ENDMDL
MODEL 7
REMARK VINA RESULT:      -7.4      5.432      7.889
REMARK  Name = Deoxycholic acid
REMARK  10 active torsions:
REMARK  status: ('A' for Active; 'I' for Inactive)
REMARK    1  A    between atoms: C_5  and  C_6
REMARK    2  A    between atoms: C_6  and  C_7
REMARK    3  A    between atoms: C_6  and  C_8
REMARK    4  A    between atoms: C_8  and  C_9
REMARK    5  A    between atoms: C_9  and  C_10
REMARK    6  A    between atoms: C_10  and  O_11
REMARK    7  A    between atoms: C_13  and  C_14
REMARK    8  A    between atoms: C_15  and  O_16
REMARK    9  A    between atoms: C_27  and  O_28
REMARK   10  A    between atoms: C_31  and  C_32
REMARK                            x       y       z     vdW  Elec       q    Type
REMARK                         _______ _______ _______ _____ _____    ______ ____
ROOT
ATOM      1  C   UNL     1      -7.311   3.689 131.467  0.00  0.00    +0.000 C 
ATOM      2  C   UNL     1      -7.825   3.388 132.888  0.00  0.00    +0.000 C 
ATOM      3  C   UNL     1      -9.366   3.610 132.785  0.00  0.00    +0.000 C 
ATOM      4  C   UNL     1      -9.689   3.868 131.271  0.00  0.00    +0.000 C 
ATOM      5  C   UNL     1      -8.450   3.224 130.551  0.00  0.00    +0.000 C 
ATOM      6  C   UNL     1      -8.572   1.672 130.667  0.00  0.00    +0.000 C 
ATOM      7  C   UNL     1      -8.164   3.547 129.059  0.00  0.00    +0.000 C 
ATOM      8  C   UNL     1      -6.758   3.119 128.656  0.00  0.00    +0.000 C 
ATOM      9  C   UNL     1      -5.671   3.727 129.583  0.00  0.00    +0.000 C 
ATOM     10  C   UNL     1      -5.900   3.295 131.066  0.00  0.00    +0.000 C 
ATOM     11  C   UNL     1      -4.889   4.007 131.980  0.00  0.00    +0.000 C 
ATOM     12  C   UNL     1      -3.458   3.737 131.550  0.00  0.00    +0.000 C 
ATOM     13  C   UNL     1      -3.198   4.104 130.079  0.00  0.00    +0.000 C 
ATOM     14  C   UNL     1      -3.129   5.639 129.922  0.00  0.00    +0.000 C 
ATOM     15  C   UNL     1      -2.852   6.053 128.482  0.00  0.00    +0.000 C 
ATOM     16  C   UNL     1      -3.928   5.501 127.557  0.00  0.00    +0.000 C 
ATOM     17  C   UNL     1      -3.974   3.978 127.661  0.00  0.00    +0.000 C 
ATOM     18  C   UNL     1      -4.222   3.440 129.101  0.00  0.00    +0.000 C 
ATOM     19  C   UNL     1      -3.997   1.912 129.071  0.00  0.00    +0.000 C 
ENDROOT
BRANCH   4  20
ATOM     20  C   UNL     1     -10.063   5.380 131.006  0.00  0.00    +0.000 C 
ATOM     21  C   UNL     1     -10.235   6.145 132.339  0.00  0.00    +0.000 C 
BRANCH  20  22
ATOM     22  C   UNL     1     -11.252   5.671 130.046  0.00  0.00    +0.000 C 
BRANCH  22  23
ATOM     23  C   UNL     1     -11.393   7.114 129.560  0.00  0.00    +0.000 C 
BRANCH  23  24
ATOM     24  C   UNL     1     -10.625   7.551 128.336  0.00  0.00    +0.000 C 
ATOM     25  O   UNL     1     -10.412   8.744 128.096  0.00  0.00    +0.000 OA
BRANCH  24  26
ATOM     26  O   UNL     1     -10.071   6.586 127.584  0.00  0.00    +0.000 OA
ATOM     27  H   UNL     1      -9.386   6.055 128.025  0.00  0.00    +0.000 HD
ENDBRANCH  24  26
ENDBRANCH  23  24
ENDBRANCH  22  23
ENDBRANCH  20  22
ENDBRANCH   4  20
BRANCH   7  28
ATOM     28  O   UNL     1      -8.239   4.908 128.657  0.00  0.00    +0.000 OA
ATOM     29  H   UNL     1      -7.959   5.490 129.375  0.00  0.00    +0.000 HD
ENDBRANCH   7  28
BRANCH  15  30
ATOM     30  O   UNL     1      -2.803   7.470 128.374  0.00  0.00    +0.000 OA
ATOM     31  H   UNL     1      -2.192   7.811 129.049  0.00  0.00    +0.000 HD
ENDBRANCH  15  30
TORSDOF 7
ENDMDL
MODEL 8
REMARK VINA RESULT:      -7.0      3.392      7.462
REMARK  Name = Deoxycholic acid
REMARK  10 active torsions:
REMARK  status: ('A' for Active; 'I' for Inactive)
REMARK    1  A    between atoms: C_5  and  C_6
REMARK    2  A    between atoms: C_6  and  C_7
REMARK    3  A    between atoms: C_6  and  C_8
REMARK    4  A    between atoms: C_8  and  C_9
REMARK    5  A    between atoms: C_9  and  C_10
REMARK    6  A    between atoms: C_10  and  O_11
REMARK    7  A    between atoms: C_13  and  C_14
REMARK    8  A    between atoms: C_15  and  O_16
REMARK    9  A    between atoms: C_27  and  O_28
REMARK   10  A    between atoms: C_31  and  C_32
REMARK                            x       y       z     vdW  Elec       q    Type
REMARK                         _______ _______ _______ _____ _____    ______ ____
ROOT
ATOM      1  C   UNL     1      -5.469  -0.146 132.134  0.00  0.00    +0.000 C 
ATOM      2  C   UNL     1      -4.347   0.574 132.905  0.00  0.00    +0.000 C 
ATOM      3  C   UNL     1      -5.109   1.574 133.829  0.00  0.00    +0.000 C 
ATOM      4  C   UNL     1      -6.639   1.268 133.669  0.00  0.00    +0.000 C 
ATOM      5  C   UNL     1      -6.630  -0.209 133.135  0.00  0.00    +0.000 C 
ATOM      6  C   UNL     1      -6.215  -1.149 134.311  0.00  0.00    +0.000 C 
ATOM      7  C   UNL     1      -7.912  -0.814 132.500  0.00  0.00    +0.000 C 
ATOM      8  C   UNL     1      -7.606  -2.101 131.744  0.00  0.00    +0.000 C 
ATOM      9  C   UNL     1      -6.489  -1.906 130.682  0.00  0.00    +0.000 C 
ATOM     10  C   UNL     1      -5.167  -1.412 131.350  0.00  0.00    +0.000 C 
ATOM     11  C   UNL     1      -4.116  -1.107 130.269  0.00  0.00    +0.000 C 
ATOM     12  C   UNL     1      -3.860  -2.313 129.382  0.00  0.00    +0.000 C 
ATOM     13  C   UNL     1      -5.144  -2.864 128.738  0.00  0.00    +0.000 C 
ATOM     14  C   UNL     1      -5.612  -1.922 127.606  0.00  0.00    +0.000 C 
ATOM     15  C   UNL     1      -6.874  -2.437 126.922  0.00  0.00    +0.000 C 
ATOM     16  C   UNL     1      -7.996  -2.600 127.938  0.00  0.00    +0.000 C 
ATOM     17  C   UNL     1      -7.569  -3.569 129.038  0.00  0.00    +0.000 C 
ATOM     18  C   UNL     1      -6.267  -3.156 129.786  0.00  0.00    +0.000 C 
ATOM     19  C   UNL     1      -5.849  -4.345 130.679  0.00  0.00    +0.000 C 
ENDROOT
BRANCH   4  20
ATOM     20  C   UNL     1      -7.376   2.402 132.851  0.00  0.00    +0.000 C 
ATOM     21  C   UNL     1      -6.443   3.616 132.633  0.00  0.00    +0.000 C 
BRANCH  20  22
ATOM     22  C   UNL     1      -8.772   2.864 133.357  0.00  0.00    +0.000 C 
BRANCH  22  23
ATOM     23  C   UNL     1      -8.913   4.349 133.695  0.00  0.00    +0.000 C 
BRANCH  23  24
ATOM     24  C   UNL     1      -9.641   5.253 132.728  0.00  0.00    +0.000 C 
ATOM     25  O   UNL     1      -9.934   4.878 131.588  0.00  0.00    +0.000 OA
BRANCH  24  26
ATOM     26  O   UNL     1     -10.070   6.435 133.198  0.00  0.00    +0.000 OA
ATOM     27  H   UNL     1     -11.022   6.604 133.094  0.00  0.00    +0.000 HD
ENDBRANCH  24  26
ENDBRANCH  23  24
ENDBRANCH  22  23
ENDBRANCH  20  22
ENDBRANCH   4  20
BRANCH   7  28
ATOM     28  O   UNL     1      -8.615  -0.017 131.556  0.00  0.00    +0.000 OA
ATOM     29  H   UNL     1      -8.176  -0.044 130.697  0.00  0.00    +0.000 HD
ENDBRANCH   7  28
BRANCH  15  30
ATOM     30  O   UNL     1      -7.279  -1.544 125.893  0.00  0.00    +0.000 OA
ATOM     31  H   UNL     1      -7.864  -0.871 126.280  0.00  0.00    +0.000 HD
ENDBRANCH  15  30
TORSDOF 7
ENDMDL
MODEL 9
REMARK VINA RESULT:      -6.9      2.713      4.424
REMARK  Name = Deoxycholic acid
REMARK  10 active torsions:
REMARK  status: ('A' for Active; 'I' for Inactive)
REMARK    1  A    between atoms: C_5  and  C_6
REMARK    2  A    between atoms: C_6  and  C_7
REMARK    3  A    between atoms: C_6  and  C_8
REMARK    4  A    between atoms: C_8  and  C_9
REMARK    5  A    between atoms: C_9  and  C_10
REMARK    6  A    between atoms: C_10  and  O_11
REMARK    7  A    between atoms: C_13  and  C_14
REMARK    8  A    between atoms: C_15  and  O_16
REMARK    9  A    between atoms: C_27  and  O_28
REMARK   10  A    between atoms: C_31  and  C_32
REMARK                            x       y       z     vdW  Elec       q    Type
REMARK                         _______ _______ _______ _____ _____    ______ ____
ROOT
ATOM      1  C   UNL     1      -7.687  -0.585 129.024  0.00  0.00    +0.000 C 
ATOM      2  C   UNL     1      -7.734  -2.108 129.250  0.00  0.00    +0.000 C 
ATOM      3  C   UNL     1      -7.415  -2.705 127.844  0.00  0.00    +0.000 C 
ATOM      4  C   UNL     1      -7.036  -1.502 126.912  0.00  0.00    +0.000 C 
ATOM      5  C   UNL     1      -6.610  -0.400 127.948  0.00  0.00    +0.000 C 
ATOM      6  C   UNL     1      -5.232  -0.809 128.555  0.00  0.00    +0.000 C 
ATOM      7  C   UNL     1      -6.488   1.082 127.500  0.00  0.00    +0.000 C 
ATOM      8  C   UNL     1      -6.412   2.022 128.696  0.00  0.00    +0.000 C 
ATOM      9  C   UNL     1      -7.602   1.827 129.673  0.00  0.00    +0.000 C 
ATOM     10  C   UNL     1      -7.644   0.361 130.212  0.00  0.00    +0.000 C 
ATOM     11  C   UNL     1      -8.900   0.157 131.077  0.00  0.00    +0.000 C 
ATOM     12  C   UNL     1      -8.963   1.158 132.217  0.00  0.00    +0.000 C 
ATOM     13  C   UNL     1      -8.877   2.617 131.736  0.00  0.00    +0.000 C 
ATOM     14  C   UNL     1     -10.211   3.034 131.077  0.00  0.00    +0.000 C 
ATOM     15  C   UNL     1     -10.184   4.482 130.600  0.00  0.00    +0.000 C 
ATOM     16  C   UNL     1      -9.046   4.690 129.610  0.00  0.00    +0.000 C 
ATOM     17  C   UNL     1      -7.713   4.332 130.263  0.00  0.00    +0.000 C 
ATOM     18  C   UNL     1      -7.640   2.878 130.817  0.00  0.00    +0.000 C 
ATOM     19  C   UNL     1      -6.342   2.762 131.646  0.00  0.00    +0.000 C 
ENDROOT
BRANCH   4  20
ATOM     20  C   UNL     1      -8.174  -1.202 125.858  0.00  0.00    +0.000 C 
ATOM     21  C   UNL     1      -9.292  -2.267 125.939  0.00  0.00    +0.000 C 
BRANCH  20  22
ATOM     22  C   UNL     1      -7.745  -0.964 124.382  0.00  0.00    +0.000 C 
BRANCH  22  23
ATOM     23  C   UNL     1      -8.147   0.377 123.767  0.00  0.00    +0.000 C 
BRANCH  23  24
ATOM     24  C   UNL     1      -9.560   0.874 123.958  0.00  0.00    +0.000 C 
ATOM     25  O   UNL     1      -9.824   1.790 124.744  0.00  0.00    +0.000 OA
BRANCH  24  26
ATOM     26  O   UNL     1     -10.502   0.369 123.145  0.00  0.00    +0.000 OA
ATOM     27  H   UNL     1     -10.645   0.859 122.317  0.00  0.00    +0.000 HD
ENDBRANCH  24  26
ENDBRANCH  23  24
ENDBRANCH  22  23
ENDBRANCH  20  22
ENDBRANCH   4  20
BRANCH   7  28
ATOM     28  O   UNL     1      -7.539   1.616 126.706  0.00  0.00    +0.000 OA
ATOM     29  H   UNL     1      -7.214   1.855 125.830  0.00  0.00    +0.000 HD
ENDBRANCH   7  28
BRANCH  15  30
ATOM     30  O   UNL     1     -11.422   4.827 129.993  0.00  0.00    +0.000 OA
ATOM     31  H   UNL     1     -11.903   4.009 129.784  0.00  0.00    +0.000 HD
ENDBRANCH  15  30
TORSDOF 7
ENDMDL
