MODEL 1
REMARK VINA RESULT:      -7.5      0.000      0.000
REMARK  Name = Dequalinium
REMARK  15 active torsions:
REMARK  status: ('A' for Active; 'I' for Inactive)
REMARK    1  A    between atoms: C_1  and  C_2
REMARK    2  A    between atoms: C_4  and  N_5
REMARK    3  A    between atoms: N_12  and  C_13
REMARK    4  A    between atoms: C_13  and  C_14
REMARK    5  A    between atoms: C_14  and  C_15
REMARK    6  A    between atoms: C_15  and  C_16
REMARK    7  A    between atoms: C_16  and  C_17
REMARK    8  A    between atoms: C_17  and  C_18
REMARK    9  A    between atoms: C_18  and  C_19
REMARK   10  A    between atoms: C_19  and  C_20
REMARK   11  A    between atoms: C_20  and  C_21
REMARK   12  A    between atoms: C_21  and  C_22
REMARK   13  A    between atoms: C_22  and  N_23
REMARK   14  A    between atoms: C_24  and  C_25
REMARK   15  A    between atoms: C_27  and  N_28
REMARK                            x       y       z     vdW  Elec       q    Type
REMARK                         _______ _______ _______ _____ _____    ______ ____
ROOT
ATOM      1  C   UNL     1      -8.672  -2.899 126.808  0.00  0.00    +0.000 C 
ENDROOT
BRANCH   1   2
ATOM      2  C   UNL     1      -9.601  -3.145 125.653  0.00  0.00    +0.000 C 
BRANCH   2   3
ATOM      3  C   UNL     1      -8.789  -3.726 124.500  0.00  0.00    +0.000 C 
BRANCH   3   4
ATOM      4  C   UNL     1      -9.143  -2.897 123.305  0.00  0.00    +0.000 C 
BRANCH   4   5
ATOM      5  C   UNL     1      -8.134  -1.921 122.794  0.00  0.00    +0.000 C 
BRANCH   5  16
ATOM      6  C   UNL     1      -5.298  -3.013 123.712  0.00  0.00    +0.000 C 
ATOM      7  C   UNL     1      -6.022  -1.794 124.251  0.00  0.00    +0.000 A 
ATOM      8  C   UNL     1      -5.284  -1.130 125.232  0.00  0.00    +0.000 A 
ATOM      9  C   UNL     1      -5.734   0.012 125.856  0.00  0.00    +0.000 A 
ATOM     10  C   UNL     1      -6.952   0.542 125.422  0.00  0.00    +0.000 A 
ATOM     11  C   UNL     1      -7.400   1.782 125.911  0.00  0.00    +0.000 A 
ATOM     12  C   UNL     1      -8.508   2.418 125.367  0.00  0.00    +0.000 A 
ATOM     13  C   UNL     1      -9.321   1.736 124.483  0.00  0.00    +0.000 A 
ATOM     14  C   UNL     1      -8.964   0.453 124.063  0.00  0.00    +0.000 A 
ATOM     15  C   UNL     1      -7.733  -0.137 124.443  0.00  0.00    +0.000 A 
ATOM     16  N   UNL     1      -7.257  -1.307 123.867  0.00  0.00    +0.000 N 
BRANCH   9  17
ATOM     17  N   UNL     1      -4.823   0.696 126.658  0.00  0.00    +0.000 N 
ATOM     18  H   UNL     1      -4.843   0.520 127.659  0.00  0.00    +0.000 HD
ATOM     19  H   UNL     1      -4.614   1.666 126.447  0.00  0.00    +0.000 HD
ENDBRANCH   9  17
ENDBRANCH   5  16
ENDBRANCH   4   5
ENDBRANCH   3   4
ENDBRANCH   2   3
ENDBRANCH   1   2
BRANCH   1  20
ATOM     20  C   UNL     1      -8.937  -3.923 127.880  0.00  0.00    +0.000 C 
BRANCH  20  21
ATOM     21  C   UNL     1      -8.385  -3.428 129.187  0.00  0.00    +0.000 C 
BRANCH  21  22
ATOM     22  C   UNL     1      -6.879  -3.250 129.026  0.00  0.00    +0.000 C 
BRANCH  22  23
ATOM     23  C   UNL     1      -6.274  -3.663 130.329  0.00  0.00    +0.000 C 
BRANCH  23  24
ATOM     24  C   UNL     1      -6.309  -2.716 131.473  0.00  0.00    +0.000 C 
BRANCH  24  25
ATOM     25  N   UNL     1      -5.870  -1.318 131.102  0.00  0.00    +0.000 N 
ATOM     26  C   UNL     1      -4.622  -0.984 130.609  0.00  0.00    +0.000 A 
ATOM     27  C   UNL     1      -3.395  -1.843 130.322  0.00  0.00    +0.000 C 
ATOM     28  C   UNL     1      -4.363   0.353 130.260  0.00  0.00    +0.000 A 
ATOM     29  C   UNL     1      -5.287   1.361 130.399  0.00  0.00    +0.000 A 
ATOM     30  C   UNL     1      -6.561   1.010 130.840  0.00  0.00    +0.000 A 
ATOM     31  C   UNL     1      -6.845  -0.338 131.222  0.00  0.00    +0.000 A 
ATOM     32  C   UNL     1      -8.161  -0.619 131.672  0.00  0.00    +0.000 A 
ATOM     33  C   UNL     1      -9.189   0.316 131.581  0.00  0.00    +0.000 A 
ATOM     34  C   UNL     1      -8.913   1.595 131.127  0.00  0.00    +0.000 A 
ATOM     35  C   UNL     1      -7.599   1.956 130.869  0.00  0.00    +0.000 A 
BRANCH  29  36
ATOM     36  N   UNL     1      -4.976   2.599 129.829  0.00  0.00    +0.000 N 
ATOM     37  H   UNL     1      -5.625   2.990 129.151  0.00  0.00    +0.000 HD
ATOM     38  H   UNL     1      -4.013   2.804 129.595  0.00  0.00    +0.000 HD
ENDBRANCH  29  36
ENDBRANCH  24  25
ENDBRANCH  23  24
ENDBRANCH  22  23
ENDBRANCH  21  22
ENDBRANCH  20  21
ENDBRANCH   1  20
TORSDOF 13
ENDMDL
MODEL 2
REMARK VINA RESULT:      -7.5      2.067      3.963
REMARK  Name = Dequalinium
REMARK  15 active torsions:
REMARK  status: ('A' for Active; 'I' for Inactive)
REMARK    1  A    between atoms: C_1  and  C_2
REMARK    2  A    between atoms: C_4  and  N_5
REMARK    3  A    between atoms: N_12  and  C_13
REMARK    4  A    between atoms: C_13  and  C_14
REMARK    5  A    between atoms: C_14  and  C_15
REMARK    6  A    between atoms: C_15  and  C_16
REMARK    7  A    between atoms: C_16  and  C_17
REMARK    8  A    between atoms: C_17  and  C_18
REMARK    9  A    between atoms: C_18  and  C_19
REMARK   10  A    between atoms: C_19  and  C_20
REMARK   11  A    between atoms: C_20  and  C_21
REMARK   12  A    between atoms: C_21  and  C_22
REMARK   13  A    between atoms: C_22  and  N_23
REMARK   14  A    between atoms: C_24  and  C_25
REMARK   15  A    between atoms: C_27  and  N_28
REMARK                            x       y       z     vdW  Elec       q    Type
REMARK                         _______ _______ _______ _____ _____    ______ ____
ROOT
ATOM      1  C   UNL     1      -8.399  -2.983 126.801  0.00  0.00    +0.000 C 
ENDROOT
BRANCH   1   2
ATOM      2  C   UNL     1      -9.415  -2.964 125.694  0.00  0.00    +0.000 C 
BRANCH   2   3
ATOM      3  C   UNL     1      -8.807  -3.648 124.474  0.00  0.00    +0.000 C 
BRANCH   3   4
ATOM      4  C   UNL     1      -9.176  -2.785 123.308  0.00  0.00    +0.000 C 
BRANCH   4   5
ATOM      5  C   UNL     1      -8.154  -1.830 122.782  0.00  0.00    +0.000 C 
BRANCH   5  16
ATOM      6  C   UNL     1     -10.322   0.456 122.393  0.00  0.00    +0.000 C 
ATOM      7  C   UNL     1      -9.101   0.504 123.291  0.00  0.00    +0.000 A 
ATOM      8  C   UNL     1      -9.009   1.703 124.001  0.00  0.00    +0.000 A 
ATOM      9  C   UNL     1      -7.990   1.966 124.888  0.00  0.00    +0.000 A 
ATOM     10  C   UNL     1      -7.061   0.948 125.119  0.00  0.00    +0.000 A 
ATOM     11  C   UNL     1      -6.083   1.094 126.118  0.00  0.00    +0.000 A 
ATOM     12  C   UNL     1      -5.266   0.035 126.493  0.00  0.00    +0.000 A 
ATOM     13  C   UNL     1      -5.253  -1.119 125.734  0.00  0.00    +0.000 A 
ATOM     14  C   UNL     1      -6.136  -1.252 124.660  0.00  0.00    +0.000 A 
ATOM     15  C   UNL     1      -7.121  -0.271 124.384  0.00  0.00    +0.000 A 
ATOM     16  N   UNL     1      -8.145  -0.479 123.470  0.00  0.00    +0.000 N 
BRANCH   9  17
ATOM     17  N   UNL     1      -8.124   3.100 125.686  0.00  0.00    +0.000 N 
ATOM     18  H   UNL     1      -9.062   3.452 125.861  0.00  0.00    +0.000 HD
ATOM     19  H   UNL     1      -7.448   3.850 125.592  0.00  0.00    +0.000 HD
ENDBRANCH   9  17
ENDBRANCH   5  16
ENDBRANCH   4   5
ENDBRANCH   3   4
ENDBRANCH   2   3
ENDBRANCH   1   2
BRANCH   1  20
ATOM     20  C   UNL     1      -8.889  -3.884 127.903  0.00  0.00    +0.000 C 
BRANCH  20  21
ATOM     21  C   UNL     1      -8.062  -3.656 129.136  0.00  0.00    +0.000 C 
BRANCH  21  22
ATOM     22  C   UNL     1      -7.455  -2.259 129.046  0.00  0.00    +0.000 C 
BRANCH  22  23
ATOM     23  C   UNL     1      -7.796  -1.579 130.333  0.00  0.00    +0.000 C 
BRANCH  23  24
ATOM     24  C   UNL     1      -6.715  -1.314 131.317  0.00  0.00    +0.000 C 
BRANCH  24  25
ATOM     25  N   UNL     1      -5.991  -2.567 131.757  0.00  0.00    +0.000 N 
ATOM     26  C   UNL     1      -4.755  -2.974 131.288  0.00  0.00    +0.000 A 
ATOM     27  C   UNL     1      -3.819  -2.349 130.259  0.00  0.00    +0.000 C 
ATOM     28  C   UNL     1      -4.175  -4.139 131.819  0.00  0.00    +0.000 A 
ATOM     29  C   UNL     1      -4.783  -4.915 132.777  0.00  0.00    +0.000 A 
ATOM     30  C   UNL     1      -6.001  -4.469 133.289  0.00  0.00    +0.000 A 
ATOM     31  C   UNL     1      -6.623  -3.299 132.752  0.00  0.00    +0.000 A 
ATOM     32  C   UNL     1      -7.867  -2.913 133.313  0.00  0.00    +0.000 A 
ATOM     33  C   UNL     1      -8.384  -3.523 134.454  0.00  0.00    +0.000 A 
ATOM     34  C   UNL     1      -7.723  -4.603 135.013  0.00  0.00    +0.000 A 
ATOM     35  C   UNL     1      -6.612  -5.127 134.368  0.00  0.00    +0.000 A 
BRANCH  29  36
ATOM     36  N   UNL     1      -4.018  -5.926 133.364  0.00  0.00    +0.000 N 
ATOM     37  H   UNL     1      -4.383  -6.875 133.344  0.00  0.00    +0.000 HD
ATOM     38  H   UNL     1      -3.520  -5.729 134.223  0.00  0.00    +0.000 HD
ENDBRANCH  29  36
ENDBRANCH  24  25
ENDBRANCH  23  24
ENDBRANCH  22  23
ENDBRANCH  21  22
ENDBRANCH  20  21
ENDBRANCH   1  20
TORSDOF 13
ENDMDL
MODEL 3
REMARK VINA RESULT:      -7.5      1.885      7.424
REMARK  Name = Dequalinium
REMARK  15 active torsions:
REMARK  status: ('A' for Active; 'I' for Inactive)
REMARK    1  A    between atoms: C_1  and  C_2
REMARK    2  A    between atoms: C_4  and  N_5
REMARK    3  A    between atoms: N_12  and  C_13
REMARK    4  A    between atoms: C_13  and  C_14
REMARK    5  A    between atoms: C_14  and  C_15
REMARK    6  A    between atoms: C_15  and  C_16
REMARK    7  A    between atoms: C_16  and  C_17
REMARK    8  A    between atoms: C_17  and  C_18
REMARK    9  A    between atoms: C_18  and  C_19
REMARK   10  A    between atoms: C_19  and  C_20
REMARK   11  A    between atoms: C_20  and  C_21
REMARK   12  A    between atoms: C_21  and  C_22
REMARK   13  A    between atoms: C_22  and  N_23
REMARK   14  A    between atoms: C_24  and  C_25
REMARK   15  A    between atoms: C_27  and  N_28
REMARK                            x       y       z     vdW  Elec       q    Type
REMARK                         _______ _______ _______ _____ _____    ______ ____
ROOT
ATOM      1  C   UNL     1      -8.975  -3.861 127.932  0.00  0.00    +0.000 C 
ENDROOT
BRANCH   1   2
ATOM      2  C   UNL     1      -8.034  -3.691 129.090  0.00  0.00    +0.000 C 
BRANCH   2   3
ATOM      3  C   UNL     1      -7.466  -2.277 129.042  0.00  0.00    +0.000 C 
BRANCH   3   4
ATOM      4  C   UNL     1      -7.848  -1.649 130.346  0.00  0.00    +0.000 C 
BRANCH   4   5
ATOM      5  C   UNL     1      -6.771  -1.383 131.347  0.00  0.00    +0.000 C 
BRANCH   5  16
ATOM      6  C   UNL     1      -3.924  -2.327 130.309  0.00  0.00    +0.000 C 
ATOM      7  C   UNL     1      -4.786  -3.013 131.352  0.00  0.00    +0.000 A 
ATOM      8  C   UNL     1      -4.178  -4.157 131.873  0.00  0.00    +0.000 A 
ATOM      9  C   UNL     1      -4.768  -4.935 132.843  0.00  0.00    +0.000 A 
ATOM     10  C   UNL     1      -5.993  -4.502 133.358  0.00  0.00    +0.000 A 
ATOM     11  C   UNL     1      -6.578  -5.166 134.450  0.00  0.00    +0.000 A 
ATOM     12  C   UNL     1      -7.696  -4.653 135.095  0.00  0.00    +0.000 A 
ATOM     13  C   UNL     1      -8.383  -3.595 134.533  0.00  0.00    +0.000 A 
ATOM     14  C   UNL     1      -7.889  -2.982 133.379  0.00  0.00    +0.000 A 
ATOM     15  C   UNL     1      -6.642  -3.353 132.818  0.00  0.00    +0.000 A 
ATOM     16  N   UNL     1      -6.028  -2.619 131.813  0.00  0.00    +0.000 N 
BRANCH   9  17
ATOM     17  N   UNL     1      -3.977  -5.921 133.430  0.00  0.00    +0.000 N 
ATOM     18  H   UNL     1      -3.835  -5.881 134.436  0.00  0.00    +0.000 HD
ATOM     19  H   UNL     1      -3.149  -6.243 132.942  0.00  0.00    +0.000 HD
ENDBRANCH   9  17
ENDBRANCH   5  16
ENDBRANCH   4   5
ENDBRANCH   3   4
ENDBRANCH   2   3
ENDBRANCH   1   2
BRANCH   1  20
ATOM     20  C   UNL     1      -8.439  -3.102 126.746  0.00  0.00    +0.000 C 
BRANCH  20  21
ATOM     21  C   UNL     1      -9.490  -3.050 125.674  0.00  0.00    +0.000 C 
BRANCH  21  22
ATOM     22  C   UNL     1      -8.914  -3.691 124.415  0.00  0.00    +0.000 C 
BRANCH  22  23
ATOM     23  C   UNL     1      -9.221  -2.748 123.296  0.00  0.00    +0.000 C 
BRANCH  23  24
ATOM     24  C   UNL     1      -8.130  -1.903 122.746  0.00  0.00    +0.000 C 
BRANCH  24  25
ATOM     25  N   UNL     1      -7.248  -1.299 123.814  0.00  0.00    +0.000 N 
ATOM     26  C   UNL     1      -6.038  -1.823 124.233  0.00  0.00    +0.000 A 
ATOM     27  C   UNL     1      -5.283  -3.073 123.795  0.00  0.00    +0.000 C 
ATOM     28  C   UNL     1      -5.296  -1.130 125.206  0.00  0.00    +0.000 A 
ATOM     29  C   UNL     1      -5.720   0.042 125.784  0.00  0.00    +0.000 A 
ATOM     30  C   UNL     1      -6.910   0.597 125.318  0.00  0.00    +0.000 A 
ATOM     31  C   UNL     1      -7.695  -0.097 124.344  0.00  0.00    +0.000 A 
ATOM     32  C   UNL     1      -8.901   0.522 123.925  0.00  0.00    +0.000 A 
ATOM     33  C   UNL     1      -9.230   1.824 124.295  0.00  0.00    +0.000 A 
ATOM     34  C   UNL     1      -8.413   2.514 125.173  0.00  0.00    +0.000 A 
ATOM     35  C   UNL     1      -7.335   1.862 125.754  0.00  0.00    +0.000 A 
BRANCH  29  36
ATOM     36  N   UNL     1      -4.803   0.732 126.583  0.00  0.00    +0.000 N 
ATOM     37  H   UNL     1      -4.901   1.741 126.660  0.00  0.00    +0.000 HD
ATOM     38  H   UNL     1      -3.833   0.443 126.577  0.00  0.00    +0.000 HD
ENDBRANCH  29  36
ENDBRANCH  24  25
ENDBRANCH  23  24
ENDBRANCH  22  23
ENDBRANCH  21  22
ENDBRANCH  20  21
ENDBRANCH   1  20
TORSDOF 13
ENDMDL
MODEL 4
REMARK VINA RESULT:      -7.5      1.833      3.261
REMARK  Name = Dequalinium
REMARK  15 active torsions:
REMARK  status: ('A' for Active; 'I' for Inactive)
REMARK    1  A    between atoms: C_1  and  C_2
REMARK    2  A    between atoms: C_4  and  N_5
REMARK    3  A    between atoms: N_12  and  C_13
REMARK    4  A    between atoms: C_13  and  C_14
REMARK    5  A    between atoms: C_14  and  C_15
REMARK    6  A    between atoms: C_15  and  C_16
REMARK    7  A    between atoms: C_16  and  C_17
REMARK    8  A    between atoms: C_17  and  C_18
REMARK    9  A    between atoms: C_18  and  C_19
REMARK   10  A    between atoms: C_19  and  C_20
REMARK   11  A    between atoms: C_20  and  C_21
REMARK   12  A    between atoms: C_21  and  C_22
REMARK   13  A    between atoms: C_22  and  N_23
REMARK   14  A    between atoms: C_24  and  C_25
REMARK   15  A    between atoms: C_27  and  N_28
REMARK                            x       y       z     vdW  Elec       q    Type
REMARK                         _______ _______ _______ _____ _____    ______ ____
ROOT
ATOM      1  C   UNL     1      -8.397  -3.086 126.741  0.00  0.00    +0.000 C 
ENDROOT
BRANCH   1   2
ATOM      2  C   UNL     1      -9.446  -3.020 125.669  0.00  0.00    +0.000 C 
BRANCH   2   3
ATOM      3  C   UNL     1      -8.897  -3.699 124.419  0.00  0.00    +0.000 C 
BRANCH   3   4
ATOM      4  C   UNL     1      -9.203  -2.765 123.290  0.00  0.00    +0.000 C 
BRANCH   4   5
ATOM      5  C   UNL     1      -8.096  -1.917 122.752  0.00  0.00    +0.000 C 
BRANCH   5  16
ATOM      6  C   UNL     1      -5.312  -3.026 123.799  0.00  0.00    +0.000 C 
ATOM      7  C   UNL     1      -6.018  -1.763 124.255  0.00  0.00    +0.000 A 
ATOM      8  C   UNL     1      -5.288  -1.066 125.220  0.00  0.00    +0.000 A 
ATOM      9  C   UNL     1      -5.725   0.117 125.771  0.00  0.00    +0.000 A 
ATOM     10  C   UNL     1      -6.918   0.653 125.279  0.00  0.00    +0.000 A 
ATOM     11  C   UNL     1      -7.347   1.927 125.691  0.00  0.00    +0.000 A 
ATOM     12  C   UNL     1      -8.425   2.560 125.086  0.00  0.00    +0.000 A 
ATOM     13  C   UNL     1      -9.233   1.852 124.218  0.00  0.00    +0.000 A 
ATOM     14  C   UNL     1      -8.898   0.540 123.874  0.00  0.00    +0.000 A 
ATOM     15  C   UNL     1      -7.691  -0.058 124.316  0.00  0.00    +0.000 A 
ATOM     16  N   UNL     1      -7.231  -1.268 123.814  0.00  0.00    +0.000 N 
BRANCH   9  17
ATOM     17  N   UNL     1      -4.818   0.821 126.560  0.00  0.00    +0.000 N 
ATOM     18  H   UNL     1      -3.826   0.663 126.400  0.00  0.00    +0.000 HD
ATOM     19  H   UNL     1      -5.026   0.964 127.542  0.00  0.00    +0.000 HD
ENDBRANCH   9  17
ENDBRANCH   5  16
ENDBRANCH   4   5
ENDBRANCH   3   4
ENDBRANCH   2   3
ENDBRANCH   1   2
BRANCH   1  20
ATOM     20  C   UNL     1      -8.909  -3.928 127.881  0.00  0.00    +0.000 C 
BRANCH  20  21
ATOM     21  C   UNL     1      -8.126  -3.611 129.123  0.00  0.00    +0.000 C 
BRANCH  21  22
ATOM     22  C   UNL     1      -7.617  -2.178 129.008  0.00  0.00    +0.000 C 
BRANCH  22  23
ATOM     23  C   UNL     1      -7.912  -1.530 130.323  0.00  0.00    +0.000 C 
BRANCH  23  24
ATOM     24  C   UNL     1      -6.794  -1.262 131.263  0.00  0.00    +0.000 C 
BRANCH  24  25
ATOM     25  N   UNL     1      -6.078  -2.517 131.709  0.00  0.00    +0.000 N 
ATOM     26  C   UNL     1      -4.878  -2.971 131.194  0.00  0.00    +0.000 A 
ATOM     27  C   UNL     1      -3.980  -2.405 130.098  0.00  0.00    +0.000 C 
ATOM     28  C   UNL     1      -4.299  -4.131 131.736  0.00  0.00    +0.000 A 
ATOM     29  C   UNL     1      -4.876  -4.858 132.750  0.00  0.00    +0.000 A 
ATOM     30  C   UNL     1      -6.055  -4.366 133.306  0.00  0.00    +0.000 A 
ATOM     31  C   UNL     1      -6.676  -3.199 132.760  0.00  0.00    +0.000 A 
ATOM     32  C   UNL     1      -7.880  -2.762 133.369  0.00  0.00    +0.000 A 
ATOM     33  C   UNL     1      -8.353  -3.320 134.555  0.00  0.00    +0.000 A 
ATOM     34  C   UNL     1      -7.690  -4.397 135.117  0.00  0.00    +0.000 A 
ATOM     35  C   UNL     1      -6.625  -4.971 134.437  0.00  0.00    +0.000 A 
BRANCH  29  36
ATOM     36  N   UNL     1      -4.106  -5.868 133.333  0.00  0.00    +0.000 N 
ATOM     37  H   UNL     1      -4.494  -6.808 133.365  0.00  0.00    +0.000 HD
ATOM     38  H   UNL     1      -3.560  -5.655 134.159  0.00  0.00    +0.000 HD
ENDBRANCH  29  36
ENDBRANCH  24  25
ENDBRANCH  23  24
ENDBRANCH  22  23
ENDBRANCH  21  22
ENDBRANCH  20  21
ENDBRANCH   1  20
TORSDOF 13
ENDMDL
MODEL 5
REMARK VINA RESULT:      -7.4      1.251      6.352
REMARK  Name = Dequalinium
REMARK  15 active torsions:
REMARK  status: ('A' for Active; 'I' for Inactive)
REMARK    1  A    between atoms: C_1  and  C_2
REMARK    2  A    between atoms: C_4  and  N_5
REMARK    3  A    between atoms: N_12  and  C_13
REMARK    4  A    between atoms: C_13  and  C_14
REMARK    5  A    between atoms: C_14  and  C_15
REMARK    6  A    between atoms: C_15  and  C_16
REMARK    7  A    between atoms: C_16  and  C_17
REMARK    8  A    between atoms: C_17  and  C_18
REMARK    9  A    between atoms: C_18  and  C_19
REMARK   10  A    between atoms: C_19  and  C_20
REMARK   11  A    between atoms: C_20  and  C_21
REMARK   12  A    between atoms: C_21  and  C_22
REMARK   13  A    between atoms: C_22  and  N_23
REMARK   14  A    between atoms: C_24  and  C_25
REMARK   15  A    between atoms: C_27  and  N_28
REMARK                            x       y       z     vdW  Elec       q    Type
REMARK                         _______ _______ _______ _____ _____    ______ ____
ROOT
ATOM      1  C   UNL     1      -8.841  -3.093 126.993  0.00  0.00    +0.000 C 
ENDROOT
BRANCH   1   2
ATOM      2  C   UNL     1      -8.330  -3.952 128.114  0.00  0.00    +0.000 C 
BRANCH   2   3
ATOM      3  C   UNL     1      -8.327  -3.119 129.392  0.00  0.00    +0.000 C 
BRANCH   3   4
ATOM      4  C   UNL     1      -7.085  -3.520 130.126  0.00  0.00    +0.000 C 
BRANCH   4   5
ATOM      5  C   UNL     1      -6.819  -2.902 131.460  0.00  0.00    +0.000 C 
BRANCH   5  16
ATOM      6  C   UNL     1      -3.753  -2.453 130.770  0.00  0.00    +0.000 C 
ATOM      7  C   UNL     1      -4.779  -1.384 131.095  0.00  0.00    +0.000 A 
ATOM      8  C   UNL     1      -4.240  -0.097 131.040  0.00  0.00    +0.000 A 
ATOM      9  C   UNL     1      -4.987   1.033 131.285  0.00  0.00    +0.000 A 
ATOM     10  C   UNL     1      -6.352   0.860 131.529  0.00  0.00    +0.000 A 
ATOM     11  C   UNL     1      -7.200   1.976 131.642  0.00  0.00    +0.000 A 
ATOM     12  C   UNL     1      -8.580   1.834 131.703  0.00  0.00    +0.000 A 
ATOM     13  C   UNL     1      -9.131   0.580 131.877  0.00  0.00    +0.000 A 
ATOM     14  C   UNL     1      -8.303  -0.545 131.884  0.00  0.00    +0.000 A 
ATOM     15  C   UNL     1      -6.914  -0.447 131.618  0.00  0.00    +0.000 A 
ATOM     16  N   UNL     1      -6.115  -1.561 131.401  0.00  0.00    +0.000 N 
BRANCH   9  17
ATOM     17  N   UNL     1      -4.394   2.259 130.994  0.00  0.00    +0.000 N 
ATOM     18  H   UNL     1      -4.090   2.838 131.773  0.00  0.00    +0.000 HD
ATOM     19  H   UNL     1      -4.761   2.814 130.228  0.00  0.00    +0.000 HD
ENDBRANCH   9  17
ENDBRANCH   5  16
ENDBRANCH   4   5
ENDBRANCH   3   4
ENDBRANCH   2   3
ENDBRANCH   1   2
BRANCH   1  20
ATOM     20  C   UNL     1      -8.560  -3.777 125.681  0.00  0.00    +0.000 C 
BRANCH  20  21
ATOM     21  C   UNL     1      -9.329  -3.091 124.588  0.00  0.00    +0.000 C 
BRANCH  21  22
ATOM     22  C   UNL     1      -8.459  -3.076 123.335  0.00  0.00    +0.000 C 
BRANCH  22  23
ATOM     23  C   UNL     1      -8.591  -1.703 122.759  0.00  0.00    +0.000 C 
BRANCH  23  24
ATOM     24  C   UNL     1      -7.573  -0.677 123.099  0.00  0.00    +0.000 C 
BRANCH  24  25
ATOM     25  N   UNL     1      -7.862   0.041 124.398  0.00  0.00    +0.000 N 
ATOM     26  C   UNL     1      -8.900   0.934 124.596  0.00  0.00    +0.000 A 
ATOM     27  C   UNL     1      -9.979   1.443 123.646  0.00  0.00    +0.000 C 
ATOM     28  C   UNL     1      -9.082   1.495 125.872  0.00  0.00    +0.000 A 
ATOM     29  C   UNL     1      -8.265   1.216 126.942  0.00  0.00    +0.000 A 
ATOM     30  C   UNL     1      -7.257   0.272 126.753  0.00  0.00    +0.000 A 
ATOM     31  C   UNL     1      -7.037  -0.299 125.460  0.00  0.00    +0.000 A 
ATOM     32  C   UNL     1      -5.986  -1.243 125.341  0.00  0.00    +0.000 A 
ATOM     33  C   UNL     1      -5.309  -1.741 126.452  0.00  0.00    +0.000 A 
ATOM     34  C   UNL     1      -5.596  -1.238 127.710  0.00  0.00    +0.000 A 
ATOM     35  C   UNL     1      -6.476  -0.173 127.832  0.00  0.00    +0.000 A 
BRANCH  29  36
ATOM     36  N   UNL     1      -8.671   1.677 128.197  0.00  0.00    +0.000 N 
ATOM     37  H   UNL     1      -9.183   1.036 128.799  0.00  0.00    +0.000 HD
ATOM     38  H   UNL     1      -9.002   2.629 128.286  0.00  0.00    +0.000 HD
ENDBRANCH  29  36
ENDBRANCH  24  25
ENDBRANCH  23  24
ENDBRANCH  22  23
ENDBRANCH  21  22
ENDBRANCH  20  21
ENDBRANCH   1  20
TORSDOF 13
ENDMDL
MODEL 6
REMARK VINA RESULT:      -7.4      1.532      2.514
REMARK  Name = Dequalinium
REMARK  15 active torsions:
REMARK  status: ('A' for Active; 'I' for Inactive)
REMARK    1  A    between atoms: C_1  and  C_2
REMARK    2  A    between atoms: C_4  and  N_5
REMARK    3  A    between atoms: N_12  and  C_13
REMARK    4  A    between atoms: C_13  and  C_14
REMARK    5  A    between atoms: C_14  and  C_15
REMARK    6  A    between atoms: C_15  and  C_16
REMARK    7  A    between atoms: C_16  and  C_17
REMARK    8  A    between atoms: C_17  and  C_18
REMARK    9  A    between atoms: C_18  and  C_19
REMARK   10  A    between atoms: C_19  and  C_20
REMARK   11  A    between atoms: C_20  and  C_21
REMARK   12  A    between atoms: C_21  and  C_22
REMARK   13  A    between atoms: C_22  and  N_23
REMARK   14  A    between atoms: C_24  and  C_25
REMARK   15  A    between atoms: C_27  and  N_28
REMARK                            x       y       z     vdW  Elec       q    Type
REMARK                         _______ _______ _______ _____ _____    ______ ____
ROOT
ATOM      1  C   UNL     1      -9.079  -3.860 127.897  0.00  0.00    +0.000 C 
ENDROOT
BRANCH   1   2
ATOM      2  C   UNL     1      -8.547  -3.797 126.494  0.00  0.00    +0.000 C 
BRANCH   2   3
ATOM      3  C   UNL     1      -9.499  -2.949 125.658  0.00  0.00    +0.000 C 
BRANCH   3   4
ATOM      4  C   UNL     1      -9.150  -3.243 124.232  0.00  0.00    +0.000 C 
BRANCH   4   5
ATOM      5  C   UNL     1      -8.437  -2.192 123.445  0.00  0.00    +0.000 C 
BRANCH   5  16
ATOM      6  C   UNL     1      -5.558  -3.149 124.378  0.00  0.00    +0.000 C 
ATOM      7  C   UNL     1      -6.198  -1.800 124.643  0.00  0.00    +0.000 A 
ATOM      8  C   UNL     1      -5.358  -0.943 125.356  0.00  0.00    +0.000 A 
ATOM      9  C   UNL     1      -5.721   0.339 125.700  0.00  0.00    +0.000 A 
ATOM     10  C   UNL     1      -6.959   0.799 125.245  0.00  0.00    +0.000 A 
ATOM     11  C   UNL     1      -7.329   2.143 125.433  0.00  0.00    +0.000 A 
ATOM     12  C   UNL     1      -8.467   2.671 124.836  0.00  0.00    +0.000 A 
ATOM     13  C   UNL     1      -9.373   1.827 124.227  0.00  0.00    +0.000 A 
ATOM     14  C   UNL     1      -9.088   0.463 124.123  0.00  0.00    +0.000 A 
ATOM     15  C   UNL     1      -7.843  -0.069 124.540  0.00  0.00    +0.000 A 
ATOM     16  N   UNL     1      -7.451  -1.368 124.248  0.00  0.00    +0.000 N 
BRANCH   9  17
ATOM     17  N   UNL     1      -4.724   1.161 126.221  0.00  0.00    +0.000 N 
ATOM     18  H   UNL     1      -3.988   0.726 126.773  0.00  0.00    +0.000 HD
ATOM     19  H   UNL     1      -4.977   2.075 126.580  0.00  0.00    +0.000 HD
ENDBRANCH   9  17
ENDBRANCH   5  16
ENDBRANCH   4   5
ENDBRANCH   3   4
ENDBRANCH   2   3
ENDBRANCH   1   2
BRANCH   1  20
ATOM     20  C   UNL     1      -8.292  -2.914 128.765  0.00  0.00    +0.000 C 
BRANCH  20  21
ATOM     21  C   UNL     1      -7.181  -3.668 129.441  0.00  0.00    +0.000 C 
BRANCH  21  22
ATOM     22  C   UNL     1      -5.885  -2.895 129.221  0.00  0.00    +0.000 C 
BRANCH  22  23
ATOM     23  C   UNL     1      -6.290  -1.487 128.925  0.00  0.00    +0.000 C 
BRANCH  23  24
ATOM     24  C   UNL     1      -5.939  -0.416 129.893  0.00  0.00    +0.000 C 
BRANCH  24  25
ATOM     25  N   UNL     1      -7.149   0.253 130.505  0.00  0.00    +0.000 N 
ATOM     26  C   UNL     1      -7.911  -0.273 131.531  0.00  0.00    +0.000 A 
ATOM     27  C   UNL     1      -7.791  -1.587 132.297  0.00  0.00    +0.000 C 
ATOM     28  C   UNL     1      -8.985   0.480 132.038  0.00  0.00    +0.000 A 
ATOM     29  C   UNL     1      -9.334   1.717 131.551  0.00  0.00    +0.000 A 
ATOM     30  C   UNL     1      -8.529   2.269 130.557  0.00  0.00    +0.000 A 
ATOM     31  C   UNL     1      -7.443   1.515 130.009  0.00  0.00    +0.000 A 
ATOM     32  C   UNL     1      -6.674   2.136 128.992  0.00  0.00    +0.000 A 
ATOM     33  C   UNL     1      -6.837   3.479 128.657  0.00  0.00    +0.000 A 
ATOM     34  C   UNL     1      -7.839   4.218 129.260  0.00  0.00    +0.000 A 
ATOM     35  C   UNL     1      -8.734   3.584 130.111  0.00  0.00    +0.000 A 
BRANCH  29  36
ATOM     36  N   UNL     1     -10.286   2.444 132.270  0.00  0.00    +0.000 N 
ATOM     37  H   UNL     1     -10.980   1.927 132.804  0.00  0.00    +0.000 HD
ATOM     38  H   UNL     1     -10.672   3.287 131.862  0.00  0.00    +0.000 HD
ENDBRANCH  29  36
ENDBRANCH  24  25
ENDBRANCH  23  24
ENDBRANCH  22  23
ENDBRANCH  21  22
ENDBRANCH  20  21
ENDBRANCH   1  20
TORSDOF 13
ENDMDL
MODEL 7
REMARK VINA RESULT:      -7.3      1.022      5.823
REMARK  Name = Dequalinium
REMARK  15 active torsions:
REMARK  status: ('A' for Active; 'I' for Inactive)
REMARK    1  A    between atoms: C_1  and  C_2
REMARK    2  A    between atoms: C_4  and  N_5
REMARK    3  A    between atoms: N_12  and  C_13
REMARK    4  A    between atoms: C_13  and  C_14
REMARK    5  A    between atoms: C_14  and  C_15
REMARK    6  A    between atoms: C_15  and  C_16
REMARK    7  A    between atoms: C_16  and  C_17
REMARK    8  A    between atoms: C_17  and  C_18
REMARK    9  A    between atoms: C_18  and  C_19
REMARK   10  A    between atoms: C_19  and  C_20
REMARK   11  A    between atoms: C_20  and  C_21
REMARK   12  A    between atoms: C_21  and  C_22
REMARK   13  A    between atoms: C_22  and  N_23
REMARK   14  A    between atoms: C_24  and  C_25
REMARK   15  A    between atoms: C_27  and  N_28
REMARK                            x       y       z     vdW  Elec       q    Type
REMARK                         _______ _______ _______ _____ _____    ______ ____
ROOT
ATOM      1  C   UNL     1      -8.928  -3.936 127.751  0.00  0.00    +0.000 C 
ENDROOT
BRANCH   1   2
ATOM      2  C   UNL     1      -8.597  -3.320 129.080  0.00  0.00    +0.000 C 
BRANCH   2   3
ATOM      3  C   UNL     1      -7.091  -3.426 129.296  0.00  0.00    +0.000 C 
BRANCH   3   4
ATOM      4  C   UNL     1      -6.576  -2.022 129.218  0.00  0.00    +0.000 C 
BRANCH   4   5
ATOM      5  C   UNL     1      -6.833  -1.108 130.372  0.00  0.00    +0.000 C 
BRANCH   5  16
ATOM      6  C   UNL     1      -3.703  -0.765 130.771  0.00  0.00    +0.000 C 
ATOM      7  C   UNL     1      -4.710   0.333 130.487  0.00  0.00    +0.000 A 
ATOM      8  C   UNL     1      -4.110   1.590 130.383  0.00  0.00    +0.000 A 
ATOM      9  C   UNL     1      -4.824   2.735 130.116  0.00  0.00    +0.000 A 
ATOM     10  C   UNL     1      -6.194   2.596 129.876  0.00  0.00    +0.000 A 
ATOM     11  C   UNL     1      -6.956   3.700 129.454  0.00  0.00    +0.000 A 
ATOM     12  C   UNL     1      -8.272   3.554 129.035  0.00  0.00    +0.000 A 
ATOM     13  C   UNL     1      -8.924   2.354 129.236  0.00  0.00    +0.000 A 
ATOM     14  C   UNL     1      -8.224   1.265 129.761  0.00  0.00    +0.000 A 
ATOM     15  C   UNL     1      -6.829   1.327 130.005  0.00  0.00    +0.000 A 
ATOM     16  N   UNL     1      -6.075   0.203 130.314  0.00  0.00    +0.000 N 
BRANCH   9  17
ATOM     17  N   UNL     1      -4.092   3.885 129.829  0.00  0.00    +0.000 N 
ATOM     18  H   UNL     1      -3.369   3.824 129.116  0.00  0.00    +0.000 HD
ATOM     19  H   UNL     1      -3.825   4.501 130.589  0.00  0.00    +0.000 HD
ENDBRANCH   9  17
ENDBRANCH   5  16
ENDBRANCH   4   5
ENDBRANCH   3   4
ENDBRANCH   2   3
ENDBRANCH   1   2
BRANCH   1  20
ATOM     20  C   UNL     1      -8.567  -2.968 126.656  0.00  0.00    +0.000 C 
BRANCH  20  21
ATOM     21  C   UNL     1      -9.575  -3.075 125.547  0.00  0.00    +0.000 C 
BRANCH  21  22
ATOM     22  C   UNL     1      -8.861  -3.615 124.311  0.00  0.00    +0.000 C 
BRANCH  22  23
ATOM     23  C   UNL     1      -9.109  -2.618 123.225  0.00  0.00    +0.000 C 
BRANCH  23  24
ATOM     24  C   UNL     1      -7.987  -1.764 122.759  0.00  0.00    +0.000 C 
BRANCH  24  25
ATOM     25  N   UNL     1      -7.142  -1.223 123.890  0.00  0.00    +0.000 N 
ATOM     26  C   UNL     1      -5.955  -1.779 124.329  0.00  0.00    +0.000 A 
ATOM     27  C   UNL     1      -5.194  -3.016 123.861  0.00  0.00    +0.000 C 
ATOM     28  C   UNL     1      -5.245  -1.144 125.363  0.00  0.00    +0.000 A 
ATOM     29  C   UNL     1      -5.681   0.004 125.981  0.00  0.00    +0.000 A 
ATOM     30  C   UNL     1      -6.847   0.594 125.497  0.00  0.00    +0.000 A 
ATOM     31  C   UNL     1      -7.598  -0.043 124.460  0.00  0.00    +0.000 A 
ATOM     32  C   UNL     1      -8.781   0.609 124.025  0.00  0.00    +0.000 A 
ATOM     33  C   UNL     1      -9.113   1.895 124.445  0.00  0.00    +0.000 A 
ATOM     34  C   UNL     1      -8.325   2.533 125.388  0.00  0.00    +0.000 A 
ATOM     35  C   UNL     1      -7.277   1.841 125.977  0.00  0.00    +0.000 A 
BRANCH  29  36
ATOM     36  N   UNL     1      -4.791   0.644 126.848  0.00  0.00    +0.000 N 
ATOM     37  H   UNL     1      -3.808   0.388 126.798  0.00  0.00    +0.000 HD
ATOM     38  H   UNL     1      -5.084   0.840 127.797  0.00  0.00    +0.000 HD
ENDBRANCH  29  36
ENDBRANCH  24  25
ENDBRANCH  23  24
ENDBRANCH  22  23
ENDBRANCH  21  22
ENDBRANCH  20  21
ENDBRANCH   1  20
TORSDOF 13
ENDMDL
MODEL 8
REMARK VINA RESULT:      -7.3      1.452      6.509
REMARK  Name = Dequalinium
REMARK  15 active torsions:
REMARK  status: ('A' for Active; 'I' for Inactive)
REMARK    1  A    between atoms: C_1  and  C_2
REMARK    2  A    between atoms: C_4  and  N_5
REMARK    3  A    between atoms: N_12  and  C_13
REMARK    4  A    between atoms: C_13  and  C_14
REMARK    5  A    between atoms: C_14  and  C_15
REMARK    6  A    between atoms: C_15  and  C_16
REMARK    7  A    between atoms: C_16  and  C_17
REMARK    8  A    between atoms: C_17  and  C_18
REMARK    9  A    between atoms: C_18  and  C_19
REMARK   10  A    between atoms: C_19  and  C_20
REMARK   11  A    between atoms: C_20  and  C_21
REMARK   12  A    between atoms: C_21  and  C_22
REMARK   13  A    between atoms: C_22  and  N_23
REMARK   14  A    between atoms: C_24  and  C_25
REMARK   15  A    between atoms: C_27  and  N_28
REMARK                            x       y       z     vdW  Elec       q    Type
REMARK                         _______ _______ _______ _____ _____    ______ ____
ROOT
ATOM      1  C   UNL     1      -8.617  -3.593 127.916  0.00  0.00    +0.000 C 
ENDROOT
BRANCH   1   2
ATOM      2  C   UNL     1      -7.389  -3.452 128.770  0.00  0.00    +0.000 C 
BRANCH   2   3
ATOM      3  C   UNL     1      -7.831  -3.178 130.203  0.00  0.00    +0.000 C 
BRANCH   3   4
ATOM      4  C   UNL     1      -6.586  -2.789 130.938  0.00  0.00    +0.000 C 
BRANCH   4   5
ATOM      5  C   UNL     1      -5.989  -1.447 130.661  0.00  0.00    +0.000 C 
BRANCH   5  16
ATOM      6  C   UNL     1      -5.546  -0.744 133.724  0.00  0.00    +0.000 C 
ATOM      7  C   UNL     1      -6.437  -0.009 132.742  0.00  0.00    +0.000 A 
ATOM      8  C   UNL     1      -7.073   1.090 133.322  0.00  0.00    +0.000 A 
ATOM      9  C   UNL     1      -7.921   1.915 132.619  0.00  0.00    +0.000 A 
ATOM     10  C   UNL     1      -8.081   1.659 131.254  0.00  0.00    +0.000 A 
ATOM     11  C   UNL     1      -8.813   2.546 130.446  0.00  0.00    +0.000 A 
ATOM     12  C   UNL     1      -8.837   2.417 129.064  0.00  0.00    +0.000 A 
ATOM     13  C   UNL     1      -8.319   1.280 128.476  0.00  0.00    +0.000 A 
ATOM     14  C   UNL     1      -7.682   0.320 129.266  0.00  0.00    +0.000 A 
ATOM     15  C   UNL     1      -7.463   0.525 130.651  0.00  0.00    +0.000 A 
ATOM     16  N   UNL     1      -6.646  -0.303 131.408  0.00  0.00    +0.000 N 
BRANCH   9  17
ATOM     17  N   UNL     1      -8.324   3.092 133.246  0.00  0.00    +0.000 N 
ATOM     18  H   UNL     1      -8.807   3.790 132.685  0.00  0.00    +0.000 HD
ATOM     19  H   UNL     1      -7.713   3.516 133.936  0.00  0.00    +0.000 HD
ENDBRANCH   9  17
ENDBRANCH   5  16
ENDBRANCH   4   5
ENDBRANCH   3   4
ENDBRANCH   2   3
ENDBRANCH   1   2
BRANCH   1  20
ATOM     20  C   UNL     1      -8.611  -2.515 126.864  0.00  0.00    +0.000 C 
BRANCH  20  21
ATOM     21  C   UNL     1      -9.569  -2.886 125.768  0.00  0.00    +0.000 C 
BRANCH  21  22
ATOM     22  C   UNL     1      -8.786  -3.618 124.683  0.00  0.00    +0.000 C 
BRANCH  22  23
ATOM     23  C   UNL     1      -9.084  -2.901 123.406  0.00  0.00    +0.000 C 
BRANCH  23  24
ATOM     24  C   UNL     1      -8.030  -2.054 122.790  0.00  0.00    +0.000 C 
BRANCH  24  25
ATOM     25  N   UNL     1      -7.182  -1.326 123.808  0.00  0.00    +0.000 N 
ATOM     26  C   UNL     1      -6.009  -1.811 124.357  0.00  0.00    +0.000 A 
ATOM     27  C   UNL     1      -5.270  -3.127 124.137  0.00  0.00    +0.000 C 
ATOM     28  C   UNL     1      -5.294  -1.006 125.261  0.00  0.00    +0.000 A 
ATOM     29  C   UNL     1      -5.712   0.246 125.647  0.00  0.00    +0.000 A 
ATOM     30  C   UNL     1      -6.862   0.755 125.048  0.00  0.00    +0.000 A 
ATOM     31  C   UNL     1      -7.619  -0.052 124.141  0.00  0.00    +0.000 A 
ATOM     32  C   UNL     1      -8.785   0.529 123.580  0.00  0.00    +0.000 A 
ATOM     33  C   UNL     1      -9.094   1.877 123.747  0.00  0.00    +0.000 A 
ATOM     34  C   UNL     1      -8.300   2.665 124.561  0.00  0.00    +0.000 A 
ATOM     35  C   UNL     1      -7.270   2.078 125.282  0.00  0.00    +0.000 A 
BRANCH  29  36
ATOM     36  N   UNL     1      -4.815   1.020 126.388  0.00  0.00    +0.000 N 
ATOM     37  H   UNL     1      -3.912   0.615 126.620  0.00  0.00    +0.000 HD
ATOM     38  H   UNL     1      -5.171   1.606 127.133  0.00  0.00    +0.000 HD
ENDBRANCH  29  36
ENDBRANCH  24  25
ENDBRANCH  23  24
ENDBRANCH  22  23
ENDBRANCH  21  22
ENDBRANCH  20  21
ENDBRANCH   1  20
TORSDOF 13
ENDMDL
MODEL 9
REMARK VINA RESULT:      -7.3      1.744      6.866
REMARK  Name = Dequalinium
REMARK  15 active torsions:
REMARK  status: ('A' for Active; 'I' for Inactive)
REMARK    1  A    between atoms: C_1  and  C_2
REMARK    2  A    between atoms: C_4  and  N_5
REMARK    3  A    between atoms: N_12  and  C_13
REMARK    4  A    between atoms: C_13  and  C_14
REMARK    5  A    between atoms: C_14  and  C_15
REMARK    6  A    between atoms: C_15  and  C_16
REMARK    7  A    between atoms: C_16  and  C_17
REMARK    8  A    between atoms: C_17  and  C_18
REMARK    9  A    between atoms: C_18  and  C_19
REMARK   10  A    between atoms: C_19  and  C_20
REMARK   11  A    between atoms: C_20  and  C_21
REMARK   12  A    between atoms: C_21  and  C_22
REMARK   13  A    between atoms: C_22  and  N_23
REMARK   14  A    between atoms: C_24  and  C_25
REMARK   15  A    between atoms: C_27  and  N_28
REMARK                            x       y       z     vdW  Elec       q    Type
REMARK                         _______ _______ _______ _____ _____    ______ ____
ROOT
ATOM      1  C   UNL     1      -8.675  -3.691 127.943  0.00  0.00    +0.000 C 
ENDROOT
BRANCH   1   2
ATOM      2  C   UNL     1      -7.529  -3.713 128.914  0.00  0.00    +0.000 C 
BRANCH   2   3
ATOM      3  C   UNL     1      -7.977  -3.028 130.200  0.00  0.00    +0.000 C 
BRANCH   3   4
ATOM      4  C   UNL     1      -6.716  -2.673 130.925  0.00  0.00    +0.000 C 
BRANCH   4   5
ATOM      5  C   UNL     1      -6.104  -1.335 130.669  0.00  0.00    +0.000 C 
BRANCH   5  16
ATOM      6  C   UNL     1      -5.655  -0.680 133.742  0.00  0.00    +0.000 C 
ATOM      7  C   UNL     1      -6.537   0.079 132.770  0.00  0.00    +0.000 A 
ATOM      8  C   UNL     1      -7.162   1.176 133.365  0.00  0.00    +0.000 A 
ATOM      9  C   UNL     1      -8.000   2.021 132.673  0.00  0.00    +0.000 A 
ATOM     10  C   UNL     1      -8.161   1.786 131.305  0.00  0.00    +0.000 A 
ATOM     11  C   UNL     1      -8.883   2.692 130.509  0.00  0.00    +0.000 A 
ATOM     12  C   UNL     1      -8.907   2.583 129.125  0.00  0.00    +0.000 A 
ATOM     13  C   UNL     1      -8.401   1.448 128.521  0.00  0.00    +0.000 A 
ATOM     14  C   UNL     1      -7.775   0.470 129.298  0.00  0.00    +0.000 A 
ATOM     15  C   UNL     1      -7.555   0.654 130.686  0.00  0.00    +0.000 A 
ATOM     16  N   UNL     1      -6.748  -0.194 131.431  0.00  0.00    +0.000 N 
BRANCH   9  17
ATOM     17  N   UNL     1      -8.390   3.193 133.316  0.00  0.00    +0.000 N 
ATOM     18  H   UNL     1      -9.233   3.166 133.885  0.00  0.00    +0.000 HD
ATOM     19  H   UNL     1      -8.286   4.078 132.832  0.00  0.00    +0.000 HD
ENDBRANCH   9  17
ENDBRANCH   5  16
ENDBRANCH   4   5
ENDBRANCH   3   4
ENDBRANCH   2   3
ENDBRANCH   1   2
BRANCH   1  20
ATOM     20  C   UNL     1      -8.486  -2.546 126.983  0.00  0.00    +0.000 C 
BRANCH  20  21
ATOM     21  C   UNL     1      -9.486  -2.661 125.869  0.00  0.00    +0.000 C 
BRANCH  21  22
ATOM     22  C   UNL     1      -8.852  -3.477 124.747  0.00  0.00    +0.000 C 
BRANCH  22  23
ATOM     23  C   UNL     1      -9.174  -2.753 123.480  0.00  0.00    +0.000 C 
BRANCH  23  24
ATOM     24  C   UNL     1      -8.147  -1.868 122.873  0.00  0.00    +0.000 C 
BRANCH  24  25
ATOM     25  N   UNL     1      -8.162  -0.465 123.436  0.00  0.00    +0.000 N 
ATOM     26  C   UNL     1      -9.150   0.474 123.199  0.00  0.00    +0.000 A 
ATOM     27  C   UNL     1     -10.420   0.402 122.358  0.00  0.00    +0.000 C 
ATOM     28  C   UNL     1      -9.062   1.729 123.827  0.00  0.00    +0.000 A 
ATOM     29  C   UNL     1      -8.027   2.085 124.659  0.00  0.00    +0.000 A 
ATOM     30  C   UNL     1      -7.065   1.117 124.941  0.00  0.00    +0.000 A 
ATOM     31  C   UNL     1      -7.120  -0.161 124.300  0.00  0.00    +0.000 A 
ATOM     32  C   UNL     1      -6.100  -1.092 124.626  0.00  0.00    +0.000 A 
ATOM     33  C   UNL     1      -5.189  -0.860 125.654  0.00  0.00    +0.000 A 
ATOM     34  C   UNL     1      -5.205   0.352 126.323  0.00  0.00    +0.000 A 
ATOM     35  C   UNL     1      -6.060   1.356 125.892  0.00  0.00    +0.000 A 
BRANCH  29  36
ATOM     36  N   UNL     1      -8.160   3.278 125.375  0.00  0.00    +0.000 N 
ATOM     37  H   UNL     1      -7.345   3.880 125.456  0.00  0.00    +0.000 HD
ATOM     38  H   UNL     1      -8.724   3.285 126.216  0.00  0.00    +0.000 HD
ENDBRANCH  29  36
ENDBRANCH  24  25
ENDBRANCH  23  24
ENDBRANCH  22  23
ENDBRANCH  21  22
ENDBRANCH  20  21
ENDBRANCH   1  20
TORSDOF 13
ENDMDL
