MODEL 1
REMARK VINA RESULT:      -9.8      0.000      0.000
REMARK  Name = Deserpidine
REMARK  14 active torsions:
REMARK  status: ('A' for Active; 'I' for Inactive)
REMARK    1  A    between atoms: C_4  and  O_5
REMARK    2  A    between atoms: O_5  and  C_6
REMARK    3  A    between atoms: C_6  and  C_8
REMARK    4  A    between atoms: C_10  and  O_11
REMARK    5  A    between atoms: O_11  and  C_12
REMARK    6  A    between atoms: C_13  and  O_14
REMARK    7  A    between atoms: O_14  and  C_15
REMARK    8  A    between atoms: C_16  and  O_17
REMARK    9  A    between atoms: O_17  and  C_18
REMARK   10  A    between atoms: C_20  and  O_21
REMARK   11  A    between atoms: O_21  and  C_22
REMARK   12  A    between atoms: C_23  and  C_24
REMARK   13  A    between atoms: C_24  and  O_26
REMARK   14  A    between atoms: O_26  and  C_27
REMARK                            x       y       z     vdW  Elec       q    Type
REMARK                         _______ _______ _______ _____ _____    ______ ____
ROOT
ATOM      1  C   UNL     1      -8.037   4.152 133.843  0.00  0.00    +0.000 C 
ATOM      2  C   UNL     1      -7.042   3.094 134.204  0.00  0.00    +0.000 C 
ATOM      3  C   UNL     1      -6.236   2.540 132.726  0.00  0.00    +0.000 C 
ATOM      4  C   UNL     1      -5.210   3.096 133.538  0.00  0.00    +0.000 C 
ATOM      5  C   UNL     1      -6.018   4.750 132.748  0.00  0.00    +0.000 C 
ATOM      6  C   UNL     1      -7.264   5.330 133.345  0.00  0.00    +0.000 C 
ATOM      7  C   UNL     1      -8.236   6.113 132.385  0.00  0.00    +0.000 C 
ATOM      8  C   UNL     1      -8.954   5.242 131.316  0.00  0.00    +0.000 C 
ATOM      9  N   UNL     1      -9.581   4.066 131.832  0.00  0.00    +0.000 NA
ATOM     10  C   UNL     1     -10.133   3.207 130.763  0.00  0.00    +0.000 C 
ATOM     11  C   UNL     1     -11.395   3.994 130.392  0.00  0.00    +0.000 C 
ATOM     12  C   UNL     1     -11.050   5.415 130.047  0.00  0.00    +0.000 A 
ATOM     13  C   UNL     1      -9.908   6.004 130.513  0.00  0.00    +0.000 A 
ATOM     14  N   UNL     1      -9.759   7.245 129.970  0.00  0.00    +0.000 N 
ATOM     15  C   UNL     1     -10.927   7.553 129.320  0.00  0.00    +0.000 A 
ATOM     16  C   UNL     1     -11.328   8.734 128.706  0.00  0.00    +0.000 A 
ATOM     17  C   UNL     1     -12.630   8.746 128.203  0.00  0.00    +0.000 A 
ATOM     18  C   UNL     1     -13.467   7.629 128.288  0.00  0.00    +0.000 A 
ATOM     19  C   UNL     1     -13.032   6.450 128.869  0.00  0.00    +0.000 A 
ATOM     20  C   UNL     1     -11.746   6.420 129.388  0.00  0.00    +0.000 A 
ATOM     21  C   UNL     1      -8.977   3.398 132.911  0.00  0.00    +0.000 C 
ATOM     22  H   UNL     1      -8.948   7.852 130.036  0.00  0.00    +0.000 HD
ENDROOT
BRANCH   4  23
ATOM     23  O   UNL     1      -5.176   1.498 134.022  0.00  0.00    +0.000 OA
ATOM     24  C   UNL     1      -3.938   1.128 134.772  0.00  0.00    +0.000 C 
ENDBRANCH   4  23
BRANCH   5  25
ATOM     25  C   UNL     1      -6.384   5.726 130.950  0.00  0.00    +0.000 C 
ATOM     26  O   UNL     1      -6.806   5.274 129.932  0.00  0.00    +0.000 OA
BRANCH  25  27
ATOM     27  O   UNL     1      -6.309   7.074 130.650  0.00  0.00    +0.000 OA
ATOM     28  C   UNL     1      -4.970   7.672 130.648  0.00  0.00    +0.000 C 
ENDBRANCH  25  27
ENDBRANCH   5  25
BRANCH   3  29
ATOM     29  O   UNL     1      -5.002   2.740 131.826  0.00  0.00    +0.000 OA
BRANCH  29  30
ATOM     30  C   UNL     1      -5.198   2.014 130.738  0.00  0.00    +0.000 C 
ATOM     31  O   UNL     1      -6.216   1.378 131.055  0.00  0.00    +0.000 OA
BRANCH  30  32
ATOM     32  C   UNL     1      -4.500   2.792 129.109  0.00  0.00    +0.000 A 
ATOM     33  C   UNL     1      -3.715   4.246 128.614  0.00  0.00    +0.000 A 
ATOM     34  C   UNL     1      -4.233   5.115 127.573  0.00  0.00    +0.000 A 
ATOM     35  C   UNL     1      -5.289   4.517 126.891  0.00  0.00    +0.000 A 
ATOM     36  C   UNL     1      -5.870   3.240 127.297  0.00  0.00    +0.000 A 
ATOM     37  C   UNL     1      -5.514   2.457 128.371  0.00  0.00    +0.000 A 
BRANCH  34  38
ATOM     38  O   UNL     1      -3.954   6.504 127.534  0.00  0.00    +0.000 OA
ATOM     39  C   UNL     1      -2.634   6.894 128.003  0.00  0.00    +0.000 C 
ENDBRANCH  34  38
BRANCH  35  40
ATOM     40  O   UNL     1      -5.793   5.232 125.840  0.00  0.00    +0.000 OA
ATOM     41  C   UNL     1      -5.553   4.678 124.574  0.00  0.00    +0.000 C 
ENDBRANCH  35  40
BRANCH  36  42
ATOM     42  O   UNL     1      -6.963   2.734 126.636  0.00  0.00    +0.000 OA
ATOM     43  C   UNL     1      -8.076   2.416 127.468  0.00  0.00    +0.000 C 
ENDBRANCH  36  42
ENDBRANCH  30  32
ENDBRANCH  29  30
ENDBRANCH   3  29
TORSDOF 9
ENDMDL
MODEL 2
REMARK VINA RESULT:      -9.7      2.767      6.738
REMARK  Name = Deserpidine
REMARK  14 active torsions:
REMARK  status: ('A' for Active; 'I' for Inactive)
REMARK    1  A    between atoms: C_4  and  O_5
REMARK    2  A    between atoms: O_5  and  C_6
REMARK    3  A    between atoms: C_6  and  C_8
REMARK    4  A    between atoms: C_10  and  O_11
REMARK    5  A    between atoms: O_11  and  C_12
REMARK    6  A    between atoms: C_13  and  O_14
REMARK    7  A    between atoms: O_14  and  C_15
REMARK    8  A    between atoms: C_16  and  O_17
REMARK    9  A    between atoms: O_17  and  C_18
REMARK   10  A    between atoms: C_20  and  O_21
REMARK   11  A    between atoms: O_21  and  C_22
REMARK   12  A    between atoms: C_23  and  C_24
REMARK   13  A    between atoms: C_24  and  O_26
REMARK   14  A    between atoms: O_26  and  C_27
REMARK                            x       y       z     vdW  Elec       q    Type
REMARK                         _______ _______ _______ _____ _____    ______ ____
ROOT
ATOM      1  C   UNL     1      -3.029   3.566 127.770  0.00  0.00    +0.000 C 
ATOM      2  C   UNL     1      -2.333   4.508 128.702  0.00  0.00    +0.000 C 
ATOM      3  C   UNL     1      -3.549   5.513 129.510  0.00  0.00    +0.000 C 
ATOM      4  C   UNL     1      -2.904   4.784 130.545  0.00  0.00    +0.000 C 
ATOM      5  C   UNL     1      -4.181   3.410 129.840  0.00  0.00    +0.000 C 
ATOM      6  C   UNL     1      -3.828   2.625 128.613  0.00  0.00    +0.000 C 
ATOM      7  C   UNL     1      -5.012   2.126 127.702  0.00  0.00    +0.000 C 
ATOM      8  C   UNL     1      -5.797   3.246 126.964  0.00  0.00    +0.000 C 
ATOM      9  N   UNL     1      -4.977   4.186 126.267  0.00  0.00    +0.000 NA
ATOM     10  C   UNL     1      -5.759   5.301 125.694  0.00  0.00    +0.000 C 
ATOM     11  C   UNL     1      -6.393   4.609 124.483  0.00  0.00    +0.000 C 
ATOM     12  C   UNL     1      -7.133   3.373 124.906  0.00  0.00    +0.000 A 
ATOM     13  C   UNL     1      -6.824   2.720 126.068  0.00  0.00    +0.000 A 
ATOM     14  N   UNL     1      -7.707   1.707 126.291  0.00  0.00    +0.000 N 
ATOM     15  C   UNL     1      -8.461   1.558 125.154  0.00  0.00    +0.000 A 
ATOM     16  C   UNL     1      -9.413   0.599 124.827  0.00  0.00    +0.000 A 
ATOM     17  C   UNL     1      -9.943   0.684 123.538  0.00  0.00    +0.000 A 
ATOM     18  C   UNL     1      -9.558   1.688 122.644  0.00  0.00    +0.000 A 
ATOM     19  C   UNL     1      -8.637   2.655 123.006  0.00  0.00    +0.000 A 
ATOM     20  C   UNL     1      -8.087   2.583 124.277  0.00  0.00    +0.000 A 
ATOM     21  C   UNL     1      -3.726   4.524 126.812  0.00  0.00    +0.000 C 
ATOM     22  H   UNL     1      -7.797   1.142 127.130  0.00  0.00    +0.000 HD
ENDROOT
BRANCH   4  23
ATOM     23  O   UNL     1      -1.965   6.163 130.487  0.00  0.00    +0.000 OA
ATOM     24  C   UNL     1      -1.111   6.355 131.698  0.00  0.00    +0.000 C 
ENDBRANCH   4  23
BRANCH   5  25
ATOM     25  C   UNL     1      -6.200   3.003 129.562  0.00  0.00    +0.000 C 
ATOM     26  O   UNL     1      -6.757   1.951 129.600  0.00  0.00    +0.000 OA
BRANCH  25  27
ATOM     27  O   UNL     1      -7.258   3.877 129.395  0.00  0.00    +0.000 OA
ATOM     28  C   UNL     1      -8.601   3.289 129.388  0.00  0.00    +0.000 C 
ENDBRANCH  25  27
ENDBRANCH   5  25
BRANCH   3  29
ATOM     29  O   UNL     1      -4.423   5.645 130.771  0.00  0.00    +0.000 OA
BRANCH  29  30
ATOM     30  C   UNL     1      -5.227   6.677 130.575  0.00  0.00    +0.000 C 
ATOM     31  O   UNL     1      -4.949   6.979 129.405  0.00  0.00    +0.000 OA
BRANCH  30  32
ATOM     32  C   UNL     1      -6.828   6.674 131.664  0.00  0.00    +0.000 A 
ATOM     33  C   UNL     1      -7.646   5.605 132.742  0.00  0.00    +0.000 A 
ATOM     34  C   UNL     1      -9.025   5.191 132.559  0.00  0.00    +0.000 A 
ATOM     35  C   UNL     1      -9.648   5.932 131.559  0.00  0.00    +0.000 A 
ATOM     36  C   UNL     1      -8.933   6.891 130.722  0.00  0.00    +0.000 A 
ATOM     37  C   UNL     1      -7.592   7.200 130.756  0.00  0.00    +0.000 A 
BRANCH  34  38
ATOM     38  O   UNL     1      -9.522   3.960 133.055  0.00  0.00    +0.000 OA
ATOM     39  C   UNL     1      -8.569   2.861 133.077  0.00  0.00    +0.000 C 
ENDBRANCH  34  38
BRANCH  35  40
ATOM     40  O   UNL     1     -10.976   5.664 131.367  0.00  0.00    +0.000 OA
ATOM     41  C   UNL     1     -11.857   6.627 131.880  0.00  0.00    +0.000 C 
ENDBRANCH  35  40
BRANCH  36  42
ATOM     42  O   UNL     1      -9.580   7.537 129.697  0.00  0.00    +0.000 OA
ATOM     43  C   UNL     1      -9.949   6.705 128.599  0.00  0.00    +0.000 C 
ENDBRANCH  36  42
ENDBRANCH  30  32
ENDBRANCH  29  30
ENDBRANCH   3  29
TORSDOF 9
ENDMDL
MODEL 3
REMARK VINA RESULT:      -9.2      2.253      3.853
REMARK  Name = Deserpidine
REMARK  14 active torsions:
REMARK  status: ('A' for Active; 'I' for Inactive)
REMARK    1  A    between atoms: C_4  and  O_5
REMARK    2  A    between atoms: O_5  and  C_6
REMARK    3  A    between atoms: C_6  and  C_8
REMARK    4  A    between atoms: C_10  and  O_11
REMARK    5  A    between atoms: O_11  and  C_12
REMARK    6  A    between atoms: C_13  and  O_14
REMARK    7  A    between atoms: O_14  and  C_15
REMARK    8  A    between atoms: C_16  and  O_17
REMARK    9  A    between atoms: O_17  and  C_18
REMARK   10  A    between atoms: C_20  and  O_21
REMARK   11  A    between atoms: O_21  and  C_22
REMARK   12  A    between atoms: C_23  and  C_24
REMARK   13  A    between atoms: C_24  and  O_26
REMARK   14  A    between atoms: O_26  and  C_27
REMARK                            x       y       z     vdW  Elec       q    Type
REMARK                         _______ _______ _______ _____ _____    ______ ____
ROOT
ATOM      1  C   UNL     1      -8.268   0.462 130.335  0.00  0.00    +0.000 C 
ATOM      2  C   UNL     1      -7.043  -0.378 130.515  0.00  0.00    +0.000 C 
ATOM      3  C   UNL     1      -5.807   0.584 131.344  0.00  0.00    +0.000 C 
ATOM      4  C   UNL     1      -6.091  -0.507 132.210  0.00  0.00    +0.000 C 
ATOM      5  C   UNL     1      -7.630   0.713 132.607  0.00  0.00    +0.000 C 
ATOM      6  C   UNL     1      -8.820   0.731 131.697  0.00  0.00    +0.000 C 
ATOM      7  C   UNL     1      -9.627   2.078 131.580  0.00  0.00    +0.000 C 
ATOM      8  C   UNL     1      -8.870   3.246 130.888  0.00  0.00    +0.000 C 
ATOM      9  N   UNL     1      -8.264   2.903 129.640  0.00  0.00    +0.000 NA
ATOM     10  C   UNL     1      -7.448   4.005 129.088  0.00  0.00    +0.000 C 
ATOM     11  C   UNL     1      -8.547   4.933 128.560  0.00  0.00    +0.000 C 
ATOM     12  C   UNL     1      -9.532   5.260 129.646  0.00  0.00    +0.000 A 
ATOM     13  C   UNL     1      -9.696   4.441 130.728  0.00  0.00    +0.000 A 
ATOM     14  N   UNL     1     -10.550   5.007 131.626  0.00  0.00    +0.000 N 
ATOM     15  C   UNL     1     -11.118   6.101 131.022  0.00  0.00    +0.000 A 
ATOM     16  C   UNL     1     -12.130   6.946 131.463  0.00  0.00    +0.000 A 
ATOM     17  C   UNL     1     -12.539   7.928 130.559  0.00  0.00    +0.000 A 
ATOM     18  C   UNL     1     -11.948   8.067 129.299  0.00  0.00    +0.000 A 
ATOM     19  C   UNL     1     -10.915   7.238 128.897  0.00  0.00    +0.000 A 
ATOM     20  C   UNL     1     -10.501   6.246 129.774  0.00  0.00    +0.000 A 
ATOM     21  C   UNL     1      -7.743   1.607 129.476  0.00  0.00    +0.000 C 
ATOM     22  H   UNL     1     -10.755   4.687 132.567  0.00  0.00    +0.000 HD
ENDROOT
BRANCH   4  23
ATOM     23  O   UNL     1      -4.835  -1.131 131.303  0.00  0.00    +0.000 OA
ATOM     24  C   UNL     1      -4.244  -2.376 131.879  0.00  0.00    +0.000 C 
ENDBRANCH   4  23
BRANCH   5  25
ATOM     25  C   UNL     1      -8.112   2.600 133.333  0.00  0.00    +0.000 C 
ATOM     26  O   UNL     1      -9.088   2.940 133.925  0.00  0.00    +0.000 OA
BRANCH  25  27
ATOM     27  O   UNL     1      -7.352   3.754 133.355  0.00  0.00    +0.000 OA
ATOM     28  C   UNL     1      -7.864   4.863 134.167  0.00  0.00    +0.000 C 
ENDBRANCH  25  27
ENDBRANCH   5  25
BRANCH   3  29
ATOM     29  O   UNL     1      -5.208   0.929 132.721  0.00  0.00    +0.000 OA
BRANCH  29  30
ATOM     30  C   UNL     1      -4.191   1.746 132.504  0.00  0.00    +0.000 C 
ATOM     31  O   UNL     1      -3.259   1.108 133.017  0.00  0.00    +0.000 OA
BRANCH  30  32
ATOM     32  C   UNL     1      -4.399   2.908 130.971  0.00  0.00    +0.000 A 
ATOM     33  C   UNL     1      -3.917   2.949 129.315  0.00  0.00    +0.000 A 
ATOM     34  C   UNL     1      -3.163   4.044 128.733  0.00  0.00    +0.000 A 
ATOM     35  C   UNL     1      -3.085   5.127 129.604  0.00  0.00    +0.000 A 
ATOM     36  C   UNL     1      -3.584   5.076 130.975  0.00  0.00    +0.000 A 
ATOM     37  C   UNL     1      -4.164   4.008 131.620  0.00  0.00    +0.000 A 
BRANCH  34  38
ATOM     38  O   UNL     1      -2.312   3.870 127.613  0.00  0.00    +0.000 OA
ATOM     39  C   UNL     1      -2.982   3.610 126.348  0.00  0.00    +0.000 C 
ENDBRANCH  34  38
BRANCH  35  40
ATOM     40  O   UNL     1      -2.458   6.237 129.110  0.00  0.00    +0.000 OA
ATOM     41  C   UNL     1      -3.290   7.141 128.434  0.00  0.00    +0.000 C 
ENDBRANCH  35  40
BRANCH  36  42
ATOM     42  O   UNL     1      -3.411   6.148 131.817  0.00  0.00    +0.000 OA
ATOM     43  C   UNL     1      -4.434   6.316 132.795  0.00  0.00    +0.000 C 
ENDBRANCH  36  42
ENDBRANCH  30  32
ENDBRANCH  29  30
ENDBRANCH   3  29
TORSDOF 9
ENDMDL
MODEL 4
REMARK VINA RESULT:      -9.1      3.048      4.576
REMARK  Name = Deserpidine
REMARK  14 active torsions:
REMARK  status: ('A' for Active; 'I' for Inactive)
REMARK    1  A    between atoms: C_4  and  O_5
REMARK    2  A    between atoms: O_5  and  C_6
REMARK    3  A    between atoms: C_6  and  C_8
REMARK    4  A    between atoms: C_10  and  O_11
REMARK    5  A    between atoms: O_11  and  C_12
REMARK    6  A    between atoms: C_13  and  O_14
REMARK    7  A    between atoms: O_14  and  C_15
REMARK    8  A    between atoms: C_16  and  O_17
REMARK    9  A    between atoms: O_17  and  C_18
REMARK   10  A    between atoms: C_20  and  O_21
REMARK   11  A    between atoms: O_21  and  C_22
REMARK   12  A    between atoms: C_23  and  C_24
REMARK   13  A    between atoms: C_24  and  O_26
REMARK   14  A    between atoms: O_26  and  C_27
REMARK                            x       y       z     vdW  Elec       q    Type
REMARK                         _______ _______ _______ _____ _____    ______ ____
ROOT
ATOM      1  C   UNL     1      -6.270   3.564 131.816  0.00  0.00    +0.000 C 
ATOM      2  C   UNL     1      -5.619   2.238 132.053  0.00  0.00    +0.000 C 
ATOM      3  C   UNL     1      -6.250   1.073 130.877  0.00  0.00    +0.000 C 
ATOM      4  C   UNL     1      -4.856   1.164 130.617  0.00  0.00    +0.000 C 
ATOM      5  C   UNL     1      -5.532   2.808 129.691  0.00  0.00    +0.000 C 
ATOM      6  C   UNL     1      -5.803   4.051 130.483  0.00  0.00    +0.000 C 
ATOM      7  C   UNL     1      -6.926   5.019 129.956  0.00  0.00    +0.000 C 
ATOM      8  C   UNL     1      -8.373   4.456 130.029  0.00  0.00    +0.000 C 
ATOM      9  N   UNL     1      -8.731   3.899 131.295  0.00  0.00    +0.000 NA
ATOM     10  C   UNL     1     -10.064   3.261 131.275  0.00  0.00    +0.000 C 
ATOM     11  C   UNL     1     -10.969   4.497 131.305  0.00  0.00    +0.000 C 
ATOM     12  C   UNL     1     -10.620   5.437 130.187  0.00  0.00    +0.000 A 
ATOM     13  C   UNL     1      -9.381   5.429 129.610  0.00  0.00    +0.000 A 
ATOM     14  N   UNL     1      -9.347   6.281 128.548  0.00  0.00    +0.000 N 
ATOM     15  C   UNL     1     -10.505   7.016 128.571  0.00  0.00    +0.000 A 
ATOM     16  C   UNL     1     -10.904   8.089 127.783  0.00  0.00    +0.000 A 
ATOM     17  C   UNL     1     -12.125   8.674 128.124  0.00  0.00    +0.000 A 
ATOM     18  C   UNL     1     -12.909   8.191 129.177  0.00  0.00    +0.000 A 
ATOM     19  C   UNL     1     -12.509   7.096 129.924  0.00  0.00    +0.000 A 
ATOM     20  C   UNL     1     -11.293   6.507 129.611  0.00  0.00    +0.000 A 
ATOM     21  C   UNL     1      -7.741   3.240 132.045  0.00  0.00    +0.000 C 
ATOM     22  H   UNL     1      -8.604   6.382 127.863  0.00  0.00    +0.000 HD
ENDROOT
BRANCH   4  23
ATOM     23  O   UNL     1      -4.899  -0.093 131.716  0.00  0.00    +0.000 OA
ATOM     24  C   UNL     1      -3.659  -0.926 131.719  0.00  0.00    +0.000 C 
ENDBRANCH   4  23
BRANCH   5  25
ATOM     25  C   UNL     1      -6.785   3.462 128.168  0.00  0.00    +0.000 C 
ATOM     26  O   UNL     1      -7.827   3.004 127.816  0.00  0.00    +0.000 OA
BRANCH  25  27
ATOM     27  O   UNL     1      -6.691   4.591 127.376  0.00  0.00    +0.000 OA
ATOM     28  C   UNL     1      -7.265   4.498 126.030  0.00  0.00    +0.000 C 
ENDBRANCH  25  27
ENDBRANCH   5  25
BRANCH   3  29
ATOM     29  O   UNL     1      -6.002   0.427 129.500  0.00  0.00    +0.000 OA
BRANCH  29  30
ATOM     30  C   UNL     1      -7.136  -0.145 129.133  0.00  0.00    +0.000 C 
ATOM     31  O   UNL     1      -7.903   0.251 130.025  0.00  0.00    +0.000 OA
BRANCH  30  32
ATOM     32  C   UNL     1      -7.283  -0.509 127.238  0.00  0.00    +0.000 A 
ATOM     33  C   UNL     1      -8.006   0.206 125.845  0.00  0.00    +0.000 A 
ATOM     34  C   UNL     1      -8.951  -0.491 124.992  0.00  0.00    +0.000 A 
ATOM     35  C   UNL     1      -9.015  -1.846 125.307  0.00  0.00    +0.000 A 
ATOM     36  C   UNL     1      -8.317  -2.426 126.451  0.00  0.00    +0.000 A 
ATOM     37  C   UNL     1      -7.536  -1.775 127.378  0.00  0.00    +0.000 A 
BRANCH  34  38
ATOM     38  O   UNL     1      -9.934   0.189 124.231  0.00  0.00    +0.000 OA
ATOM     39  C   UNL     1      -9.548   1.501 123.736  0.00  0.00    +0.000 C 
ENDBRANCH  34  38
BRANCH  35  40
ATOM     40  O   UNL     1      -9.824  -2.600 124.503  0.00  0.00    +0.000 OA
ATOM     41  C   UNL     1      -9.209  -3.114 123.352  0.00  0.00    +0.000 C 
ENDBRANCH  35  40
BRANCH  36  42
ATOM     42  O   UNL     1      -8.479  -3.754 126.761  0.00  0.00    +0.000 OA
ATOM     43  C   UNL     1      -9.020  -4.009 128.055  0.00  0.00    +0.000 C 
ENDBRANCH  36  42
ENDBRANCH  30  32
ENDBRANCH  29  30
ENDBRANCH   3  29
TORSDOF 9
ENDMDL
MODEL 5
REMARK VINA RESULT:      -9.1      2.890      7.417
REMARK  Name = Deserpidine
REMARK  14 active torsions:
REMARK  status: ('A' for Active; 'I' for Inactive)
REMARK    1  A    between atoms: C_4  and  O_5
REMARK    2  A    between atoms: O_5  and  C_6
REMARK    3  A    between atoms: C_6  and  C_8
REMARK    4  A    between atoms: C_10  and  O_11
REMARK    5  A    between atoms: O_11  and  C_12
REMARK    6  A    between atoms: C_13  and  O_14
REMARK    7  A    between atoms: O_14  and  C_15
REMARK    8  A    between atoms: C_16  and  O_17
REMARK    9  A    between atoms: O_17  and  C_18
REMARK   10  A    between atoms: C_20  and  O_21
REMARK   11  A    between atoms: O_21  and  C_22
REMARK   12  A    between atoms: C_23  and  C_24
REMARK   13  A    between atoms: C_24  and  O_26
REMARK   14  A    between atoms: O_26  and  C_27
REMARK                            x       y       z     vdW  Elec       q    Type
REMARK                         _______ _______ _______ _____ _____    ______ ____
ROOT
ATOM      1  C   UNL     1      -2.949   5.235 127.686  0.00  0.00    +0.000 C 
ATOM      2  C   UNL     1      -2.981   6.407 128.616  0.00  0.00    +0.000 C 
ATOM      3  C   UNL     1      -4.376   6.240 129.697  0.00  0.00    +0.000 C 
ATOM      4  C   UNL     1      -3.232   6.222 130.540  0.00  0.00    +0.000 C 
ATOM      5  C   UNL     1      -3.245   4.336 129.863  0.00  0.00    +0.000 C 
ATOM      6  C   UNL     1      -2.669   4.024 128.516  0.00  0.00    +0.000 C 
ATOM      7  C   UNL     1      -3.280   2.806 127.726  0.00  0.00    +0.000 C 
ATOM      8  C   UNL     1      -4.743   2.999 127.240  0.00  0.00    +0.000 C 
ATOM      9  N   UNL     1      -4.983   4.228 126.551  0.00  0.00    +0.000 NA
ATOM     10  C   UNL     1      -6.412   4.423 126.227  0.00  0.00    +0.000 C 
ATOM     11  C   UNL     1      -6.567   3.463 125.043  0.00  0.00    +0.000 C 
ATOM     12  C   UNL     1      -6.111   2.082 125.417  0.00  0.00    +0.000 A 
ATOM     13  C   UNL     1      -5.227   1.876 126.440  0.00  0.00    +0.000 A 
ATOM     14  N   UNL     1      -5.063   0.542 126.664  0.00  0.00    +0.000 N 
ATOM     15  C   UNL     1      -5.673  -0.127 125.633  0.00  0.00    +0.000 A 
ATOM     16  C   UNL     1      -5.694  -1.484 125.331  0.00  0.00    +0.000 A 
ATOM     17  C   UNL     1      -6.347  -1.833 124.148  0.00  0.00    +0.000 A 
ATOM     18  C   UNL     1      -6.963  -0.879 123.332  0.00  0.00    +0.000 A 
ATOM     19  C   UNL     1      -6.962   0.463 123.673  0.00  0.00    +0.000 A 
ATOM     20  C   UNL     1      -6.308   0.834 124.838  0.00  0.00    +0.000 A 
ATOM     21  C   UNL     1      -4.278   5.375 126.953  0.00  0.00    +0.000 C 
ATOM     22  H   UNL     1      -4.569   0.104 127.435  0.00  0.00    +0.000 HD
ENDROOT
BRANCH   4  23
ATOM     23  O   UNL     1      -3.588   7.853 130.514  0.00  0.00    +0.000 OA
ATOM     24  C   UNL     1      -2.966   8.618 131.637  0.00  0.00    +0.000 C 
ENDBRANCH   4  23
BRANCH   5  25
ATOM     25  C   UNL     1      -4.374   2.591 129.823  0.00  0.00    +0.000 C 
ATOM     26  O   UNL     1      -3.995   1.462 129.819  0.00  0.00    +0.000 OA
BRANCH  25  27
ATOM     27  O   UNL     1      -5.745   2.429 129.903  0.00  0.00    +0.000 OA
ATOM     28  C   UNL     1      -6.237   1.052 130.012  0.00  0.00    +0.000 C 
ENDBRANCH  25  27
ENDBRANCH   5  25
BRANCH   3  29
ATOM     29  O   UNL     1      -4.835   5.725 131.074  0.00  0.00    +0.000 OA
BRANCH  29  30
ATOM     30  C   UNL     1      -6.153   5.823 131.102  0.00  0.00    +0.000 C 
ATOM     31  O   UNL     1      -6.393   6.149 129.929  0.00  0.00    +0.000 OA
BRANCH  30  32
ATOM     32  C   UNL     1      -7.019   4.728 132.442  0.00  0.00    +0.000 A 
ATOM     33  C   UNL     1      -6.632   3.378 133.444  0.00  0.00    +0.000 A 
ATOM     34  C   UNL     1      -7.392   2.142 133.441  0.00  0.00    +0.000 A 
ATOM     35  C   UNL     1      -8.573   2.273 132.717  0.00  0.00    +0.000 A 
ATOM     36  C   UNL     1      -8.901   3.471 131.948  0.00  0.00    +0.000 A 
ATOM     37  C   UNL     1      -8.137   4.606 131.795  0.00  0.00    +0.000 A 
BRANCH  34  38
ATOM     38  O   UNL     1      -6.817   0.895 133.793  0.00  0.00    +0.000 OA
ATOM     39  C   UNL     1      -5.379   0.790 133.601  0.00  0.00    +0.000 C 
ENDBRANCH  34  38
BRANCH  35  40
ATOM     40  O   UNL     1      -9.394   1.180 132.723  0.00  0.00    +0.000 OA
ATOM     41  C   UNL     1      -9.185   0.273 131.674  0.00  0.00    +0.000 C 
ENDBRANCH  35  40
BRANCH  36  42
ATOM     42  O   UNL     1     -10.043   3.517 131.188  0.00  0.00    +0.000 OA
ATOM     43  C   UNL     1     -10.313   4.779 130.583  0.00  0.00    +0.000 C 
ENDBRANCH  36  42
ENDBRANCH  30  32
ENDBRANCH  29  30
ENDBRANCH   3  29
TORSDOF 9
ENDMDL
MODEL 6
REMARK VINA RESULT:      -8.9      4.129      8.207
REMARK  Name = Deserpidine
REMARK  14 active torsions:
REMARK  status: ('A' for Active; 'I' for Inactive)
REMARK    1  A    between atoms: C_4  and  O_5
REMARK    2  A    between atoms: O_5  and  C_6
REMARK    3  A    between atoms: C_6  and  C_8
REMARK    4  A    between atoms: C_10  and  O_11
REMARK    5  A    between atoms: O_11  and  C_12
REMARK    6  A    between atoms: C_13  and  O_14
REMARK    7  A    between atoms: O_14  and  C_15
REMARK    8  A    between atoms: C_16  and  O_17
REMARK    9  A    between atoms: O_17  and  C_18
REMARK   10  A    between atoms: C_20  and  O_21
REMARK   11  A    between atoms: O_21  and  C_22
REMARK   12  A    between atoms: C_23  and  C_24
REMARK   13  A    between atoms: C_24  and  O_26
REMARK   14  A    between atoms: O_26  and  C_27
REMARK                            x       y       z     vdW  Elec       q    Type
REMARK                         _______ _______ _______ _____ _____    ______ ____
ROOT
ATOM      1  C   UNL     1      -7.600   1.916 125.163  0.00  0.00    +0.000 C 
ATOM      2  C   UNL     1      -7.800   0.562 124.560  0.00  0.00    +0.000 C 
ATOM      3  C   UNL     1      -7.145  -0.658 125.666  0.00  0.00    +0.000 C 
ATOM      4  C   UNL     1      -8.533  -0.942 125.560  0.00  0.00    +0.000 C 
ATOM      5  C   UNL     1      -8.545   0.570 126.875  0.00  0.00    +0.000 C 
ATOM      6  C   UNL     1      -8.458   1.984 126.386  0.00  0.00    +0.000 C 
ATOM      7  C   UNL     1      -7.780   3.042 127.334  0.00  0.00    +0.000 C 
ATOM      8  C   UNL     1      -6.254   2.849 127.558  0.00  0.00    +0.000 C 
ATOM      9  N   UNL     1      -5.495   2.675 126.360  0.00  0.00    +0.000 NA
ATOM     10  C   UNL     1      -4.075   2.364 126.631  0.00  0.00    +0.000 C 
ATOM     11  C   UNL     1      -3.555   3.748 127.032  0.00  0.00    +0.000 C 
ATOM     12  C   UNL     1      -4.378   4.321 128.151  0.00  0.00    +0.000 A 
ATOM     13  C   UNL     1      -5.663   3.908 128.373  0.00  0.00    +0.000 A 
ATOM     14  N   UNL     1      -6.155   4.480 129.508  0.00  0.00    +0.000 N 
ATOM     15  C   UNL     1      -5.262   5.443 129.905  0.00  0.00    +0.000 A 
ATOM     16  C   UNL     1      -5.349   6.381 130.927  0.00  0.00    +0.000 A 
ATOM     17  C   UNL     1      -4.289   7.285 131.014  0.00  0.00    +0.000 A 
ATOM     18  C   UNL     1      -3.196   7.231 130.143  0.00  0.00    +0.000 A 
ATOM     19  C   UNL     1      -3.113   6.263 129.157  0.00  0.00    +0.000 A 
ATOM     20  C   UNL     1      -4.161   5.363 129.043  0.00  0.00    +0.000 A 
ATOM     21  C   UNL     1      -6.082   1.989 125.283  0.00  0.00    +0.000 C 
ATOM     22  H   UNL     1      -7.026   4.260 129.980  0.00  0.00    +0.000 HD
ENDROOT
BRANCH   4  23
ATOM     23  O   UNL     1      -7.915  -1.887 124.330  0.00  0.00    +0.000 OA
ATOM     24  C   UNL     1      -8.889  -2.889 123.800  0.00  0.00    +0.000 C 
ENDBRANCH   4  23
BRANCH   5  25
ATOM     25  C   UNL     1      -7.874   1.143 128.757  0.00  0.00    +0.000 C 
ATOM     26  O   UNL     1      -8.448   1.773 129.589  0.00  0.00    +0.000 OA
BRANCH  25  27
ATOM     27  O   UNL     1      -6.704   0.809 129.412  0.00  0.00    +0.000 OA
ATOM     28  C   UNL     1      -6.688   0.999 130.866  0.00  0.00    +0.000 C 
ENDBRANCH  25  27
ENDBRANCH   5  25
BRANCH   3  29
ATOM     29  O   UNL     1      -7.499  -1.626 126.811  0.00  0.00    +0.000 OA
BRANCH  29  30
ATOM     30  C   UNL     1      -6.357  -2.021 127.348  0.00  0.00    +0.000 C 
ATOM     31  O   UNL     1      -5.566  -1.201 126.857  0.00  0.00    +0.000 OA
BRANCH  30  32
ATOM     32  C   UNL     1      -6.534  -2.933 129.046  0.00  0.00    +0.000 A 
ATOM     33  C   UNL     1      -7.422  -2.754 130.514  0.00  0.00    +0.000 A 
ATOM     34  C   UNL     1      -6.793  -2.651 131.817  0.00  0.00    +0.000 A 
ATOM     35  C   UNL     1      -5.433  -2.940 131.749  0.00  0.00    +0.000 A 
ATOM     36  C   UNL     1      -4.735  -3.168 130.487  0.00  0.00    +0.000 A 
ATOM     37  C   UNL     1      -5.260  -3.120 129.215  0.00  0.00    +0.000 A 
BRANCH  34  38
ATOM     38  O   UNL     1      -7.403  -1.976 132.905  0.00  0.00    +0.000 OA
ATOM     39  C   UNL     1      -8.129  -2.820 133.840  0.00  0.00    +0.000 C 
ENDBRANCH  34  38
BRANCH  35  40
ATOM     40  O   UNL     1      -4.770  -2.944 132.945  0.00  0.00    +0.000 OA
ATOM     41  C   UNL     1      -4.669  -4.197 133.566  0.00  0.00    +0.000 C 
ENDBRANCH  35  40
BRANCH  36  42
ATOM     42  O   UNL     1      -3.377  -3.371 130.471  0.00  0.00    +0.000 OA
ATOM     43  C   UNL     1      -2.827  -3.667 129.190  0.00  0.00    +0.000 C 
ENDBRANCH  36  42
ENDBRANCH  30  32
ENDBRANCH  29  30
ENDBRANCH   3  29
TORSDOF 9
ENDMDL
MODEL 7
REMARK VINA RESULT:      -8.8      4.059      8.785
REMARK  Name = Deserpidine
REMARK  14 active torsions:
REMARK  status: ('A' for Active; 'I' for Inactive)
REMARK    1  A    between atoms: C_4  and  O_5
REMARK    2  A    between atoms: O_5  and  C_6
REMARK    3  A    between atoms: C_6  and  C_8
REMARK    4  A    between atoms: C_10  and  O_11
REMARK    5  A    between atoms: O_11  and  C_12
REMARK    6  A    between atoms: C_13  and  O_14
REMARK    7  A    between atoms: O_14  and  C_15
REMARK    8  A    between atoms: C_16  and  O_17
REMARK    9  A    between atoms: O_17  and  C_18
REMARK   10  A    between atoms: C_20  and  O_21
REMARK   11  A    between atoms: O_21  and  C_22
REMARK   12  A    between atoms: C_23  and  C_24
REMARK   13  A    between atoms: C_24  and  O_26
REMARK   14  A    between atoms: O_26  and  C_27
REMARK                            x       y       z     vdW  Elec       q    Type
REMARK                         _______ _______ _______ _____ _____    ______ ____
ROOT
ATOM      1  C   UNL     1      -9.383   0.008 125.361  0.00  0.00    +0.000 C 
ATOM      2  C   UNL     1      -9.415   1.148 124.393  0.00  0.00    +0.000 C 
ATOM      3  C   UNL     1      -7.849   1.977 124.434  0.00  0.00    +0.000 C 
ATOM      4  C   UNL     1      -7.989   1.484 123.108  0.00  0.00    +0.000 C 
ATOM      5  C   UNL     1      -7.395  -0.167 124.076  0.00  0.00    +0.000 C 
ATOM      6  C   UNL     1      -8.393  -0.983 124.839  0.00  0.00    +0.000 C 
ATOM      7  C   UNL     1      -7.875  -1.781 126.093  0.00  0.00    +0.000 C 
ATOM      8  C   UNL     1      -7.423  -0.905 127.295  0.00  0.00    +0.000 C 
ATOM      9  N   UNL     1      -8.360   0.103 127.681  0.00  0.00    +0.000 NA
ATOM     10  C   UNL     1      -7.829   0.990 128.737  0.00  0.00    +0.000 C 
ATOM     11  C   UNL     1      -7.956   0.079 129.962  0.00  0.00    +0.000 C 
ATOM     12  C   UNL     1      -7.258  -1.229 129.725  0.00  0.00    +0.000 A 
ATOM     13  C   UNL     1      -7.036  -1.699 128.460  0.00  0.00    +0.000 A 
ATOM     14  N   UNL     1      -6.286  -2.835 128.501  0.00  0.00    +0.000 N 
ATOM     15  C   UNL     1      -6.207  -3.230 129.812  0.00  0.00    +0.000 A 
ATOM     16  C   UNL     1      -5.660  -4.379 130.373  0.00  0.00    +0.000 A 
ATOM     17  C   UNL     1      -5.821  -4.518 131.752  0.00  0.00    +0.000 A 
ATOM     18  C   UNL     1      -6.470  -3.549 132.524  0.00  0.00    +0.000 A 
ATOM     19  C   UNL     1      -6.973  -2.395 131.949  0.00  0.00    +0.000 A 
ATOM     20  C   UNL     1      -6.836  -2.241 130.578  0.00  0.00    +0.000 A 
ATOM     21  C   UNL     1      -9.133   0.722 126.684  0.00  0.00    +0.000 C 
ATOM     22  H   UNL     1      -5.866  -3.324 127.716  0.00  0.00    +0.000 HD
ENDROOT
BRANCH   4  23
ATOM     23  O   UNL     1      -8.663   3.005 122.961  0.00  0.00    +0.000 OA
ATOM     24  C   UNL     1      -8.735   3.492 121.550  0.00  0.00    +0.000 C 
ENDBRANCH   4  23
BRANCH   5  25
ATOM     25  C   UNL     1      -5.834  -0.973 125.187  0.00  0.00    +0.000 C 
ATOM     26  O   UNL     1      -5.103  -0.421 125.948  0.00  0.00    +0.000 OA
BRANCH  25  27
ATOM     27  O   UNL     1      -5.442  -2.291 125.323  0.00  0.00    +0.000 OA
ATOM     28  C   UNL     1      -5.118  -3.012 124.087  0.00  0.00    +0.000 C 
ENDBRANCH  25  27
ENDBRANCH   5  25
BRANCH   3  29
ATOM     29  O   UNL     1      -6.462   2.060 123.771  0.00  0.00    +0.000 OA
BRANCH  29  30
ATOM     30  C   UNL     1      -5.804   3.035 124.375  0.00  0.00    +0.000 C 
ATOM     31  O   UNL     1      -5.851   3.926 123.513  0.00  0.00    +0.000 OA
BRANCH  30  32
ATOM     32  C   UNL     1      -5.859   2.971 126.309  0.00  0.00    +0.000 A 
ATOM     33  C   UNL     1      -6.571   3.860 127.604  0.00  0.00    +0.000 A 
ATOM     34  C   UNL     1      -5.799   4.448 128.684  0.00  0.00    +0.000 A 
ATOM     35  C   UNL     1      -4.477   4.013 128.659  0.00  0.00    +0.000 A 
ATOM     36  C   UNL     1      -3.936   3.188 127.582  0.00  0.00    +0.000 A 
ATOM     37  C   UNL     1      -4.590   2.738 126.458  0.00  0.00    +0.000 A 
BRANCH  34  38
ATOM     38  O   UNL     1      -6.241   5.588 129.401  0.00  0.00    +0.000 OA
ATOM     39  C   UNL     1      -7.227   5.333 130.440  0.00  0.00    +0.000 C 
ENDBRANCH  34  38
BRANCH  35  40
ATOM     40  O   UNL     1      -3.691   4.454 129.687  0.00  0.00    +0.000 OA
ATOM     41  C   UNL     1      -3.734   3.670 130.849  0.00  0.00    +0.000 C 
ENDBRANCH  35  40
BRANCH  36  42
ATOM     42  O   UNL     1      -2.604   2.853 127.567  0.00  0.00    +0.000 OA
ATOM     43  C   UNL     1      -1.885   3.296 126.419  0.00  0.00    +0.000 C 
ENDBRANCH  36  42
ENDBRANCH  30  32
ENDBRANCH  29  30
ENDBRANCH   3  29
TORSDOF 9
ENDMDL
MODEL 8
REMARK VINA RESULT:      -8.7      3.528      8.017
REMARK  Name = Deserpidine
REMARK  14 active torsions:
REMARK  status: ('A' for Active; 'I' for Inactive)
REMARK    1  A    between atoms: C_4  and  O_5
REMARK    2  A    between atoms: O_5  and  C_6
REMARK    3  A    between atoms: C_6  and  C_8
REMARK    4  A    between atoms: C_10  and  O_11
REMARK    5  A    between atoms: O_11  and  C_12
REMARK    6  A    between atoms: C_13  and  O_14
REMARK    7  A    between atoms: O_14  and  C_15
REMARK    8  A    between atoms: C_16  and  O_17
REMARK    9  A    between atoms: O_17  and  C_18
REMARK   10  A    between atoms: C_20  and  O_21
REMARK   11  A    between atoms: O_21  and  C_22
REMARK   12  A    between atoms: C_23  and  C_24
REMARK   13  A    between atoms: C_24  and  O_26
REMARK   14  A    between atoms: O_26  and  C_27
REMARK                            x       y       z     vdW  Elec       q    Type
REMARK                         _______ _______ _______ _____ _____    ______ ____
ROOT
ATOM      1  C   UNL     1      -4.343   3.445 125.861  0.00  0.00    +0.000 C 
ATOM      2  C   UNL     1      -4.146   4.732 126.598  0.00  0.00    +0.000 C 
ATOM      3  C   UNL     1      -5.362   4.846 127.883  0.00  0.00    +0.000 C 
ATOM      4  C   UNL     1      -4.103   4.840 128.543  0.00  0.00    +0.000 C 
ATOM      5  C   UNL     1      -4.354   2.887 128.169  0.00  0.00    +0.000 C 
ATOM      6  C   UNL     1      -4.020   2.339 126.815  0.00  0.00    +0.000 C 
ATOM      7  C   UNL     1      -4.831   1.085 126.316  0.00  0.00    +0.000 C 
ATOM      8  C   UNL     1      -6.336   1.343 126.025  0.00  0.00    +0.000 C 
ATOM      9  N   UNL     1      -6.595   2.480 125.199  0.00  0.00    +0.000 NA
ATOM     10  C   UNL     1      -8.040   2.759 125.061  0.00  0.00    +0.000 C 
ATOM     11  C   UNL     1      -8.446   1.663 124.071  0.00  0.00    +0.000 C 
ATOM     12  C   UNL     1      -8.034   0.311 124.580  0.00  0.00    +0.000 A 
ATOM     13  C   UNL     1      -7.017   0.169 125.482  0.00  0.00    +0.000 A 
ATOM     14  N   UNL     1      -6.912  -1.131 125.879  0.00  0.00    +0.000 N 
ATOM     15  C   UNL     1      -7.723  -1.878 125.062  0.00  0.00    +0.000 A 
ATOM     16  C   UNL     1      -7.886  -3.256 124.975  0.00  0.00    +0.000 A 
ATOM     17  C   UNL     1      -8.739  -3.704 123.965  0.00  0.00    +0.000 A 
ATOM     18  C   UNL     1      -9.408  -2.820 123.113  0.00  0.00    +0.000 A 
ATOM     19  C   UNL     1      -9.260  -1.450 123.244  0.00  0.00    +0.000 A 
ATOM     20  C   UNL     1      -8.406  -0.982 124.231  0.00  0.00    +0.000 A 
ATOM     21  C   UNL     1      -5.757   3.603 125.317  0.00  0.00    +0.000 C 
ATOM     22  H   UNL     1      -6.336  -1.501 126.628  0.00  0.00    +0.000 HD
ENDROOT
BRANCH   4  23
ATOM     23  O   UNL     1      -4.345   6.478 128.323  0.00  0.00    +0.000 OA
ATOM     24  C   UNL     1      -3.403   7.331 129.108  0.00  0.00    +0.000 C 
ENDBRANCH   4  23
BRANCH   5  25
ATOM     25  C   UNL     1      -5.594   1.265 128.558  0.00  0.00    +0.000 C 
ATOM     26  O   UNL     1      -5.297   0.120 128.696  0.00  0.00    +0.000 OA
BRANCH  25  27
ATOM     27  O   UNL     1      -6.949   1.240 128.830  0.00  0.00    +0.000 OA
ATOM     28  C   UNL     1      -7.478   0.004 129.415  0.00  0.00    +0.000 C 
ENDBRANCH  25  27
ENDBRANCH   5  25
BRANCH   3  29
ATOM     29  O   UNL     1      -5.633   4.572 129.374  0.00  0.00    +0.000 OA
BRANCH  29  30
ATOM     30  C   UNL     1      -6.642   5.348 129.730  0.00  0.00    +0.000 C 
ATOM     31  O   UNL     1      -7.564   4.869 129.052  0.00  0.00    +0.000 OA
BRANCH  30  32
ATOM     32  C   UNL     1      -6.479   6.129 131.494  0.00  0.00    +0.000 A 
ATOM     33  C   UNL     1      -5.384   6.079 132.825  0.00  0.00    +0.000 A 
ATOM     34  C   UNL     1      -5.781   5.701 134.168  0.00  0.00    +0.000 A 
ATOM     35  C   UNL     1      -7.166   5.614 134.283  0.00  0.00    +0.000 A 
ATOM     36  C   UNL     1      -8.064   5.747 133.139  0.00  0.00    +0.000 A 
ATOM     37  C   UNL     1      -7.722   5.949 131.821  0.00  0.00    +0.000 A 
BRANCH  34  38
ATOM     38  O   UNL     1      -4.876   5.130 135.097  0.00  0.00    +0.000 OA
ATOM     39  C   UNL     1      -3.867   4.248 134.530  0.00  0.00    +0.000 C 
ENDBRANCH  34  38
BRANCH  35  40
ATOM     40  O   UNL     1      -7.638   5.337 135.536  0.00  0.00    +0.000 OA
ATOM     41  C   UNL     1      -7.885   6.460 136.340  0.00  0.00    +0.000 C 
ENDBRANCH  35  40
BRANCH  36  42
ATOM     42  O   UNL     1      -9.417   5.573 133.295  0.00  0.00    +0.000 OA
ATOM     43  C   UNL     1     -10.211   6.015 132.197  0.00  0.00    +0.000 C 
ENDBRANCH  36  42
ENDBRANCH  30  32
ENDBRANCH  29  30
ENDBRANCH   3  29
TORSDOF 9
ENDMDL
MODEL 9
REMARK VINA RESULT:      -8.6      2.734      4.828
REMARK  Name = Deserpidine
REMARK  14 active torsions:
REMARK  status: ('A' for Active; 'I' for Inactive)
REMARK    1  A    between atoms: C_4  and  O_5
REMARK    2  A    between atoms: O_5  and  C_6
REMARK    3  A    between atoms: C_6  and  C_8
REMARK    4  A    between atoms: C_10  and  O_11
REMARK    5  A    between atoms: O_11  and  C_12
REMARK    6  A    between atoms: C_13  and  O_14
REMARK    7  A    between atoms: O_14  and  C_15
REMARK    8  A    between atoms: C_16  and  O_17
REMARK    9  A    between atoms: O_17  and  C_18
REMARK   10  A    between atoms: C_20  and  O_21
REMARK   11  A    between atoms: O_21  and  C_22
REMARK   12  A    between atoms: C_23  and  C_24
REMARK   13  A    between atoms: C_24  and  O_26
REMARK   14  A    between atoms: O_26  and  C_27
REMARK                            x       y       z     vdW  Elec       q    Type
REMARK                         _______ _______ _______ _____ _____    ______ ____
ROOT
ATOM      1  C   UNL     1      -6.102   5.924 133.327  0.00  0.00    +0.000 C 
ATOM      2  C   UNL     1      -5.342   4.833 134.011  0.00  0.00    +0.000 C 
ATOM      3  C   UNL     1      -5.814   3.278 133.304  0.00  0.00    +0.000 C 
ATOM      4  C   UNL     1      -4.424   3.414 133.039  0.00  0.00    +0.000 C 
ATOM      5  C   UNL     1      -5.208   4.565 131.598  0.00  0.00    +0.000 C 
ATOM      6  C   UNL     1      -5.625   5.970 131.911  0.00  0.00    +0.000 C 
ATOM      7  C   UNL     1      -6.810   6.581 131.074  0.00  0.00    +0.000 C 
ATOM      8  C   UNL     1      -8.201   5.935 131.324  0.00  0.00    +0.000 C 
ATOM      9  N   UNL     1      -8.559   5.812 132.703  0.00  0.00    +0.000 NA
ATOM     10  C   UNL     1      -9.826   5.075 132.893  0.00  0.00    +0.000 C 
ATOM     11  C   UNL     1     -10.841   6.148 132.489  0.00  0.00    +0.000 C 
ATOM     12  C   UNL     1     -10.533   6.680 131.118  0.00  0.00    +0.000 A 
ATOM     13  C   UNL     1      -9.275   6.599 130.588  0.00  0.00    +0.000 A 
ATOM     14  N   UNL     1      -9.275   7.035 129.298  0.00  0.00    +0.000 N 
ATOM     15  C   UNL     1     -10.496   7.612 129.057  0.00  0.00    +0.000 A 
ATOM     16  C   UNL     1     -10.958   8.305 127.944  0.00  0.00    +0.000 A 
ATOM     17  C   UNL     1     -12.241   8.846 128.054  0.00  0.00    +0.000 A 
ATOM     18  C   UNL     1     -13.020   8.676 129.202  0.00  0.00    +0.000 A 
ATOM     19  C   UNL     1     -12.553   7.949 130.284  0.00  0.00    +0.000 A 
ATOM     20  C   UNL     1     -11.276   7.414 130.202  0.00  0.00    +0.000 A 
ATOM     21  C   UNL     1      -7.546   5.552 133.642  0.00  0.00    +0.000 C 
ATOM     22  H   UNL     1      -8.516   6.970 128.626  0.00  0.00    +0.000 HD
ENDROOT
BRANCH   4  23
ATOM     23  O   UNL     1      -4.398   2.612 134.504  0.00  0.00    +0.000 OA
ATOM     24  C   UNL     1      -3.431   1.474 134.544  0.00  0.00    +0.000 C 
ENDBRANCH   4  23
BRANCH   5  25
ATOM     25  C   UNL     1      -6.452   4.529 129.933  0.00  0.00    +0.000 C 
ATOM     26  O   UNL     1      -6.366   5.163 128.929  0.00  0.00    +0.000 OA
BRANCH  25  27
ATOM     27  O   UNL     1      -7.520   3.698 129.652  0.00  0.00    +0.000 OA
ATOM     28  C   UNL     1      -7.968   3.654 128.256  0.00  0.00    +0.000 C 
ENDBRANCH  25  27
ENDBRANCH   5  25
BRANCH   3  29
ATOM     29  O   UNL     1      -5.450   2.229 132.236  0.00  0.00    +0.000 OA
BRANCH  29  30
ATOM     30  C   UNL     1      -6.432   1.344 132.215  0.00  0.00    +0.000 C 
ATOM     31  O   UNL     1      -7.305   1.940 132.865  0.00  0.00    +0.000 OA
BRANCH  30  32
ATOM     32  C   UNL     1      -6.411   0.146 130.695  0.00  0.00    +0.000 A 
ATOM     33  C   UNL     1      -7.491  -0.937 129.898  0.00  0.00    +0.000 A 
ATOM     34  C   UNL     1      -7.198  -2.343 129.689  0.00  0.00    +0.000 A 
ATOM     35  C   UNL     1      -5.873  -2.637 130.001  0.00  0.00    +0.000 A 
ATOM     36  C   UNL     1      -4.966  -1.663 130.600  0.00  0.00    +0.000 A 
ATOM     37  C   UNL     1      -5.246  -0.364 130.961  0.00  0.00    +0.000 A 
BRANCH  34  38
ATOM     38  O   UNL     1      -8.215  -3.322 129.565  0.00  0.00    +0.000 OA
ATOM     39  C   UNL     1      -8.624  -3.634 128.205  0.00  0.00    +0.000 C 
ENDBRANCH  34  38
BRANCH  35  40
ATOM     40  O   UNL     1      -5.483  -3.926 129.762  0.00  0.00    +0.000 OA
ATOM     41  C   UNL     1      -5.553  -4.784 130.868  0.00  0.00    +0.000 C 
ENDBRANCH  35  40
BRANCH  36  42
ATOM     42  O   UNL     1      -3.693  -2.029 130.961  0.00  0.00    +0.000 OA
ATOM     43  C   UNL     1      -3.416  -1.948 132.357  0.00  0.00    +0.000 C 
ENDBRANCH  36  42
ENDBRANCH  30  32
ENDBRANCH  29  30
ENDBRANCH   3  29
TORSDOF 9
ENDMDL
