MODEL 1
REMARK VINA RESULT:      -4.9      0.000      0.000
REMARK  Name = Desflurane
REMARK  3 active torsions:
REMARK  status: ('A' for Active; 'I' for Inactive)
REMARK    1  A    between atoms: C_2  and  O_4
REMARK    2  A    between atoms: O_4  and  C_5
REMARK    3  A    between atoms: C_5  and  C_7
REMARK                            x       y       z     vdW  Elec       q    Type
REMARK                         _______ _______ _______ _____ _____    ______ ____
ROOT
ATOM      1  C   UNL     1     -12.490   8.764 128.628  0.00  0.00    +0.000 C 
ATOM      2  F   UNL     1     -13.654   9.387 128.303  0.00  0.00    +0.000 F 
ENDROOT
BRANCH   1   3
ATOM      3  C   UNL     1     -12.601   8.145 130.026  0.00  0.00    +0.000 C 
ATOM      4  F   UNL     1     -11.422   7.669 130.481  0.00  0.00    +0.000 F 
ATOM      5  F   UNL     1     -13.051   9.057 130.924  0.00  0.00    +0.000 F 
ATOM      6  F   UNL     1     -13.489   7.121 130.033  0.00  0.00    +0.000 F 
ENDBRANCH   1   3
BRANCH   1   7
ATOM      7  O   UNL     1     -12.229   7.782 127.630  0.00  0.00    +0.000 OA
BRANCH   7   9
ATOM      8  F   UNL     1     -10.873   8.141 125.909  0.00  0.00    +0.000 F 
ATOM      9  C   UNL     1     -10.882   7.825 127.226  0.00  0.00    +0.000 C 
ATOM     10  F   UNL     1     -10.252   8.825 127.875  0.00  0.00    +0.000 F 
ENDBRANCH   7   9
ENDBRANCH   1   7
TORSDOF 3
ENDMDL
MODEL 2
REMARK VINA RESULT:      -4.7      1.139      2.236
REMARK  Name = Desflurane
REMARK  3 active torsions:
REMARK  status: ('A' for Active; 'I' for Inactive)
REMARK    1  A    between atoms: C_2  and  O_4
REMARK    2  A    between atoms: O_4  and  C_5
REMARK    3  A    between atoms: C_5  and  C_7
REMARK                            x       y       z     vdW  Elec       q    Type
REMARK                         _______ _______ _______ _____ _____    ______ ____
ROOT
ATOM      1  C   UNL     1     -11.277   8.032 128.923  0.00  0.00    +0.000 C 
ATOM      2  F   UNL     1     -10.529   9.026 128.373  0.00  0.00    +0.000 F 
ENDROOT
BRANCH   1   3
ATOM      3  C   UNL     1     -12.707   8.530 129.166  0.00  0.00    +0.000 C 
ATOM      4  F   UNL     1     -13.069   9.514 128.314  0.00  0.00    +0.000 F 
ATOM      5  F   UNL     1     -13.600   7.518 129.029  0.00  0.00    +0.000 F 
ATOM      6  F   UNL     1     -12.847   9.005 130.428  0.00  0.00    +0.000 F 
ENDBRANCH   1   3
BRANCH   1   7
ATOM      7  O   UNL     1     -11.245   6.921 128.033  0.00  0.00    +0.000 OA
BRANCH   7   9
ATOM      8  F   UNL     1      -9.944   6.624 126.258  0.00  0.00    +0.000 F 
ATOM      9  C   UNL     1     -10.998   7.343 126.713  0.00  0.00    +0.000 C 
ATOM     10  F   UNL     1     -12.055   7.026 125.939  0.00  0.00    +0.000 F 
ENDBRANCH   7   9
ENDBRANCH   1   7
TORSDOF 3
ENDMDL
MODEL 3
REMARK VINA RESULT:      -4.6      1.670      3.170
REMARK  Name = Desflurane
REMARK  3 active torsions:
REMARK  status: ('A' for Active; 'I' for Inactive)
REMARK    1  A    between atoms: C_2  and  O_4
REMARK    2  A    between atoms: O_4  and  C_5
REMARK    3  A    between atoms: C_5  and  C_7
REMARK                            x       y       z     vdW  Elec       q    Type
REMARK                         _______ _______ _______ _____ _____    ______ ____
ROOT
ATOM      1  C   UNL     1     -11.889   7.760 129.366  0.00  0.00    +0.000 C 
ATOM      2  F   UNL     1     -11.797   7.633 130.717  0.00  0.00    +0.000 F 
ENDROOT
BRANCH   1   3
ATOM      3  C   UNL     1     -10.487   7.841 128.752  0.00  0.00    +0.000 C 
ATOM      4  F   UNL     1      -9.518   7.982 129.683  0.00  0.00    +0.000 F 
ATOM      5  F   UNL     1     -10.209   6.724 128.034  0.00  0.00    +0.000 F 
ATOM      6  F   UNL     1     -10.392   8.888 127.897  0.00  0.00    +0.000 F 
ENDBRANCH   1   3
BRANCH   1   7
ATOM      7  O   UNL     1     -12.622   6.643 128.873  0.00  0.00    +0.000 OA
BRANCH   7   9
ATOM      8  F   UNL     1     -13.736   8.372 128.035  0.00  0.00    +0.000 F 
ATOM      9  C   UNL     1     -13.532   7.042 127.876  0.00  0.00    +0.000 C 
ATOM     10  F   UNL     1     -12.968   6.872 126.663  0.00  0.00    +0.000 F 
ENDBRANCH   7   9
ENDBRANCH   1   7
TORSDOF 3
ENDMDL
MODEL 4
REMARK VINA RESULT:      -4.6      1.716      3.416
REMARK  Name = Desflurane
REMARK  3 active torsions:
REMARK  status: ('A' for Active; 'I' for Inactive)
REMARK    1  A    between atoms: C_2  and  O_4
REMARK    2  A    between atoms: O_4  and  C_5
REMARK    3  A    between atoms: C_5  and  C_7
REMARK                            x       y       z     vdW  Elec       q    Type
REMARK                         _______ _______ _______ _____ _____    ______ ____
ROOT
ATOM      1  C   UNL     1     -12.823   8.257 129.872  0.00  0.00    +0.000 C 
ATOM      2  F   UNL     1     -12.975   9.305 130.725  0.00  0.00    +0.000 F 
ENDROOT
BRANCH   1   3
ATOM      3  C   UNL     1     -13.035   8.724 128.427  0.00  0.00    +0.000 C 
ATOM      4  F   UNL     1     -11.885   8.770 127.720  0.00  0.00    +0.000 F 
ATOM      5  F   UNL     1     -13.887   7.897 127.773  0.00  0.00    +0.000 F 
ATOM      6  F   UNL     1     -13.589   9.961 128.394  0.00  0.00    +0.000 F 
ENDBRANCH   1   3
BRANCH   1   7
ATOM      7  O   UNL     1     -11.518   7.721 130.071  0.00  0.00    +0.000 OA
BRANCH   7   9
ATOM      8  F   UNL     1     -12.338   6.301 131.570  0.00  0.00    +0.000 F 
ATOM      9  C   UNL     1     -11.587   6.365 130.444  0.00  0.00    +0.000 C 
ATOM     10  F   UNL     1     -12.245   5.673 129.492  0.00  0.00    +0.000 F 
ENDBRANCH   7   9
ENDBRANCH   1   7
TORSDOF 3
ENDMDL
MODEL 5
REMARK VINA RESULT:      -4.6      1.270      3.744
REMARK  Name = Desflurane
REMARK  3 active torsions:
REMARK  status: ('A' for Active; 'I' for Inactive)
REMARK    1  A    between atoms: C_2  and  O_4
REMARK    2  A    between atoms: O_4  and  C_5
REMARK    3  A    between atoms: C_5  and  C_7
REMARK                            x       y       z     vdW  Elec       q    Type
REMARK                         _______ _______ _______ _____ _____    ______ ____
ROOT
ATOM      1  C   UNL     1     -12.261   8.318 128.592  0.00  0.00    +0.000 C 
ATOM      2  F   UNL     1     -12.893   9.418 128.102  0.00  0.00    +0.000 F 
ENDROOT
BRANCH   1   3
ATOM      3  C   UNL     1     -10.943   8.094 127.841  0.00  0.00    +0.000 C 
ATOM      4  F   UNL     1     -10.449   6.849 128.014  0.00  0.00    +0.000 F 
ATOM      5  F   UNL     1     -11.108   8.290 126.509  0.00  0.00    +0.000 F 
ATOM      6  F   UNL     1      -9.997   8.975 128.250  0.00  0.00    +0.000 F 
ENDBRANCH   1   3
BRANCH   1   7
ATOM      7  O   UNL     1     -12.051   8.522 129.986  0.00  0.00    +0.000 OA
BRANCH   7   9
ATOM      8  F   UNL     1     -13.192   8.018 131.823  0.00  0.00    +0.000 F 
ATOM      9  C   UNL     1     -12.603   7.466 130.735  0.00  0.00    +0.000 C 
ATOM     10  F   UNL     1     -13.580   6.873 130.018  0.00  0.00    +0.000 F 
ENDBRANCH   7   9
ENDBRANCH   1   7
TORSDOF 3
ENDMDL
MODEL 6
REMARK VINA RESULT:      -4.6      1.468      2.280
REMARK  Name = Desflurane
REMARK  3 active torsions:
REMARK  status: ('A' for Active; 'I' for Inactive)
REMARK    1  A    between atoms: C_2  and  O_4
REMARK    2  A    between atoms: O_4  and  C_5
REMARK    3  A    between atoms: C_5  and  C_7
REMARK                            x       y       z     vdW  Elec       q    Type
REMARK                         _______ _______ _______ _____ _____    ______ ____
ROOT
ATOM      1  C   UNL     1     -11.495   7.217 129.373  0.00  0.00    +0.000 C 
ATOM      2  F   UNL     1     -10.934   8.336 128.839  0.00  0.00    +0.000 F 
ENDROOT
BRANCH   1   3
ATOM      3  C   UNL     1     -12.475   7.605 130.486  0.00  0.00    +0.000 C 
ATOM      4  F   UNL     1     -13.656   6.955 130.392  0.00  0.00    +0.000 F 
ATOM      5  F   UNL     1     -11.951   7.332 131.707  0.00  0.00    +0.000 F 
ATOM      6  F   UNL     1     -12.734   8.936 130.462  0.00  0.00    +0.000 F 
ENDBRANCH   1   3
BRANCH   1   7
ATOM      7  O   UNL     1     -12.141   6.510 128.319  0.00  0.00    +0.000 OA
BRANCH   7   9
ATOM      8  F   UNL     1     -12.457   6.744 126.133  0.00  0.00    +0.000 F 
ATOM      9  C   UNL     1     -12.576   7.396 127.315  0.00  0.00    +0.000 C 
ATOM     10  F   UNL     1     -13.887   7.658 127.489  0.00  0.00    +0.000 F 
ENDBRANCH   7   9
ENDBRANCH   1   7
TORSDOF 3
ENDMDL
MODEL 7
REMARK VINA RESULT:      -4.5      1.558      2.739
REMARK  Name = Desflurane
REMARK  3 active torsions:
REMARK  status: ('A' for Active; 'I' for Inactive)
REMARK    1  A    between atoms: C_2  and  O_4
REMARK    2  A    between atoms: O_4  and  C_5
REMARK    3  A    between atoms: C_5  and  C_7
REMARK                            x       y       z     vdW  Elec       q    Type
REMARK                         _______ _______ _______ _____ _____    ______ ____
ROOT
ATOM      1  C   UNL     1     -11.226   8.360 128.929  0.00  0.00    +0.000 C 
ATOM      2  F   UNL     1     -10.940   8.720 127.649  0.00  0.00    +0.000 F 
ENDROOT
BRANCH   1   3
ATOM      3  C   UNL     1     -12.703   8.638 129.232  0.00  0.00    +0.000 C 
ATOM      4  F   UNL     1     -12.887   9.241 130.427  0.00  0.00    +0.000 F 
ATOM      5  F   UNL     1     -13.250   9.435 128.280  0.00  0.00    +0.000 F 
ATOM      6  F   UNL     1     -13.421   7.488 129.237  0.00  0.00    +0.000 F 
ENDBRANCH   1   3
BRANCH   1   7
ATOM      7  O   UNL     1     -10.903   6.981 129.076  0.00  0.00    +0.000 OA
BRANCH   7   9
ATOM      8  F   UNL     1      -9.111   7.781 130.117  0.00  0.00    +0.000 F 
ATOM      9  C   UNL     1     -10.029   6.785 130.162  0.00  0.00    +0.000 C 
ATOM     10  F   UNL     1     -10.711   6.929 131.316  0.00  0.00    +0.000 F 
ENDBRANCH   7   9
ENDBRANCH   1   7
TORSDOF 3
ENDMDL
MODEL 8
REMARK VINA RESULT:      -4.5      1.603      3.843
REMARK  Name = Desflurane
REMARK  3 active torsions:
REMARK  status: ('A' for Active; 'I' for Inactive)
REMARK    1  A    between atoms: C_2  and  O_4
REMARK    2  A    between atoms: O_4  and  C_5
REMARK    3  A    between atoms: C_5  and  C_7
REMARK                            x       y       z     vdW  Elec       q    Type
REMARK                         _______ _______ _______ _____ _____    ______ ____
ROOT
ATOM      1  C   UNL     1     -11.944   6.889 128.882  0.00  0.00    +0.000 C 
ATOM      2  F   UNL     1     -13.132   6.254 129.070  0.00  0.00    +0.000 F 
ENDROOT
BRANCH   1   3
ATOM      3  C   UNL     1     -12.105   7.996 127.833  0.00  0.00    +0.000 C 
ATOM      4  F   UNL     1     -13.115   8.845 128.120  0.00  0.00    +0.000 F 
ATOM      5  F   UNL     1     -10.968   8.729 127.726  0.00  0.00    +0.000 F 
ATOM      6  F   UNL     1     -12.345   7.469 126.607  0.00  0.00    +0.000 F 
ENDBRANCH   1   3
BRANCH   1   7
ATOM      7  O   UNL     1     -11.523   7.407 130.140  0.00  0.00    +0.000 OA
BRANCH   7   9
ATOM      8  F   UNL     1     -11.674   6.613 132.209  0.00  0.00    +0.000 F 
ATOM      9  C   UNL     1     -12.420   7.035 131.159  0.00  0.00    +0.000 C 
ATOM     10  F   UNL     1     -13.101   8.123 131.573  0.00  0.00    +0.000 F 
ENDBRANCH   7   9
ENDBRANCH   1   7
TORSDOF 3
ENDMDL
MODEL 9
REMARK VINA RESULT:      -4.5     12.174     13.658
REMARK  Name = Desflurane
REMARK  3 active torsions:
REMARK  status: ('A' for Active; 'I' for Inactive)
REMARK    1  A    between atoms: C_2  and  O_4
REMARK    2  A    between atoms: O_4  and  C_5
REMARK    3  A    between atoms: C_5  and  C_7
REMARK                            x       y       z     vdW  Elec       q    Type
REMARK                         _______ _______ _______ _____ _____    ______ ____
ROOT
ATOM      1  C   UNL     1      -7.005  -3.077 124.155  0.00  0.00    +0.000 C 
ATOM      2  F   UNL     1      -7.265  -4.400 124.335  0.00  0.00    +0.000 F 
ENDROOT
BRANCH   1   3
ATOM      3  C   UNL     1      -5.509  -2.869 123.892  0.00  0.00    +0.000 C 
ATOM      4  F   UNL     1      -5.017  -1.777 124.516  0.00  0.00    +0.000 F 
ATOM      5  F   UNL     1      -4.792  -3.941 124.311  0.00  0.00    +0.000 F 
ATOM      6  F   UNL     1      -5.265  -2.731 122.566  0.00  0.00    +0.000 F 
ENDBRANCH   1   3
BRANCH   1   7
ATOM      7  O   UNL     1      -7.805  -2.621 123.068  0.00  0.00    +0.000 OA
BRANCH   7   9
ATOM      8  F   UNL     1      -9.667  -1.460 122.724  0.00  0.00    +0.000 F 
ATOM      9  C   UNL     1      -9.147  -2.470 123.464  0.00  0.00    +0.000 C 
ATOM     10  F   UNL     1      -9.835  -3.585 123.145  0.00  0.00    +0.000 F 
ENDBRANCH   7   9
ENDBRANCH   1   7
TORSDOF 3
ENDMDL
