MODEL 1
REMARK VINA RESULT:      -7.0      0.000      0.000
REMARK  Name = Desipramine
REMARK  5 active torsions:
REMARK  status: ('A' for Active; 'I' for Inactive)
REMARK    1  A    between atoms: C_1  and  N_2
REMARK    2  A    between atoms: N_2  and  C_3
REMARK    3  A    between atoms: C_3  and  C_4
REMARK    4  A    between atoms: C_4  and  C_5
REMARK    5  A    between atoms: C_5  and  N_6
REMARK                            x       y       z     vdW  Elec       q    Type
REMARK                         _______ _______ _______ _____ _____    ______ ____
ROOT
ATOM      1  N   UNL     1      -7.572  -0.977 126.909  0.00  0.00    +0.000 N 
ATOM      2  C   UNL     1      -7.649  -1.477 128.220  0.00  0.00    +0.000 A 
ATOM      3  C   UNL     1      -7.094  -0.714 129.267  0.00  0.00    +0.000 A 
ATOM      4  C   UNL     1      -7.007  -1.216 130.567  0.00  0.00    +0.000 A 
ATOM      5  C   UNL     1      -7.486  -2.487 130.847  0.00  0.00    +0.000 A 
ATOM      6  C   UNL     1      -8.055  -3.252 129.830  0.00  0.00    +0.000 A 
ATOM      7  C   UNL     1      -8.148  -2.765 128.511  0.00  0.00    +0.000 A 
ATOM      8  C   UNL     1      -8.790  -3.706 127.501  0.00  0.00    +0.000 C 
ATOM      9  C   UNL     1      -9.054  -3.205 126.081  0.00  0.00    +0.000 C 
ATOM     10  C   UNL     1      -7.762  -2.851 125.391  0.00  0.00    +0.000 A 
ATOM     11  C   UNL     1      -7.240  -3.636 124.357  0.00  0.00    +0.000 A 
ATOM     12  C   UNL     1      -6.000  -3.317 123.801  0.00  0.00    +0.000 A 
ATOM     13  C   UNL     1      -5.287  -2.213 124.260  0.00  0.00    +0.000 A 
ATOM     14  C   UNL     1      -5.816  -1.412 125.273  0.00  0.00    +0.000 A 
ATOM     15  C   UNL     1      -7.053  -1.731 125.845  0.00  0.00    +0.000 A 
ENDROOT
BRANCH   1  16
ATOM     16  C   UNL     1      -8.102   0.366 126.621  0.00  0.00    +0.000 C 
BRANCH  16  17
ATOM     17  C   UNL     1      -9.457   0.313 125.894  0.00  0.00    +0.000 C 
BRANCH  17  18
ATOM     18  C   UNL     1      -9.407   1.026 124.551  0.00  0.00    +0.000 C 
BRANCH  18  20
ATOM     19  C   UNL     1      -8.382   3.153 124.109  0.00  0.00    +0.000 C 
ATOM     20  N   UNL     1      -9.485   2.472 124.767  0.00  0.00    +0.000 NA
ATOM     21  H   UNL     1     -10.372   2.827 124.405  0.00  0.00    +0.000 HD
ENDBRANCH  18  20
ENDBRANCH  17  18
ENDBRANCH  16  17
ENDBRANCH   1  16
TORSDOF 4
ENDMDL
MODEL 2
REMARK VINA RESULT:      -6.6      1.716      4.796
REMARK  Name = Desipramine
REMARK  5 active torsions:
REMARK  status: ('A' for Active; 'I' for Inactive)
REMARK    1  A    between atoms: C_1  and  N_2
REMARK    2  A    between atoms: N_2  and  C_3
REMARK    3  A    between atoms: C_3  and  C_4
REMARK    4  A    between atoms: C_4  and  C_5
REMARK    5  A    between atoms: C_5  and  N_6
REMARK                            x       y       z     vdW  Elec       q    Type
REMARK                         _______ _______ _______ _____ _____    ______ ____
ROOT
ATOM      1  N   UNL     1      -7.997  -1.492 124.837  0.00  0.00    +0.000 N 
ATOM      2  C   UNL     1      -8.020  -2.122 126.093  0.00  0.00    +0.000 A 
ATOM      3  C   UNL     1      -8.831  -3.264 126.261  0.00  0.00    +0.000 A 
ATOM      4  C   UNL     1      -9.011  -3.850 127.515  0.00  0.00    +0.000 A 
ATOM      5  C   UNL     1      -8.375  -3.313 128.624  0.00  0.00    +0.000 A 
ATOM      6  C   UNL     1      -7.555  -2.195 128.478  0.00  0.00    +0.000 A 
ATOM      7  C   UNL     1      -7.363  -1.586 127.221  0.00  0.00    +0.000 A 
ATOM      8  C   UNL     1      -6.444  -0.372 127.207  0.00  0.00    +0.000 C 
ATOM      9  C   UNL     1      -6.073   0.264 125.867  0.00  0.00    +0.000 C 
ATOM     10  C   UNL     1      -7.298   0.800 125.173  0.00  0.00    +0.000 A 
ATOM     11  C   UNL     1      -7.539   2.173 125.060  0.00  0.00    +0.000 A 
ATOM     12  C   UNL     1      -8.726   2.625 124.480  0.00  0.00    +0.000 A 
ATOM     13  C   UNL     1      -9.666   1.715 124.002  0.00  0.00    +0.000 A 
ATOM     14  C   UNL     1      -9.418   0.344 124.090  0.00  0.00    +0.000 A 
ATOM     15  C   UNL     1      -8.236  -0.119 124.680  0.00  0.00    +0.000 A 
ENDROOT
BRANCH   1  16
ATOM     16  C   UNL     1      -7.658  -2.284 123.643  0.00  0.00    +0.000 C 
BRANCH  16  17
ATOM     17  C   UNL     1      -6.261  -1.943 123.097  0.00  0.00    +0.000 C 
BRANCH  17  18
ATOM     18  C   UNL     1      -5.160  -2.620 123.900  0.00  0.00    +0.000 C 
BRANCH  18  20
ATOM     19  C   UNL     1      -4.226  -4.794 123.485  0.00  0.00    +0.000 C 
ATOM     20  N   UNL     1      -5.401  -4.064 123.932  0.00  0.00    +0.000 NA
ATOM     21  H   UNL     1      -5.643  -4.352 124.882  0.00  0.00    +0.000 HD
ENDBRANCH  18  20
ENDBRANCH  17  18
ENDBRANCH  16  17
ENDBRANCH   1  16
TORSDOF 4
ENDMDL
MODEL 3
REMARK VINA RESULT:      -6.4      1.938      2.443
REMARK  Name = Desipramine
REMARK  5 active torsions:
REMARK  status: ('A' for Active; 'I' for Inactive)
REMARK    1  A    between atoms: C_1  and  N_2
REMARK    2  A    between atoms: N_2  and  C_3
REMARK    3  A    between atoms: C_3  and  C_4
REMARK    4  A    between atoms: C_4  and  C_5
REMARK    5  A    between atoms: C_5  and  N_6
REMARK                            x       y       z     vdW  Elec       q    Type
REMARK                         _______ _______ _______ _____ _____    ______ ____
ROOT
ATOM      1  N   UNL     1      -5.889  -1.749 127.584  0.00  0.00    +0.000 N 
ATOM      2  C   UNL     1      -5.561  -2.496 128.729  0.00  0.00    +0.000 A 
ATOM      3  C   UNL     1      -4.244  -2.427 129.226  0.00  0.00    +0.000 A 
ATOM      4  C   UNL     1      -3.814  -3.251 130.267  0.00  0.00    +0.000 A 
ATOM      5  C   UNL     1      -4.698  -4.152 130.841  0.00  0.00    +0.000 A 
ATOM      6  C   UNL     1      -6.011  -4.226 130.377  0.00  0.00    +0.000 A 
ATOM      7  C   UNL     1      -6.463  -3.405 129.323  0.00  0.00    +0.000 A 
ATOM      8  C   UNL     1      -7.918  -3.591 128.916  0.00  0.00    +0.000 C 
ATOM      9  C   UNL     1      -8.526  -2.647 127.878  0.00  0.00    +0.000 C 
ATOM     10  C   UNL     1      -7.819  -2.783 126.555  0.00  0.00    +0.000 A 
ATOM     11  C   UNL     1      -8.428  -3.395 125.454  0.00  0.00    +0.000 A 
ATOM     12  C   UNL     1      -7.707  -3.572 124.271  0.00  0.00    +0.000 A 
ATOM     13  C   UNL     1      -6.390  -3.131 124.177  0.00  0.00    +0.000 A 
ATOM     14  C   UNL     1      -5.787  -2.496 125.265  0.00  0.00    +0.000 A 
ATOM     15  C   UNL     1      -6.497  -2.325 126.459  0.00  0.00    +0.000 A 
ENDROOT
BRANCH   1  16
ATOM     16  C   UNL     1      -5.637  -0.299 127.578  0.00  0.00    +0.000 C 
BRANCH  16  17
ATOM     17  C   UNL     1      -6.791   0.494 128.216  0.00  0.00    +0.000 C 
BRANCH  17  18
ATOM     18  C   UNL     1      -7.468   1.416 127.211  0.00  0.00    +0.000 C 
BRANCH  18  20
ATOM     19  C   UNL     1      -8.636   0.577 125.286  0.00  0.00    +0.000 C 
ATOM     20  N   UNL     1      -8.695   0.784 126.724  0.00  0.00    +0.000 NA
ATOM     21  H   UNL     1      -8.832  -0.113 127.194  0.00  0.00    +0.000 HD
ENDBRANCH  18  20
ENDBRANCH  17  18
ENDBRANCH  16  17
ENDBRANCH   1  16
TORSDOF 4
ENDMDL
MODEL 4
REMARK VINA RESULT:      -6.3      2.336      2.937
REMARK  Name = Desipramine
REMARK  5 active torsions:
REMARK  status: ('A' for Active; 'I' for Inactive)
REMARK    1  A    between atoms: C_1  and  N_2
REMARK    2  A    between atoms: N_2  and  C_3
REMARK    3  A    between atoms: C_3  and  C_4
REMARK    4  A    between atoms: C_4  and  C_5
REMARK    5  A    between atoms: C_5  and  N_6
REMARK                            x       y       z     vdW  Elec       q    Type
REMARK                         _______ _______ _______ _____ _____    ______ ____
ROOT
ATOM      1  N   UNL     1      -6.109  -1.289 126.332  0.00  0.00    +0.000 N 
ATOM      2  C   UNL     1      -6.761  -2.023 127.339  0.00  0.00    +0.000 A 
ATOM      3  C   UNL     1      -6.010  -2.463 128.447  0.00  0.00    +0.000 A 
ATOM      4  C   UNL     1      -6.559  -3.316 129.406  0.00  0.00    +0.000 A 
ATOM      5  C   UNL     1      -7.875  -3.735 129.282  0.00  0.00    +0.000 A 
ATOM      6  C   UNL     1      -8.642  -3.298 128.202  0.00  0.00    +0.000 A 
ATOM      7  C   UNL     1      -8.104  -2.440 127.221  0.00  0.00    +0.000 A 
ATOM      8  C   UNL     1      -9.051  -2.043 126.097  0.00  0.00    +0.000 C 
ATOM      9  C   UNL     1      -8.593  -1.009 125.069  0.00  0.00    +0.000 C 
ATOM     10  C   UNL     1      -7.400  -1.513 124.299  0.00  0.00    +0.000 A 
ATOM     11  C   UNL     1      -7.498  -1.899 122.958  0.00  0.00    +0.000 A 
ATOM     12  C   UNL     1      -6.387  -2.437 122.307  0.00  0.00    +0.000 A 
ATOM     13  C   UNL     1      -5.177  -2.580 122.981  0.00  0.00    +0.000 A 
ATOM     14  C   UNL     1      -5.068  -2.173 124.312  0.00  0.00    +0.000 A 
ATOM     15  C   UNL     1      -6.180  -1.643 124.977  0.00  0.00    +0.000 A 
ENDROOT
BRANCH   1  16
ATOM     16  C   UNL     1      -5.366  -0.072 126.700  0.00  0.00    +0.000 C 
BRANCH  16  17
ATOM     17  C   UNL     1      -5.766   1.136 125.835  0.00  0.00    +0.000 C 
BRANCH  17  18
ATOM     18  C   UNL     1      -5.066   2.410 126.287  0.00  0.00    +0.000 C 
BRANCH  18  20
ATOM     19  C   UNL     1      -2.757   3.009 126.575  0.00  0.00    +0.000 C 
ATOM     20  N   UNL     1      -3.801   2.064 126.938  0.00  0.00    +0.000 NA
ATOM     21  H   UNL     1      -3.925   2.061 127.952  0.00  0.00    +0.000 HD
ENDBRANCH  18  20
ENDBRANCH  17  18
ENDBRANCH  16  17
ENDBRANCH   1  16
TORSDOF 4
ENDMDL
MODEL 5
REMARK VINA RESULT:      -6.1      7.213      9.476
REMARK  Name = Desipramine
REMARK  5 active torsions:
REMARK  status: ('A' for Active; 'I' for Inactive)
REMARK    1  A    between atoms: C_1  and  N_2
REMARK    2  A    between atoms: N_2  and  C_3
REMARK    3  A    between atoms: C_3  and  C_4
REMARK    4  A    between atoms: C_4  and  C_5
REMARK    5  A    between atoms: C_5  and  N_6
REMARK                            x       y       z     vdW  Elec       q    Type
REMARK                         _______ _______ _______ _____ _____    ______ ____
ROOT
ATOM      1  N   UNL     1      -4.223   4.649 130.134  0.00  0.00    +0.000 N 
ATOM      2  C   UNL     1      -4.037   4.104 128.851  0.00  0.00    +0.000 A 
ATOM      3  C   UNL     1      -4.692   2.898 128.529  0.00  0.00    +0.000 A 
ATOM      4  C   UNL     1      -4.438   2.230 127.330  0.00  0.00    +0.000 A 
ATOM      5  C   UNL     1      -3.533   2.762 126.424  0.00  0.00    +0.000 A 
ATOM      6  C   UNL     1      -2.887   3.963 126.714  0.00  0.00    +0.000 A 
ATOM      7  C   UNL     1      -3.127   4.651 127.922  0.00  0.00    +0.000 A 
ATOM      8  C   UNL     1      -2.353   5.948 128.110  0.00  0.00    +0.000 C 
ATOM      9  C   UNL     1      -2.655   6.824 129.326  0.00  0.00    +0.000 C 
ATOM     10  C   UNL     1      -2.339   6.092 130.604  0.00  0.00    +0.000 A 
ATOM     11  C   UNL     1      -1.240   6.437 131.398  0.00  0.00    +0.000 A 
ATOM     12  C   UNL     1      -0.937   5.680 132.531  0.00  0.00    +0.000 A 
ATOM     13  C   UNL     1      -1.731   4.592 132.883  0.00  0.00    +0.000 A 
ATOM     14  C   UNL     1      -2.844   4.260 132.107  0.00  0.00    +0.000 A 
ATOM     15  C   UNL     1      -3.149   5.005 130.962  0.00  0.00    +0.000 A 
ENDROOT
BRANCH   1  16
ATOM     16  C   UNL     1      -5.591   4.908 130.612  0.00  0.00    +0.000 C 
BRANCH  16  17
ATOM     17  C   UNL     1      -5.765   6.348 131.123  0.00  0.00    +0.000 C 
BRANCH  17  18
ATOM     18  C   UNL     1      -7.208   6.639 131.513  0.00  0.00    +0.000 C 
BRANCH  18  20
ATOM     19  C   UNL     1      -9.394   7.009 130.589  0.00  0.00    +0.000 C 
ATOM     20  N   UNL     1      -7.966   7.015 130.318  0.00  0.00    +0.000 NA
ATOM     21  H   UNL     1      -7.680   7.944 130.006  0.00  0.00    +0.000 HD
ENDBRANCH  18  20
ENDBRANCH  17  18
ENDBRANCH  16  17
ENDBRANCH   1  16
TORSDOF 4
ENDMDL
MODEL 6
REMARK VINA RESULT:      -6.1      2.616      6.001
REMARK  Name = Desipramine
REMARK  5 active torsions:
REMARK  status: ('A' for Active; 'I' for Inactive)
REMARK    1  A    between atoms: C_1  and  N_2
REMARK    2  A    between atoms: N_2  and  C_3
REMARK    3  A    between atoms: C_3  and  C_4
REMARK    4  A    between atoms: C_4  and  C_5
REMARK    5  A    between atoms: C_5  and  N_6
REMARK                            x       y       z     vdW  Elec       q    Type
REMARK                         _______ _______ _______ _____ _____    ______ ____
ROOT
ATOM      1  N   UNL     1      -6.262  -1.582 128.331  0.00  0.00    +0.000 N 
ATOM      2  C   UNL     1      -6.913  -2.287 127.304  0.00  0.00    +0.000 A 
ATOM      3  C   UNL     1      -6.486  -2.092 125.975  0.00  0.00    +0.000 A 
ATOM      4  C   UNL     1      -7.179  -2.647 124.898  0.00  0.00    +0.000 A 
ATOM      5  C   UNL     1      -8.307  -3.419 125.130  0.00  0.00    +0.000 A 
ATOM      6  C   UNL     1      -8.738  -3.640 126.438  0.00  0.00    +0.000 A 
ATOM      7  C   UNL     1      -8.054  -3.085 127.539  0.00  0.00    +0.000 A 
ATOM      8  C   UNL     1      -8.634  -3.405 128.909  0.00  0.00    +0.000 C 
ATOM      9  C   UNL     1      -7.877  -2.959 130.160  0.00  0.00    +0.000 C 
ATOM     10  C   UNL     1      -7.775  -1.456 130.215  0.00  0.00    +0.000 A 
ATOM     11  C   UNL     1      -8.508  -0.702 131.137  0.00  0.00    +0.000 A 
ATOM     12  C   UNL     1      -8.446   0.692 131.099  0.00  0.00    +0.000 A 
ATOM     13  C   UNL     1      -7.648   1.336 130.157  0.00  0.00    +0.000 A 
ATOM     14  C   UNL     1      -6.895   0.586 129.252  0.00  0.00    +0.000 A 
ATOM     15  C   UNL     1      -6.960  -0.812 129.274  0.00  0.00    +0.000 A 
ENDROOT
BRANCH   1  16
ATOM     16  C   UNL     1      -4.800  -1.693 128.462  0.00  0.00    +0.000 C 
BRANCH  16  17
ATOM     17  C   UNL     1      -4.358  -3.112 128.857  0.00  0.00    +0.000 C 
BRANCH  17  18
ATOM     18  C   UNL     1      -4.088  -3.226 130.350  0.00  0.00    +0.000 C 
BRANCH  18  20
ATOM     19  C   UNL     1      -3.281  -1.622 131.947  0.00  0.00    +0.000 C 
ATOM     20  N   UNL     1      -2.986  -2.333 130.713  0.00  0.00    +0.000 NA
ATOM     21  H   UNL     1      -2.126  -2.873 130.825  0.00  0.00    +0.000 HD
ENDBRANCH  18  20
ENDBRANCH  17  18
ENDBRANCH  16  17
ENDBRANCH   1  16
TORSDOF 4
ENDMDL
MODEL 7
REMARK VINA RESULT:      -6.1      6.673      8.618
REMARK  Name = Desipramine
REMARK  5 active torsions:
REMARK  status: ('A' for Active; 'I' for Inactive)
REMARK    1  A    between atoms: C_1  and  N_2
REMARK    2  A    between atoms: N_2  and  C_3
REMARK    3  A    between atoms: C_3  and  C_4
REMARK    4  A    between atoms: C_4  and  C_5
REMARK    5  A    between atoms: C_5  and  N_6
REMARK                            x       y       z     vdW  Elec       q    Type
REMARK                         _______ _______ _______ _____ _____    ______ ____
ROOT
ATOM      1  N   UNL     1      -8.009   4.778 131.449  0.00  0.00    +0.000 N 
ATOM      2  C   UNL     1      -7.031   5.253 132.341  0.00  0.00    +0.000 A 
ATOM      3  C   UNL     1      -5.991   6.059 131.835  0.00  0.00    +0.000 A 
ATOM      4  C   UNL     1      -4.913   6.442 132.635  0.00  0.00    +0.000 A 
ATOM      5  C   UNL     1      -4.861   6.037 133.960  0.00  0.00    +0.000 A 
ATOM      6  C   UNL     1      -5.888   5.254 134.486  0.00  0.00    +0.000 A 
ATOM      7  C   UNL     1      -6.983   4.853 133.694  0.00  0.00    +0.000 A 
ATOM      8  C   UNL     1      -8.030   3.999 134.394  0.00  0.00    +0.000 C 
ATOM      9  C   UNL     1      -9.314   3.636 133.649  0.00  0.00    +0.000 C 
ATOM     10  C   UNL     1      -9.008   2.805 132.430  0.00  0.00    +0.000 A 
ATOM     11  C   UNL     1      -9.318   1.442 132.372  0.00  0.00    +0.000 A 
ATOM     12  C   UNL     1      -8.943   0.692 131.256  0.00  0.00    +0.000 A 
ATOM     13  C   UNL     1      -8.274   1.296 130.195  0.00  0.00    +0.000 A 
ATOM     14  C   UNL     1      -7.986   2.661 130.238  0.00  0.00    +0.000 A 
ATOM     15  C   UNL     1      -8.347   3.419 131.358  0.00  0.00    +0.000 A 
ENDROOT
BRANCH   1  16
ATOM     16  C   UNL     1      -8.747   5.740 130.616  0.00  0.00    +0.000 C 
BRANCH  16  17
ATOM     17  C   UNL     1      -9.875   6.439 131.395  0.00  0.00    +0.000 C 
BRANCH  17  18
ATOM     18  C   UNL     1     -11.215   5.747 131.191  0.00  0.00    +0.000 C 
BRANCH  18  20
ATOM     19  C   UNL     1     -12.898   7.447 130.958  0.00  0.00    +0.000 C 
ATOM     20  N   UNL     1     -12.263   6.510 131.872  0.00  0.00    +0.000 NA
ATOM     21  H   UNL     1     -12.965   5.871 132.250  0.00  0.00    +0.000 HD
ENDBRANCH  18  20
ENDBRANCH  17  18
ENDBRANCH  16  17
ENDBRANCH   1  16
TORSDOF 4
ENDMDL
MODEL 8
REMARK VINA RESULT:      -6.0      2.437      4.298
REMARK  Name = Desipramine
REMARK  5 active torsions:
REMARK  status: ('A' for Active; 'I' for Inactive)
REMARK    1  A    between atoms: C_1  and  N_2
REMARK    2  A    between atoms: N_2  and  C_3
REMARK    3  A    between atoms: C_3  and  C_4
REMARK    4  A    between atoms: C_4  and  C_5
REMARK    5  A    between atoms: C_5  and  N_6
REMARK                            x       y       z     vdW  Elec       q    Type
REMARK                         _______ _______ _______ _____ _____    ______ ____
ROOT
ATOM      1  N   UNL     1      -6.748  -1.724 127.997  0.00  0.00    +0.000 N 
ATOM      2  C   UNL     1      -7.298  -0.545 128.529  0.00  0.00    +0.000 A 
ATOM      3  C   UNL     1      -7.150   0.656 127.805  0.00  0.00    +0.000 A 
ATOM      4  C   UNL     1      -7.543   1.883 128.342  0.00  0.00    +0.000 A 
ATOM      5  C   UNL     1      -8.104   1.932 129.609  0.00  0.00    +0.000 A 
ATOM      6  C   UNL     1      -8.275   0.755 130.336  0.00  0.00    +0.000 A 
ATOM      7  C   UNL     1      -7.881  -0.494 129.813  0.00  0.00    +0.000 A 
ATOM      8  C   UNL     1      -8.125  -1.696 130.714  0.00  0.00    +0.000 C 
ATOM      9  C   UNL     1      -7.854  -3.100 130.172  0.00  0.00    +0.000 C 
ATOM     10  C   UNL     1      -6.397  -3.267 129.827  0.00  0.00    +0.000 A 
ATOM     11  C   UNL     1      -5.546  -4.067 130.596  0.00  0.00    +0.000 A 
ATOM     12  C   UNL     1      -4.186  -4.129 130.289  0.00  0.00    +0.000 A 
ATOM     13  C   UNL     1      -3.674  -3.410 129.212  0.00  0.00    +0.000 A 
ATOM     14  C   UNL     1      -4.525  -2.631 128.426  0.00  0.00    +0.000 A 
ATOM     15  C   UNL     1      -5.888  -2.552 128.733  0.00  0.00    +0.000 A 
ENDROOT
BRANCH   1  16
ATOM     16  C   UNL     1      -7.125  -2.141 126.636  0.00  0.00    +0.000 C 
BRANCH  16  17
ATOM     17  C   UNL     1      -8.521  -2.786 126.592  0.00  0.00    +0.000 C 
BRANCH  17  18
ATOM     18  C   UNL     1      -8.709  -3.642 125.348  0.00  0.00    +0.000 C 
BRANCH  18  20
ATOM     19  C   UNL     1      -9.218  -2.711 123.193  0.00  0.00    +0.000 C 
ATOM     20  N   UNL     1      -9.748  -3.050 124.504  0.00  0.00    +0.000 NA
ATOM     21  H   UNL     1     -10.524  -3.706 124.400  0.00  0.00    +0.000 HD
ENDBRANCH  18  20
ENDBRANCH  17  18
ENDBRANCH  16  17
ENDBRANCH   1  16
TORSDOF 4
ENDMDL
MODEL 9
REMARK VINA RESULT:      -6.0      1.825      5.054
REMARK  Name = Desipramine
REMARK  5 active torsions:
REMARK  status: ('A' for Active; 'I' for Inactive)
REMARK    1  A    between atoms: C_1  and  N_2
REMARK    2  A    between atoms: N_2  and  C_3
REMARK    3  A    between atoms: C_3  and  C_4
REMARK    4  A    between atoms: C_4  and  C_5
REMARK    5  A    between atoms: C_5  and  N_6
REMARK                            x       y       z     vdW  Elec       q    Type
REMARK                         _______ _______ _______ _____ _____    ______ ____
ROOT
ATOM      1  N   UNL     1      -6.594  -1.255 125.864  0.00  0.00    +0.000 N 
ATOM      2  C   UNL     1      -7.212  -0.032 125.553  0.00  0.00    +0.000 A 
ATOM      3  C   UNL     1      -6.400   1.101 125.344  0.00  0.00    +0.000 A 
ATOM      4  C   UNL     1      -6.953   2.372 125.177  0.00  0.00    +0.000 A 
ATOM      5  C   UNL     1      -8.330   2.533 125.202  0.00  0.00    +0.000 A 
ATOM      6  C   UNL     1      -9.153   1.423 125.390  0.00  0.00    +0.000 A 
ATOM      7  C   UNL     1      -8.614   0.132 125.565  0.00  0.00    +0.000 A 
ATOM      8  C   UNL     1      -9.627  -0.987 125.762  0.00  0.00    +0.000 C 
ATOM      9  C   UNL     1      -9.135  -2.434 125.822  0.00  0.00    +0.000 C 
ATOM     10  C   UNL     1      -8.220  -2.638 127.001  0.00  0.00    +0.000 A 
ATOM     11  C   UNL     1      -8.618  -3.374 128.123  0.00  0.00    +0.000 A 
ATOM     12  C   UNL     1      -7.771  -3.470 129.227  0.00  0.00    +0.000 A 
ATOM     13  C   UNL     1      -6.525  -2.849 129.214  0.00  0.00    +0.000 A 
ATOM     14  C   UNL     1      -6.113  -2.135 128.087  0.00  0.00    +0.000 A 
ATOM     15  C   UNL     1      -6.961  -2.023 126.979  0.00  0.00    +0.000 A 
ENDROOT
BRANCH   1  16
ATOM     16  C   UNL     1      -5.559  -1.785 124.961  0.00  0.00    +0.000 C 
BRANCH  16  17
ATOM     17  C   UNL     1      -6.057  -1.902 123.510  0.00  0.00    +0.000 C 
BRANCH  17  18
ATOM     18  C   UNL     1      -5.259  -2.929 122.719  0.00  0.00    +0.000 C 
BRANCH  18  20
ATOM     19  C   UNL     1      -4.259  -4.985 123.457  0.00  0.00    +0.000 C 
ATOM     20  N   UNL     1      -4.253  -3.537 123.591  0.00  0.00    +0.000 NA
ATOM     21  H   UNL     1      -3.327  -3.174 123.355  0.00  0.00    +0.000 HD
ENDBRANCH  18  20
ENDBRANCH  17  18
ENDBRANCH  16  17
ENDBRANCH   1  16
TORSDOF 4
ENDMDL
