MODEL 1
REMARK VINA RESULT:      -8.4      0.000      0.000
REMARK  Name = Desloratadine
REMARK  0 active torsions:
REMARK  status: ('A' for Active; 'I' for Inactive)
REMARK                            x       y       z     vdW  Elec       q    Type
REMARK                         _______ _______ _______ _____ _____    ______ ____
ROOT
ATOM      1 CL   UNL     1      -7.847   4.720 118.830  0.00  0.00    +0.000 Cl
ATOM      2  C   UNL     1      -7.558   3.886 120.307  0.00  0.00    +0.000 A 
ATOM      3  C   UNL     1      -8.635   3.399 121.042  0.00  0.00    +0.000 A 
ATOM      4  C   UNL     1      -8.413   2.731 122.254  0.00  0.00    +0.000 A 
ATOM      5  C   UNL     1      -7.101   2.528 122.715  0.00  0.00    +0.000 A 
ATOM      6  C   UNL     1      -6.024   3.001 121.951  0.00  0.00    +0.000 A 
ATOM      7  C   UNL     1      -6.255   3.693 120.757  0.00  0.00    +0.000 A 
ATOM      8  C   UNL     1      -6.889   1.756 123.973  0.00  0.00    +0.000 C 
ATOM      9  C   UNL     1      -6.382   2.396 125.062  0.00  0.00    +0.000 C 
ATOM     10  C   UNL     1      -6.124   1.764 126.427  0.00  0.00    +0.000 C 
ATOM     11  C   UNL     1      -4.628   1.870 126.759  0.00  0.00    +0.000 C 
ATOM     12  N   UNL     1      -4.181   3.273 126.812  0.00  0.00    +0.000 NA
ATOM     13  C   UNL     1      -4.452   3.940 125.529  0.00  0.00    +0.000 C 
ATOM     14  C   UNL     1      -5.936   3.858 125.129  0.00  0.00    +0.000 C 
ATOM     15  C   UNL     1      -7.294   0.309 124.024  0.00  0.00    +0.000 A 
ATOM     16  C   UNL     1      -8.517  -0.171 123.525  0.00  0.00    +0.000 A 
ATOM     17  C   UNL     1      -9.604   0.641 122.854  0.00  0.00    +0.000 C 
ATOM     18  C   UNL     1      -9.572   2.155 123.022  0.00  0.00    +0.000 C 
ATOM     19  C   UNL     1      -8.758  -1.554 123.606  0.00  0.00    +0.000 A 
ATOM     20  C   UNL     1      -7.824  -2.402 124.180  0.00  0.00    +0.000 A 
ATOM     21  C   UNL     1      -6.651  -1.845 124.636  0.00  0.00    +0.000 A 
ATOM     22  N   UNL     1      -6.360  -0.530 124.551  0.00  0.00    +0.000 NA
ATOM     23  H   UNL     1      -3.180   3.295 127.000  0.00  0.00    +0.000 HD
ENDROOT
TORSDOF 0
ENDMDL
MODEL 2
REMARK VINA RESULT:      -8.1      3.232      6.248
REMARK  Name = Desloratadine
REMARK  0 active torsions:
REMARK  status: ('A' for Active; 'I' for Inactive)
REMARK                            x       y       z     vdW  Elec       q    Type
REMARK                         _______ _______ _______ _____ _____    ______ ____
ROOT
ATOM      1 CL   UNL     1      -3.997  -5.003 123.554  0.00  0.00    +0.000 Cl
ATOM      2  C   UNL     1      -4.900  -3.560 123.808  0.00  0.00    +0.000 A 
ATOM      3  C   UNL     1      -5.068  -3.076 125.102  0.00  0.00    +0.000 A 
ATOM      4  C   UNL     1      -5.814  -1.910 125.322  0.00  0.00    +0.000 A 
ATOM      5  C   UNL     1      -6.369  -1.214 124.234  0.00  0.00    +0.000 A 
ATOM      6  C   UNL     1      -6.170  -1.700 122.934  0.00  0.00    +0.000 A 
ATOM      7  C   UNL     1      -5.448  -2.880 122.724  0.00  0.00    +0.000 A 
ATOM      8  C   UNL     1      -7.102   0.059 124.489  0.00  0.00    +0.000 C 
ATOM      9  C   UNL     1      -8.441   0.110 124.252  0.00  0.00    +0.000 C 
ATOM     10  C   UNL     1      -9.342   1.321 124.478  0.00  0.00    +0.000 C 
ATOM     11  C   UNL     1      -9.976   1.737 123.143  0.00  0.00    +0.000 C 
ATOM     12  N   UNL     1     -10.797   0.656 122.571  0.00  0.00    +0.000 NA
ATOM     13  C   UNL     1      -9.980  -0.552 122.376  0.00  0.00    +0.000 C 
ATOM     14  C   UNL     1      -9.303  -1.016 123.678  0.00  0.00    +0.000 C 
ATOM     15  C   UNL     1      -6.356   1.235 125.058  0.00  0.00    +0.000 A 
ATOM     16  C   UNL     1      -5.452   1.134 126.129  0.00  0.00    +0.000 A 
ATOM     17  C   UNL     1      -5.062  -0.126 126.871  0.00  0.00    +0.000 C 
ATOM     18  C   UNL     1      -5.952  -1.353 126.713  0.00  0.00    +0.000 C 
ATOM     19  C   UNL     1      -4.795   2.307 126.543  0.00  0.00    +0.000 A 
ATOM     20  C   UNL     1      -5.054   3.519 125.923  0.00  0.00    +0.000 A 
ATOM     21  C   UNL     1      -5.949   3.522 124.876  0.00  0.00    +0.000 A 
ATOM     22  N   UNL     1      -6.579   2.418 124.422  0.00  0.00    +0.000 NA
ATOM     23  H   UNL     1     -11.168   0.962 121.672  0.00  0.00    +0.000 HD
ENDROOT
TORSDOF 0
ENDMDL
MODEL 3
REMARK VINA RESULT:      -7.9      3.691      5.905
REMARK  Name = Desloratadine
REMARK  0 active torsions:
REMARK  status: ('A' for Active; 'I' for Inactive)
REMARK                            x       y       z     vdW  Elec       q    Type
REMARK                         _______ _______ _______ _____ _____    ______ ____
ROOT
ATOM      1 CL   UNL     1      -4.404  -5.133 123.122  0.00  0.00    +0.000 Cl
ATOM      2  C   UNL     1      -5.292  -3.892 123.916  0.00  0.00    +0.000 A 
ATOM      3  C   UNL     1      -6.504  -4.201 124.528  0.00  0.00    +0.000 A 
ATOM      4  C   UNL     1      -7.243  -3.195 125.166  0.00  0.00    +0.000 A 
ATOM      5  C   UNL     1      -6.750  -1.880 125.211  0.00  0.00    +0.000 A 
ATOM      6  C   UNL     1      -5.515  -1.589 124.613  0.00  0.00    +0.000 A 
ATOM      7  C   UNL     1      -4.796  -2.592 123.954  0.00  0.00    +0.000 A 
ATOM      8  C   UNL     1      -7.523  -0.843 125.953  0.00  0.00    +0.000 C 
ATOM      9  C   UNL     1      -8.088   0.182 125.258  0.00  0.00    +0.000 C 
ATOM     10  C   UNL     1      -8.925   1.310 125.856  0.00  0.00    +0.000 C 
ATOM     11  C   UNL     1      -8.239   2.654 125.572  0.00  0.00    +0.000 C 
ATOM     12  N   UNL     1      -8.103   2.901 124.127  0.00  0.00    +0.000 NA
ATOM     13  C   UNL     1      -7.339   1.813 123.496  0.00  0.00    +0.000 C 
ATOM     14  C   UNL     1      -7.968   0.432 123.754  0.00  0.00    +0.000 C 
ATOM     15  C   UNL     1      -7.710  -0.988 127.438  0.00  0.00    +0.000 A 
ATOM     16  C   UNL     1      -8.065  -2.197 128.059  0.00  0.00    +0.000 A 
ATOM     17  C   UNL     1      -8.302  -3.530 127.382  0.00  0.00    +0.000 C 
ATOM     18  C   UNL     1      -8.526  -3.536 125.875  0.00  0.00    +0.000 C 
ATOM     19  C   UNL     1      -8.175  -2.204 129.462  0.00  0.00    +0.000 A 
ATOM     20  C   UNL     1      -7.959  -1.047 130.193  0.00  0.00    +0.000 A 
ATOM     21  C   UNL     1      -7.607   0.090 129.501  0.00  0.00    +0.000 A 
ATOM     22  N   UNL     1      -7.457   0.138 128.160  0.00  0.00    +0.000 NA
ATOM     23  H   UNL     1      -7.613   3.784 123.986  0.00  0.00    +0.000 HD
ENDROOT
TORSDOF 0
ENDMDL
MODEL 4
REMARK VINA RESULT:      -7.5      3.658      5.870
REMARK  Name = Desloratadine
REMARK  0 active torsions:
REMARK  status: ('A' for Active; 'I' for Inactive)
REMARK                            x       y       z     vdW  Elec       q    Type
REMARK                         _______ _______ _______ _____ _____    ______ ____
ROOT
ATOM      1 CL   UNL     1      -7.158   0.458 131.502  0.00  0.00    +0.000 Cl
ATOM      2  C   UNL     1      -7.307   0.420 129.789  0.00  0.00    +0.000 A 
ATOM      3  C   UNL     1      -6.452  -0.388 129.044  0.00  0.00    +0.000 A 
ATOM      4  C   UNL     1      -6.555  -0.416 127.647  0.00  0.00    +0.000 A 
ATOM      5  C   UNL     1      -7.539   0.350 126.998  0.00  0.00    +0.000 A 
ATOM      6  C   UNL     1      -8.410   1.139 127.763  0.00  0.00    +0.000 A 
ATOM      7  C   UNL     1      -8.283   1.184 129.155  0.00  0.00    +0.000 A 
ATOM      8  C   UNL     1      -7.670   0.251 125.516  0.00  0.00    +0.000 C 
ATOM      9  C   UNL     1      -7.374   1.339 124.753  0.00  0.00    +0.000 C 
ATOM     10  C   UNL     1      -7.435   1.401 123.229  0.00  0.00    +0.000 C 
ATOM     11  C   UNL     1      -8.451   2.473 122.807  0.00  0.00    +0.000 C 
ATOM     12  N   UNL     1      -8.073   3.806 123.306  0.00  0.00    +0.000 NA
ATOM     13  C   UNL     1      -7.956   3.785 124.772  0.00  0.00    +0.000 C 
ATOM     14  C   UNL     1      -6.961   2.719 125.264  0.00  0.00    +0.000 C 
ATOM     15  C   UNL     1      -8.068  -1.062 124.900  0.00  0.00    +0.000 A 
ATOM     16  C   UNL     1      -7.515  -2.296 125.282  0.00  0.00    +0.000 A 
ATOM     17  C   UNL     1      -6.471  -2.529 126.353  0.00  0.00    +0.000 C 
ATOM     18  C   UNL     1      -5.669  -1.330 126.843  0.00  0.00    +0.000 C 
ATOM     19  C   UNL     1      -8.000  -3.454 124.648  0.00  0.00    +0.000 A 
ATOM     20  C   UNL     1      -8.974  -3.367 123.666  0.00  0.00    +0.000 A 
ATOM     21  C   UNL     1      -9.464  -2.117 123.361  0.00  0.00    +0.000 A 
ATOM     22  N   UNL     1      -9.054  -0.981 123.964  0.00  0.00    +0.000 NA
ATOM     23  H   UNL     1      -8.789   4.478 123.033  0.00  0.00    +0.000 HD
ENDROOT
TORSDOF 0
ENDMDL
MODEL 5
REMARK VINA RESULT:      -7.5      4.344      6.083
REMARK  Name = Desloratadine
REMARK  0 active torsions:
REMARK  status: ('A' for Active; 'I' for Inactive)
REMARK                            x       y       z     vdW  Elec       q    Type
REMARK                         _______ _______ _______ _____ _____    ______ ____
ROOT
ATOM      1 CL   UNL     1      -5.121  -3.163 123.229  0.00  0.00    +0.000 Cl
ATOM      2  C   UNL     1      -5.794  -2.330 124.575  0.00  0.00    +0.000 A 
ATOM      3  C   UNL     1      -6.901  -2.865 125.229  0.00  0.00    +0.000 A 
ATOM      4  C   UNL     1      -7.466  -2.187 126.317  0.00  0.00    +0.000 A 
ATOM      5  C   UNL     1      -6.901  -0.982 126.768  0.00  0.00    +0.000 A 
ATOM      6  C   UNL     1      -5.771  -0.469 126.116  0.00  0.00    +0.000 A 
ATOM      7  C   UNL     1      -5.228  -1.135 125.012  0.00  0.00    +0.000 A 
ATOM      8  C   UNL     1      -7.481  -0.316 127.969  0.00  0.00    +0.000 C 
ATOM      9  C   UNL     1      -8.098   0.889 127.822  0.00  0.00    +0.000 C 
ATOM     10  C   UNL     1      -8.760   1.693 128.938  0.00  0.00    +0.000 C 
ATOM     11  C   UNL     1      -8.059   3.053 129.067  0.00  0.00    +0.000 C 
ATOM     12  N   UNL     1      -8.154   3.833 127.821  0.00  0.00    +0.000 NA
ATOM     13  C   UNL     1      -7.568   3.078 126.703  0.00  0.00    +0.000 C 
ATOM     14  C   UNL     1      -8.218   1.693 126.528  0.00  0.00    +0.000 C 
ATOM     15  C   UNL     1      -7.424  -1.018 129.298  0.00  0.00    +0.000 A 
ATOM     16  C   UNL     1      -7.735  -2.377 129.470  0.00  0.00    +0.000 A 
ATOM     17  C   UNL     1      -8.154  -3.355 128.394  0.00  0.00    +0.000 C 
ATOM     18  C   UNL     1      -8.629  -2.790 127.060  0.00  0.00    +0.000 C 
ATOM     19  C   UNL     1      -7.609  -2.918 130.762  0.00  0.00    +0.000 A 
ATOM     20  C   UNL     1      -7.210  -2.124 131.825  0.00  0.00    +0.000 A 
ATOM     21  C   UNL     1      -6.917  -0.804 131.562  0.00  0.00    +0.000 A 
ATOM     22  N   UNL     1      -6.992  -0.248 130.334  0.00  0.00    +0.000 NA
ATOM     23  H   UNL     1      -7.648   4.710 127.939  0.00  0.00    +0.000 HD
ENDROOT
TORSDOF 0
ENDMDL
MODEL 6
REMARK VINA RESULT:      -7.4      4.626      6.534
REMARK  Name = Desloratadine
REMARK  0 active torsions:
REMARK  status: ('A' for Active; 'I' for Inactive)
REMARK                            x       y       z     vdW  Elec       q    Type
REMARK                         _______ _______ _______ _____ _____    ______ ____
ROOT
ATOM      1 CL   UNL     1      -9.567  -3.441 123.698  0.00  0.00    +0.000 Cl
ATOM      2  C   UNL     1      -8.828  -2.703 125.066  0.00  0.00    +0.000 A 
ATOM      3  C   UNL     1      -9.017  -3.258 126.329  0.00  0.00    +0.000 A 
ATOM      4  C   UNL     1      -8.432  -2.657 127.452  0.00  0.00    +0.000 A 
ATOM      5  C   UNL     1      -7.632  -1.511 127.301  0.00  0.00    +0.000 A 
ATOM      6  C   UNL     1      -7.431  -0.979 126.020  0.00  0.00    +0.000 A 
ATOM      7  C   UNL     1      -8.041  -1.566 124.906  0.00  0.00    +0.000 A 
ATOM      8  C   UNL     1      -6.968  -0.930 128.503  0.00  0.00    +0.000 C 
ATOM      9  C   UNL     1      -7.352   0.300 128.940  0.00  0.00    +0.000 C 
ATOM     10  C   UNL     1      -6.792   1.027 130.160  0.00  0.00    +0.000 C 
ATOM     11  C   UNL     1      -6.155   2.351 129.712  0.00  0.00    +0.000 C 
ATOM     12  N   UNL     1      -7.138   3.235 129.062  0.00  0.00    +0.000 NA
ATOM     13  C   UNL     1      -7.740   2.558 127.903  0.00  0.00    +0.000 C 
ATOM     14  C   UNL     1      -8.387   1.213 128.282  0.00  0.00    +0.000 C 
ATOM     15  C   UNL     1      -5.934  -1.742 129.235  0.00  0.00    +0.000 A 
ATOM     16  C   UNL     1      -6.099  -3.101 129.551  0.00  0.00    +0.000 A 
ATOM     17  C   UNL     1      -7.289  -3.973 129.216  0.00  0.00    +0.000 C 
ATOM     18  C   UNL     1      -8.588  -3.285 128.811  0.00  0.00    +0.000 C 
ATOM     19  C   UNL     1      -5.040  -3.751 130.210  0.00  0.00    +0.000 A 
ATOM     20  C   UNL     1      -3.887  -3.061 130.549  0.00  0.00    +0.000 A 
ATOM     21  C   UNL     1      -3.810  -1.733 130.192  0.00  0.00    +0.000 A 
ATOM     22  N   UNL     1      -4.785  -1.074 129.531  0.00  0.00    +0.000 NA
ATOM     23  H   UNL     1      -6.666   4.083 128.751  0.00  0.00    +0.000 HD
ENDROOT
TORSDOF 0
ENDMDL
MODEL 7
REMARK VINA RESULT:      -7.2      3.473      5.474
REMARK  Name = Desloratadine
REMARK  0 active torsions:
REMARK  status: ('A' for Active; 'I' for Inactive)
REMARK                            x       y       z     vdW  Elec       q    Type
REMARK                         _______ _______ _______ _____ _____    ______ ____
ROOT
ATOM      1 CL   UNL     1      -5.369  -3.263 129.232  0.00  0.00    +0.000 Cl
ATOM      2  C   UNL     1      -5.782  -2.011 128.126  0.00  0.00    +0.000 A 
ATOM      3  C   UNL     1      -5.614  -2.222 126.760  0.00  0.00    +0.000 A 
ATOM      4  C   UNL     1      -5.934  -1.204 125.850  0.00  0.00    +0.000 A 
ATOM      5  C   UNL     1      -6.448   0.019 126.314  0.00  0.00    +0.000 A 
ATOM      6  C   UNL     1      -6.636   0.206 127.690  0.00  0.00    +0.000 A 
ATOM      7  C   UNL     1      -6.288  -0.803 128.595  0.00  0.00    +0.000 A 
ATOM      8  C   UNL     1      -6.842   1.059 125.321  0.00  0.00    +0.000 C 
ATOM      9  C   UNL     1      -6.138   2.223 125.271  0.00  0.00    +0.000 C 
ATOM     10  C   UNL     1      -6.394   3.378 124.306  0.00  0.00    +0.000 C 
ATOM     11  C   UNL     1      -6.738   4.642 125.109  0.00  0.00    +0.000 C 
ATOM     12  N   UNL     1      -5.638   5.030 126.008  0.00  0.00    +0.000 NA
ATOM     13  C   UNL     1      -5.323   3.928 126.930  0.00  0.00    +0.000 C 
ATOM     14  C   UNL     1      -4.982   2.623 126.187  0.00  0.00    +0.000 C 
ATOM     15  C   UNL     1      -7.966   0.774 124.364  0.00  0.00    +0.000 A 
ATOM     16  C   UNL     1      -8.101  -0.439 123.667  0.00  0.00    +0.000 A 
ATOM     17  C   UNL     1      -7.187  -1.642 123.756  0.00  0.00    +0.000 C 
ATOM     18  C   UNL     1      -5.806  -1.448 124.370  0.00  0.00    +0.000 C 
ATOM     19  C   UNL     1      -9.218  -0.589 122.826  0.00  0.00    +0.000 A 
ATOM     20  C   UNL     1     -10.137   0.437 122.681  0.00  0.00    +0.000 A 
ATOM     21  C   UNL     1      -9.930   1.588 123.409  0.00  0.00    +0.000 A 
ATOM     22  N   UNL     1      -8.892   1.767 124.253  0.00  0.00    +0.000 NA
ATOM     23  H   UNL     1      -5.921   5.849 126.544  0.00  0.00    +0.000 HD
ENDROOT
TORSDOF 0
ENDMDL
MODEL 8
REMARK VINA RESULT:      -7.1      7.293      9.937
REMARK  Name = Desloratadine
REMARK  0 active torsions:
REMARK  status: ('A' for Active; 'I' for Inactive)
REMARK                            x       y       z     vdW  Elec       q    Type
REMARK                         _______ _______ _______ _____ _____    ______ ____
ROOT
ATOM      1 CL   UNL     1      -1.744   9.175 134.207  0.00  0.00    +0.000 Cl
ATOM      2  C   UNL     1      -2.699   8.167 133.191  0.00  0.00    +0.000 A 
ATOM      3  C   UNL     1      -2.757   8.429 131.825  0.00  0.00    +0.000 A 
ATOM      4  C   UNL     1      -3.543   7.623 130.990  0.00  0.00    +0.000 A 
ATOM      5  C   UNL     1      -4.251   6.534 131.526  0.00  0.00    +0.000 A 
ATOM      6  C   UNL     1      -4.163   6.267 132.899  0.00  0.00    +0.000 A 
ATOM      7  C   UNL     1      -3.399   7.093 133.732  0.00  0.00    +0.000 A 
ATOM      8  C   UNL     1      -5.026   5.653 130.606  0.00  0.00    +0.000 C 
ATOM      9  C   UNL     1      -6.384   5.631 130.701  0.00  0.00    +0.000 C 
ATOM     10  C   UNL     1      -7.325   4.806 129.827  0.00  0.00    +0.000 C 
ATOM     11  C   UNL     1      -8.122   3.838 130.715  0.00  0.00    +0.000 C 
ATOM     12  N   UNL     1      -8.933   4.558 131.711  0.00  0.00    +0.000 NA
ATOM     13  C   UNL     1      -8.073   5.405 132.551  0.00  0.00    +0.000 C 
ATOM     14  C   UNL     1      -7.233   6.392 131.720  0.00  0.00    +0.000 C 
ATOM     15  C   UNL     1      -4.295   4.859 129.559  0.00  0.00    +0.000 A 
ATOM     16  C   UNL     1      -3.277   5.395 128.752  0.00  0.00    +0.000 A 
ATOM     17  C   UNL     1      -2.736   6.807 128.792  0.00  0.00    +0.000 C 
ATOM     18  C   UNL     1      -3.564   7.870 129.505  0.00  0.00    +0.000 C 
ATOM     19  C   UNL     1      -2.650   4.533 127.833  0.00  0.00    +0.000 A 
ATOM     20  C   UNL     1      -3.045   3.210 127.721  0.00  0.00    +0.000 A 
ATOM     21  C   UNL     1      -4.045   2.769 128.559  0.00  0.00    +0.000 A 
ATOM     22  N   UNL     1      -4.654   3.548 129.478  0.00  0.00    +0.000 NA
ATOM     23  H   UNL     1      -9.416   3.879 132.299  0.00  0.00    +0.000 HD
ENDROOT
TORSDOF 0
ENDMDL
MODEL 9
REMARK VINA RESULT:      -7.1      4.921      7.061
REMARK  Name = Desloratadine
REMARK  0 active torsions:
REMARK  status: ('A' for Active; 'I' for Inactive)
REMARK                            x       y       z     vdW  Elec       q    Type
REMARK                         _______ _______ _______ _____ _____    ______ ____
ROOT
ATOM      1 CL   UNL     1      -9.388   2.718 133.280  0.00  0.00    +0.000 Cl
ATOM      2  C   UNL     1      -8.828   1.982 131.829  0.00  0.00    +0.000 A 
ATOM      3  C   UNL     1      -8.029   0.844 131.902  0.00  0.00    +0.000 A 
ATOM      4  C   UNL     1      -7.556   0.244 130.728  0.00  0.00    +0.000 A 
ATOM      5  C   UNL     1      -7.909   0.773 129.475  0.00  0.00    +0.000 A 
ATOM      6  C   UNL     1      -8.736   1.904 129.416  0.00  0.00    +0.000 A 
ATOM      7  C   UNL     1      -9.182   2.515 130.593  0.00  0.00    +0.000 A 
ATOM      8  C   UNL     1      -7.448   0.077 128.240  0.00  0.00    +0.000 C 
ATOM      9  C   UNL     1      -6.555   0.703 127.424  0.00  0.00    +0.000 C 
ATOM     10  C   UNL     1      -5.967   0.126 126.139  0.00  0.00    +0.000 C 
ATOM     11  C   UNL     1      -6.349   1.030 124.957  0.00  0.00    +0.000 C 
ATOM     12  N   UNL     1      -5.827   2.397 125.128  0.00  0.00    +0.000 NA
ATOM     13  C   UNL     1      -6.332   2.980 126.381  0.00  0.00    +0.000 C 
ATOM     14  C   UNL     1      -5.994   2.113 127.607  0.00  0.00    +0.000 C 
ATOM     15  C   UNL     1      -7.932  -1.318 127.958  0.00  0.00    +0.000 A 
ATOM     16  C   UNL     1      -7.981  -2.332 128.930  0.00  0.00    +0.000 A 
ATOM     17  C   UNL     1      -7.589  -2.212 130.386  0.00  0.00    +0.000 C 
ATOM     18  C   UNL     1      -6.738  -1.017 130.802  0.00  0.00    +0.000 C 
ATOM     19  C   UNL     1      -8.488  -3.585 128.542  0.00  0.00    +0.000 A 
ATOM     20  C   UNL     1      -8.901  -3.809 127.238  0.00  0.00    +0.000 A 
ATOM     21  C   UNL     1      -8.824  -2.755 126.355  0.00  0.00    +0.000 A 
ATOM     22  N   UNL     1      -8.377  -1.525 126.688  0.00  0.00    +0.000 NA
ATOM     23  H   UNL     1      -6.133   2.969 124.342  0.00  0.00    +0.000 HD
ENDROOT
TORSDOF 0
ENDMDL
