MODEL 1
REMARK VINA RESULT:      -9.0      0.000      0.000
REMARK  Name = Desonide
REMARK  8 active torsions:
REMARK  status: ('A' for Active; 'I' for Inactive)
REMARK    1  A    between atoms: C_6  and  C_7
REMARK    2  A    between atoms: C_6  and  C_8
REMARK    3  A    between atoms: C_10  and  C_11
REMARK    4  A    between atoms: C_11  and  C_13
REMARK    5  A    between atoms: C_13  and  O_14
REMARK    6  A    between atoms: C_15  and  C_16
REMARK    7  A    between atoms: C_18  and  O_19
REMARK    8  A    between atoms: C_32  and  C_33
REMARK                            x       y       z     vdW  Elec       q    Type
REMARK                         _______ _______ _______ _____ _____    ______ ____
ROOT
ATOM      1  C   UNL     1      -7.813  -3.233 125.712  0.00  0.00    +0.000 C 
ATOM      2  C   UNL     1      -9.304  -3.127 125.562  0.00  0.00    +0.000 C 
ATOM      3  C   UNL     1      -9.703  -1.640 125.380  0.00  0.00    +0.000 C 
ATOM      4  O   UNL     1      -9.369  -0.754 124.066  0.00  0.00    +0.000 OA
ATOM      5  C   UNL     1      -8.626   0.588 124.490  0.00  0.00    +0.000 C 
ATOM      6  C   UNL     1      -6.967   1.348 124.033  0.00  0.00    +0.000 C 
ATOM      7  C   UNL     1      -9.233   1.689 123.722  0.00  0.00    +0.000 C 
ATOM      8  O   UNL     1      -8.958   0.424 125.817  0.00  0.00    +0.000 OA
ATOM      9  C   UNL     1      -8.586  -1.166 126.174  0.00  0.00    +0.000 C 
ATOM     10  C   UNL     1      -7.273  -2.137 124.980  0.00  0.00    +0.000 C 
ATOM     11  C   UNL     1      -5.500  -2.684 124.962  0.00  0.00    +0.000 C 
ATOM     12  C   UNL     1      -6.656  -0.928 124.577  0.00  0.00    +0.000 C 
ATOM     13  C   UNL     1      -6.232  -0.043 125.793  0.00  0.00    +0.000 C 
ATOM     14  C   UNL     1      -7.031  -0.330 126.899  0.00  0.00    +0.000 C 
ATOM     15  C   UNL     1      -7.370  -2.519 126.858  0.00  0.00    +0.000 C 
ATOM     16  C   UNL     1      -8.282  -3.279 128.620  0.00  0.00    +0.000 C 
ATOM     17  C   UNL     1      -7.738  -2.233 130.326  0.00  0.00    +0.000 C 
ATOM     18  C   UNL     1      -7.570  -0.370 130.120  0.00  0.00    +0.000 C 
ATOM     19  C   UNL     1      -8.247   0.467 130.912  0.00  0.00    +0.000 C 
ATOM     20  C   UNL     1      -8.108   1.920 130.544  0.00  0.00    +0.000 C 
ATOM     21  O   UNL     1      -7.391   2.820 130.958  0.00  0.00    +0.000 OA
ATOM     22  C   UNL     1      -8.946   2.322 129.427  0.00  0.00    +0.000 C 
ATOM     23  C   UNL     1      -7.962   1.837 128.594  0.00  0.00    +0.000 C 
ATOM     24  C   UNL     1      -6.861   0.516 128.685  0.00  0.00    +0.000 C 
ATOM     25  C   UNL     1      -5.270   0.495 128.933  0.00  0.00    +0.000 C 
ENDROOT
BRANCH   9  26
ATOM     26  C   UNL     1      -7.810  -1.398 128.130  0.00  0.00    +0.000 C 
ATOM     27  O   UNL     1      -6.215  -1.293 128.114  0.00  0.00    +0.000 OA
BRANCH  26  28
ATOM     28  C   UNL     1      -6.454  -2.724 128.595  0.00  0.00    +0.000 C 
BRANCH  28  29
ATOM     29  O   UNL     1      -5.131  -2.968 128.723  0.00  0.00    +0.000 OA
ATOM     30  H   UNL     1      -4.950  -2.197 129.293  0.00  0.00    +0.000 HD
ENDBRANCH  28  29
ENDBRANCH  26  28
ENDBRANCH   9  26
BRANCH  13  31
ATOM     31  O   UNL     1      -4.866  -0.146 125.980  0.00  0.00    +0.000 OA
ATOM     32  H   UNL     1      -4.586  -0.651 125.201  0.00  0.00    +0.000 HD
ENDBRANCH  13  31
TORSDOF 4
ENDMDL
MODEL 2
REMARK VINA RESULT:      -8.6      2.455      5.283
REMARK  Name = Desonide
REMARK  8 active torsions:
REMARK  status: ('A' for Active; 'I' for Inactive)
REMARK    1  A    between atoms: C_6  and  C_7
REMARK    2  A    between atoms: C_6  and  C_8
REMARK    3  A    between atoms: C_10  and  C_11
REMARK    4  A    between atoms: C_11  and  C_13
REMARK    5  A    between atoms: C_13  and  O_14
REMARK    6  A    between atoms: C_15  and  C_16
REMARK    7  A    between atoms: C_18  and  O_19
REMARK    8  A    between atoms: C_32  and  C_33
REMARK                            x       y       z     vdW  Elec       q    Type
REMARK                         _______ _______ _______ _____ _____    ______ ____
ROOT
ATOM      1  C   UNL     1      -8.104  -0.196 124.023  0.00  0.00    +0.000 C 
ATOM      2  C   UNL     1      -6.950  -0.964 123.446  0.00  0.00    +0.000 C 
ATOM      3  C   UNL     1      -5.924  -1.279 124.566  0.00  0.00    +0.000 C 
ATOM      4  O   UNL     1      -6.184  -2.315 125.784  0.00  0.00    +0.000 OA
ATOM      5  C   UNL     1      -5.902  -1.598 127.176  0.00  0.00    +0.000 C 
ATOM      6  C   UNL     1      -6.947  -1.295 128.711  0.00  0.00    +0.000 C 
ATOM      7  C   UNL     1      -5.127  -2.536 128.007  0.00  0.00    +0.000 C 
ATOM      8  O   UNL     1      -5.260  -0.540 126.570  0.00  0.00    +0.000 OA
ATOM      9  C   UNL     1      -6.256  -0.079 125.309  0.00  0.00    +0.000 C 
ATOM     10  C   UNL     1      -8.206  -0.614 125.381  0.00  0.00    +0.000 C 
ATOM     11  C   UNL     1      -9.869   0.116 125.755  0.00  0.00    +0.000 C 
ATOM     12  C   UNL     1      -8.191  -0.701 126.794  0.00  0.00    +0.000 C 
ATOM     13  C   UNL     1      -7.621   0.592 127.462  0.00  0.00    +0.000 C 
ATOM     14  C   UNL     1      -6.761   1.250 126.583  0.00  0.00    +0.000 C 
ATOM     15  C   UNL     1      -7.663   1.039 124.571  0.00  0.00    +0.000 C 
ATOM     16  C   UNL     1      -6.732   2.235 123.084  0.00  0.00    +0.000 C 
ATOM     17  C   UNL     1      -5.996   4.024 123.830  0.00  0.00    +0.000 C 
ATOM     18  C   UNL     1      -5.219   3.934 125.542  0.00  0.00    +0.000 C 
ATOM     19  C   UNL     1      -3.975   4.373 125.750  0.00  0.00    +0.000 C 
ATOM     20  C   UNL     1      -3.449   4.119 127.137  0.00  0.00    +0.000 C 
ATOM     21  O   UNL     1      -3.383   4.811 128.143  0.00  0.00    +0.000 OA
ATOM     22  C   UNL     1      -2.988   2.757 127.346  0.00  0.00    +0.000 C 
ATOM     23  C   UNL     1      -4.299   2.415 127.591  0.00  0.00    +0.000 C 
ATOM     24  C   UNL     1      -5.812   2.949 126.966  0.00  0.00    +0.000 C 
ATOM     25  C   UNL     1      -6.964   3.850 127.639  0.00  0.00    +0.000 C 
ENDROOT
BRANCH   9  26
ATOM     26  C   UNL     1      -6.282   2.017 125.020  0.00  0.00    +0.000 C 
ATOM     27  O   UNL     1      -7.452   2.686 125.881  0.00  0.00    +0.000 OA
BRANCH  26  28
ATOM     28  C   UNL     1      -7.868   3.001 124.443  0.00  0.00    +0.000 C 
BRANCH  28  29
ATOM     29  O   UNL     1      -8.996   3.630 124.842  0.00  0.00    +0.000 OA
ATOM     30  H   UNL     1      -8.767   4.491 124.442  0.00  0.00    +0.000 HD
ENDBRANCH  28  29
ENDBRANCH  26  28
ENDBRANCH   9  26
BRANCH  13  31
ATOM     31  O   UNL     1      -8.663   1.341 127.974  0.00  0.00    +0.000 OA
ATOM     32  H   UNL     1      -8.759   2.045 127.314  0.00  0.00    +0.000 HD
ENDBRANCH  13  31
TORSDOF 4
ENDMDL
MODEL 3
REMARK VINA RESULT:      -8.3      5.123      7.444
REMARK  Name = Desonide
REMARK  8 active torsions:
REMARK  status: ('A' for Active; 'I' for Inactive)
REMARK    1  A    between atoms: C_6  and  C_7
REMARK    2  A    between atoms: C_6  and  C_8
REMARK    3  A    between atoms: C_10  and  C_11
REMARK    4  A    between atoms: C_11  and  C_13
REMARK    5  A    between atoms: C_13  and  O_14
REMARK    6  A    between atoms: C_15  and  C_16
REMARK    7  A    between atoms: C_18  and  O_19
REMARK    8  A    between atoms: C_32  and  C_33
REMARK                            x       y       z     vdW  Elec       q    Type
REMARK                         _______ _______ _______ _____ _____    ______ ____
ROOT
ATOM      1  C   UNL     1      -4.243   2.718 129.899  0.00  0.00    +0.000 C 
ATOM      2  C   UNL     1      -4.347   3.209 128.483  0.00  0.00    +0.000 C 
ATOM      3  C   UNL     1      -4.644   4.730 128.481  0.00  0.00    +0.000 C 
ATOM      4  O   UNL     1      -3.592   5.871 128.945  0.00  0.00    +0.000 OA
ATOM      5  C   UNL     1      -4.257   6.809 130.046  0.00  0.00    +0.000 C 
ATOM      6  C   UNL     1      -3.792   7.265 131.811  0.00  0.00    +0.000 C 
ATOM      7  C   UNL     1      -3.921   8.201 129.700  0.00  0.00    +0.000 C 
ATOM      8  O   UNL     1      -5.521   6.330 129.776  0.00  0.00    +0.000 OA
ATOM      9  C   UNL     1      -5.367   4.667 129.737  0.00  0.00    +0.000 C 
ATOM     10  C   UNL     1      -3.772   3.827 130.658  0.00  0.00    +0.000 C 
ATOM     11  C   UNL     1      -3.346   2.916 132.216  0.00  0.00    +0.000 C 
ATOM     12  C   UNL     1      -3.634   4.924 131.544  0.00  0.00    +0.000 C 
ATOM     13  C   UNL     1      -4.972   5.272 132.272  0.00  0.00    +0.000 C 
ATOM     14  C   UNL     1      -6.060   4.855 131.505  0.00  0.00    +0.000 C 
ATOM     15  C   UNL     1      -5.465   2.926 130.595  0.00  0.00    +0.000 C 
ATOM     16  C   UNL     1      -7.060   1.899 129.640  0.00  0.00    +0.000 C 
ATOM     17  C   UNL     1      -8.891   2.218 130.560  0.00  0.00    +0.000 C 
ATOM     18  C   UNL     1      -9.186   3.963 131.201  0.00  0.00    +0.000 C 
ATOM     19  C   UNL     1     -10.269   4.652 130.828  0.00  0.00    +0.000 C 
ATOM     20  C   UNL     1     -10.302   6.074 131.322  0.00  0.00    +0.000 C 
ATOM     21  O   UNL     1     -10.839   6.611 132.279  0.00  0.00    +0.000 OA
ATOM     22  C   UNL     1      -9.474   6.980 130.544  0.00  0.00    +0.000 C 
ATOM     23  C   UNL     1      -8.405   6.557 131.303  0.00  0.00    +0.000 C 
ATOM     24  C   UNL     1      -7.965   5.054 132.018  0.00  0.00    +0.000 C 
ATOM     25  C   UNL     1      -7.964   4.588 133.560  0.00  0.00    +0.000 C 
ENDROOT
BRANCH   9  26
ATOM     26  C   UNL     1      -7.047   3.675 130.558  0.00  0.00    +0.000 C 
ATOM     27  O   UNL     1      -6.817   3.382 132.113  0.00  0.00    +0.000 OA
BRANCH  26  28
ATOM     28  C   UNL     1      -6.928   1.978 131.517  0.00  0.00    +0.000 C 
BRANCH  28  29
ATOM     29  O   UNL     1      -6.783   1.387 132.724  0.00  0.00    +0.000 OA
ATOM     30  H   UNL     1      -7.106   0.512 132.437  0.00  0.00    +0.000 HD
ENDBRANCH  28  29
ENDBRANCH  26  28
ENDBRANCH   9  26
BRANCH  13  31
ATOM     31  O   UNL     1      -4.923   4.802 133.571  0.00  0.00    +0.000 OA
ATOM     32  H   UNL     1      -5.480   4.009 133.527  0.00  0.00    +0.000 HD
ENDBRANCH  13  31
TORSDOF 4
ENDMDL
MODEL 4
REMARK VINA RESULT:      -8.3      1.835      2.987
REMARK  Name = Desonide
REMARK  8 active torsions:
REMARK  status: ('A' for Active; 'I' for Inactive)
REMARK    1  A    between atoms: C_6  and  C_7
REMARK    2  A    between atoms: C_6  and  C_8
REMARK    3  A    between atoms: C_10  and  C_11
REMARK    4  A    between atoms: C_11  and  C_13
REMARK    5  A    between atoms: C_13  and  O_14
REMARK    6  A    between atoms: C_15  and  C_16
REMARK    7  A    between atoms: C_18  and  O_19
REMARK    8  A    between atoms: C_32  and  C_33
REMARK                            x       y       z     vdW  Elec       q    Type
REMARK                         _______ _______ _______ _____ _____    ______ ____
ROOT
ATOM      1  C   UNL     1      -8.901  -0.615 123.830  0.00  0.00    +0.000 C 
ATOM      2  C   UNL     1     -10.151   0.081 124.286  0.00  0.00    +0.000 C 
ATOM      3  C   UNL     1      -9.807   1.069 125.430  0.00  0.00    +0.000 C 
ATOM      4  O   UNL     1      -8.952   2.432 125.240  0.00  0.00    +0.000 OA
ATOM      5  C   UNL     1      -7.738   2.460 126.269  0.00  0.00    +0.000 C 
ATOM      6  C   UNL     1      -5.873   2.604 126.066  0.00  0.00    +0.000 C 
ATOM      7  C   UNL     1      -7.682   3.814 126.848  0.00  0.00    +0.000 C 
ATOM      8  O   UNL     1      -8.265   1.426 127.011  0.00  0.00    +0.000 OA
ATOM      9  C   UNL     1      -8.701   0.257 125.900  0.00  0.00    +0.000 C 
ATOM     10  C   UNL     1      -7.839   0.302 124.070  0.00  0.00    +0.000 C 
ATOM     11  C   UNL     1      -6.519  -0.564 123.096  0.00  0.00    +0.000 C 
ATOM     12  C   UNL     1      -6.697   0.981 124.561  0.00  0.00    +0.000 C 
ATOM     13  C   UNL     1      -6.067   0.265 125.799  0.00  0.00    +0.000 C 
ATOM     14  C   UNL     1      -7.036  -0.483 126.467  0.00  0.00    +0.000 C 
ATOM     15  C   UNL     1      -8.324  -1.362 124.893  0.00  0.00    +0.000 C 
ATOM     16  C   UNL     1      -9.685  -2.823 125.615  0.00  0.00    +0.000 C 
ATOM     17  C   UNL     1      -8.936  -3.902 127.219  0.00  0.00    +0.000 C 
ATOM     18  C   UNL     1      -7.917  -2.916 128.458  0.00  0.00    +0.000 C 
ATOM     19  C   UNL     1      -8.231  -2.924 129.757  0.00  0.00    +0.000 C 
ATOM     20  C   UNL     1      -7.405  -1.991 130.602  0.00  0.00    +0.000 C 
ATOM     21  O   UNL     1      -6.413  -2.155 131.298  0.00  0.00    +0.000 OA
ATOM     22  C   UNL     1      -7.828  -0.603 130.522  0.00  0.00    +0.000 C 
ATOM     23  C   UNL     1      -7.079  -0.505 129.371  0.00  0.00    +0.000 C 
ATOM     24  C   UNL     1      -6.717  -1.588 128.083  0.00  0.00    +0.000 C 
ATOM     25  C   UNL     1      -5.351  -2.359 127.716  0.00  0.00    +0.000 C 
ENDROOT
BRANCH   9  26
ATOM     26  C   UNL     1      -8.357  -1.707 126.609  0.00  0.00    +0.000 C 
ATOM     27  O   UNL     1      -6.923  -2.230 126.131  0.00  0.00    +0.000 OA
BRANCH  26  28
ATOM     28  C   UNL     1      -7.884  -3.201 125.444  0.00  0.00    +0.000 C 
BRANCH  28  29
ATOM     29  O   UNL     1      -6.922  -3.750 124.669  0.00  0.00    +0.000 OA
ATOM     30  H   UNL     1      -7.001  -4.647 125.046  0.00  0.00    +0.000 HD
ENDBRANCH  28  29
ENDBRANCH  26  28
ENDBRANCH   9  26
BRANCH  13  31
ATOM     31  O   UNL     1      -4.931  -0.416 125.405  0.00  0.00    +0.000 OA
ATOM     32  H   UNL     1      -4.238   0.255 125.510  0.00  0.00    +0.000 HD
ENDBRANCH  13  31
TORSDOF 4
ENDMDL
MODEL 5
REMARK VINA RESULT:      -8.2      1.980      6.068
REMARK  Name = Desonide
REMARK  8 active torsions:
REMARK  status: ('A' for Active; 'I' for Inactive)
REMARK    1  A    between atoms: C_6  and  C_7
REMARK    2  A    between atoms: C_6  and  C_8
REMARK    3  A    between atoms: C_10  and  C_11
REMARK    4  A    between atoms: C_11  and  C_13
REMARK    5  A    between atoms: C_13  and  O_14
REMARK    6  A    between atoms: C_15  and  C_16
REMARK    7  A    between atoms: C_18  and  O_19
REMARK    8  A    between atoms: C_32  and  C_33
REMARK                            x       y       z     vdW  Elec       q    Type
REMARK                         _______ _______ _______ _____ _____    ______ ____
ROOT
ATOM      1  C   UNL     1      -7.117   1.832 130.799  0.00  0.00    +0.000 C 
ATOM      2  C   UNL     1      -8.434   1.591 131.479  0.00  0.00    +0.000 C 
ATOM      3  C   UNL     1      -8.622   0.072 131.724  0.00  0.00    +0.000 C 
ATOM      4  O   UNL     1      -7.759  -0.802 132.780  0.00  0.00    +0.000 OA
ATOM      5  C   UNL     1      -7.124  -2.066 132.049  0.00  0.00    +0.000 C 
ATOM      6  C   UNL     1      -5.360  -2.682 131.829  0.00  0.00    +0.000 C 
ATOM      7  C   UNL     1      -7.318  -3.229 132.933  0.00  0.00    +0.000 C 
ATOM      8  O   UNL     1      -7.934  -1.910 130.946  0.00  0.00    +0.000 OA
ATOM      9  C   UNL     1      -7.845  -0.289 130.554  0.00  0.00    +0.000 C 
ATOM     10  C   UNL     1      -6.262   0.777 131.228  0.00  0.00    +0.000 C 
ATOM     11  C   UNL     1      -4.656   1.479 130.621  0.00  0.00    +0.000 C 
ATOM     12  C   UNL     1      -5.448  -0.378 131.318  0.00  0.00    +0.000 C 
ATOM     13  C   UNL     1      -5.437  -1.202 129.991  0.00  0.00    +0.000 C 
ATOM     14  C   UNL     1      -6.608  -0.970 129.269  0.00  0.00    +0.000 C 
ATOM     15  C   UNL     1      -7.076   1.178 129.537  0.00  0.00    +0.000 C 
ATOM     16  C   UNL     1      -8.629   1.882 128.271  0.00  0.00    +0.000 C 
ATOM     17  C   UNL     1      -8.676   0.917 126.437  0.00  0.00    +0.000 C 
ATOM     18  C   UNL     1      -8.301  -0.927 126.477  0.00  0.00    +0.000 C 
ATOM     19  C   UNL     1      -9.156  -1.808 125.950  0.00  0.00    +0.000 C 
ATOM     20  C   UNL     1      -8.779  -3.249 126.171  0.00  0.00    +0.000 C 
ATOM     21  O   UNL     1      -8.198  -4.074 125.480  0.00  0.00    +0.000 OA
ATOM     22  C   UNL     1      -9.111  -3.741 127.496  0.00  0.00    +0.000 C 
ATOM     23  C   UNL     1      -7.930  -3.184 127.933  0.00  0.00    +0.000 C 
ATOM     24  C   UNL     1      -7.045  -1.769 127.508  0.00  0.00    +0.000 C 
ATOM     25  C   UNL     1      -5.665  -1.602 126.694  0.00  0.00    +0.000 C 
ENDROOT
BRANCH   9  26
ATOM     26  C   UNL     1      -7.867   0.044 128.463  0.00  0.00    +0.000 C 
ATOM     27  O   UNL     1      -6.375   0.107 127.892  0.00  0.00    +0.000 OA
BRANCH  26  28
ATOM     28  C   UNL     1      -6.908   1.510 127.600  0.00  0.00    +0.000 C 
BRANCH  28  29
ATOM     29  O   UNL     1      -5.754   1.894 127.010  0.00  0.00    +0.000 OA
ATOM     30  H   UNL     1      -6.148   2.637 126.513  0.00  0.00    +0.000 HD
ENDBRANCH  28  29
ENDBRANCH  26  28
ENDBRANCH   9  26
BRANCH  13  31
ATOM     31  O   UNL     1      -4.250  -0.975 129.321  0.00  0.00    +0.000 OA
ATOM     32  H   UNL     1      -3.691  -1.704 129.632  0.00  0.00    +0.000 HD
ENDBRANCH  13  31
TORSDOF 4
ENDMDL
MODEL 6
REMARK VINA RESULT:      -8.1      5.483      8.420
REMARK  Name = Desonide
REMARK  8 active torsions:
REMARK  status: ('A' for Active; 'I' for Inactive)
REMARK    1  A    between atoms: C_6  and  C_7
REMARK    2  A    between atoms: C_6  and  C_8
REMARK    3  A    between atoms: C_10  and  C_11
REMARK    4  A    between atoms: C_11  and  C_13
REMARK    5  A    between atoms: C_13  and  O_14
REMARK    6  A    between atoms: C_15  and  C_16
REMARK    7  A    between atoms: C_18  and  O_19
REMARK    8  A    between atoms: C_32  and  C_33
REMARK                            x       y       z     vdW  Elec       q    Type
REMARK                         _______ _______ _______ _____ _____    ______ ____
ROOT
ATOM      1  C   UNL     1      -6.883   2.880 129.653  0.00  0.00    +0.000 C 
ATOM      2  C   UNL     1      -6.424   1.825 130.618  0.00  0.00    +0.000 C 
ATOM      3  C   UNL     1      -6.346   2.426 132.045  0.00  0.00    +0.000 C 
ATOM      4  O   UNL     1      -7.631   2.869 132.926  0.00  0.00    +0.000 OA
ATOM      5  C   UNL     1      -7.458   4.372 133.421  0.00  0.00    +0.000 C 
ATOM      6  C   UNL     1      -8.488   5.932 133.208  0.00  0.00    +0.000 C 
ATOM      7  C   UNL     1      -7.857   4.419 134.839  0.00  0.00    +0.000 C 
ATOM      8  O   UNL     1      -6.120   4.390 133.093  0.00  0.00    +0.000 OA
ATOM      9  C   UNL     1      -6.032   3.752 131.551  0.00  0.00    +0.000 C 
ATOM     10  C   UNL     1      -7.703   3.765 130.409  0.00  0.00    +0.000 C 
ATOM     11  C   UNL     1      -8.453   4.701 128.994  0.00  0.00    +0.000 C 
ATOM     12  C   UNL     1      -8.246   4.867 131.114  0.00  0.00    +0.000 C 
ATOM     13  C   UNL     1      -7.247   6.065 131.203  0.00  0.00    +0.000 C 
ATOM     14  C   UNL     1      -5.934   5.606 131.108  0.00  0.00    +0.000 C 
ATOM     15  C   UNL     1      -5.965   3.966 129.620  0.00  0.00    +0.000 C 
ATOM     16  C   UNL     1      -4.035   3.304 129.031  0.00  0.00    +0.000 C 
ATOM     17  C   UNL     1      -2.625   4.824 129.034  0.00  0.00    +0.000 C 
ATOM     18  C   UNL     1      -2.771   6.068 130.439  0.00  0.00    +0.000 C 
ATOM     19  C   UNL     1      -1.728   6.322 131.236  0.00  0.00    +0.000 C 
ATOM     20  C   UNL     1      -2.035   7.241 132.388  0.00  0.00    +0.000 C 
ATOM     21  O   UNL     1      -1.887   8.442 132.557  0.00  0.00    +0.000 OA
ATOM     22  C   UNL     1      -2.704   6.582 133.497  0.00  0.00    +0.000 C 
ATOM     23  C   UNL     1      -3.885   6.762 132.812  0.00  0.00    +0.000 C 
ATOM     24  C   UNL     1      -4.315   6.751 131.144  0.00  0.00    +0.000 C 
ATOM     25  C   UNL     1      -4.718   7.960 130.159  0.00  0.00    +0.000 C 
ENDROOT
BRANCH   9  26
ATOM     26  C   UNL     1      -4.560   4.701 130.362  0.00  0.00    +0.000 C 
ATOM     27  O   UNL     1      -5.213   5.877 129.496  0.00  0.00    +0.000 OA
BRANCH  26  28
ATOM     28  C   UNL     1      -4.713   4.906 128.426  0.00  0.00    +0.000 C 
BRANCH  28  29
ATOM     29  O   UNL     1      -4.944   5.768 127.410  0.00  0.00    +0.000 OA
ATOM     30  H   UNL     1      -5.050   6.555 127.980  0.00  0.00    +0.000 HD
ENDBRANCH  28  29
ENDBRANCH  26  28
ENDBRANCH   9  26
BRANCH  13  31
ATOM     31  O   UNL     1      -7.622   7.042 130.300  0.00  0.00    +0.000 OA
ATOM     32  H   UNL     1      -7.086   6.823 129.521  0.00  0.00    +0.000 HD
ENDBRANCH  13  31
TORSDOF 4
ENDMDL
MODEL 7
REMARK VINA RESULT:      -8.0      3.673      7.788
REMARK  Name = Desonide
REMARK  8 active torsions:
REMARK  status: ('A' for Active; 'I' for Inactive)
REMARK    1  A    between atoms: C_6  and  C_7
REMARK    2  A    between atoms: C_6  and  C_8
REMARK    3  A    between atoms: C_10  and  C_11
REMARK    4  A    between atoms: C_11  and  C_13
REMARK    5  A    between atoms: C_13  and  O_14
REMARK    6  A    between atoms: C_15  and  C_16
REMARK    7  A    between atoms: C_18  and  O_19
REMARK    8  A    between atoms: C_32  and  C_33
REMARK                            x       y       z     vdW  Elec       q    Type
REMARK                         _______ _______ _______ _____ _____    ______ ____
ROOT
ATOM      1  C   UNL     1      -8.038   5.665 133.025  0.00  0.00    +0.000 C 
ATOM      2  C   UNL     1      -7.131   5.249 134.147  0.00  0.00    +0.000 C 
ATOM      3  C   UNL     1      -5.812   4.679 133.564  0.00  0.00    +0.000 C 
ATOM      4  O   UNL     1      -4.689   5.563 132.800  0.00  0.00    +0.000 OA
ATOM      5  C   UNL     1      -4.365   4.919 131.381  0.00  0.00    +0.000 C 
ATOM      6  C   UNL     1      -4.447   5.566 129.616  0.00  0.00    +0.000 C 
ATOM      7  C   UNL     1      -2.901   4.933 131.215  0.00  0.00    +0.000 C 
ATOM      8  O   UNL     1      -4.999   3.739 131.704  0.00  0.00    +0.000 OA
ATOM      9  C   UNL     1      -6.466   4.190 132.366  0.00  0.00    +0.000 C 
ATOM     10  C   UNL     1      -7.179   6.037 131.952  0.00  0.00    +0.000 C 
ATOM     11  C   UNL     1      -8.445   6.867 130.879  0.00  0.00    +0.000 C 
ATOM     12  C   UNL     1      -6.452   6.110 130.739  0.00  0.00    +0.000 C 
ATOM     13  C   UNL     1      -6.691   4.863 129.827  0.00  0.00    +0.000 C 
ATOM     14  C   UNL     1      -7.058   3.763 130.602  0.00  0.00    +0.000 C 
ATOM     15  C   UNL     1      -8.368   4.552 132.205  0.00  0.00    +0.000 C 
ATOM     16  C   UNL     1      -9.343   3.043 133.337  0.00  0.00    +0.000 C 
ATOM     17  C   UNL     1      -9.787   1.354 132.218  0.00  0.00    +0.000 C 
ATOM     18  C   UNL     1      -8.485   0.847 130.957  0.00  0.00    +0.000 C 
ATOM     19  C   UNL     1      -7.978  -0.389 130.961  0.00  0.00    +0.000 C 
ATOM     20  C   UNL     1      -6.859  -0.605 129.977  0.00  0.00    +0.000 C 
ATOM     21  O   UNL     1      -6.820  -1.074 128.849  0.00  0.00    +0.000 OA
ATOM     22  C   UNL     1      -5.577  -0.093 130.431  0.00  0.00    +0.000 C 
ATOM     23  C   UNL     1      -5.977   1.142 129.971  0.00  0.00    +0.000 C 
ATOM     24  C   UNL     1      -7.490   1.960 129.899  0.00  0.00    +0.000 C 
ATOM     25  C   UNL     1      -8.442   2.292 128.642  0.00  0.00    +0.000 C 
ENDROOT
BRANCH   9  26
ATOM     26  C   UNL     1      -8.035   2.873 131.833  0.00  0.00    +0.000 C 
ATOM     27  O   UNL     1      -8.800   3.411 130.536  0.00  0.00    +0.000 OA
BRANCH  26  28
ATOM     28  C   UNL     1      -9.888   3.449 131.608  0.00  0.00    +0.000 C 
BRANCH  28  29
ATOM     29  O   UNL     1     -10.833   3.849 130.728  0.00  0.00    +0.000 OA
ATOM     30  H   UNL     1     -11.157   2.950 130.527  0.00  0.00    +0.000 HD
ENDBRANCH  28  29
ENDBRANCH  26  28
ENDBRANCH   9  26
BRANCH  13  31
ATOM     31  O   UNL     1      -7.553   5.204 128.802  0.00  0.00    +0.000 OA
ATOM     32  H   UNL     1      -8.090   4.403 128.705  0.00  0.00    +0.000 HD
ENDBRANCH  13  31
TORSDOF 4
ENDMDL
MODEL 8
REMARK VINA RESULT:      -8.0      5.440      7.801
REMARK  Name = Desonide
REMARK  8 active torsions:
REMARK  status: ('A' for Active; 'I' for Inactive)
REMARK    1  A    between atoms: C_6  and  C_7
REMARK    2  A    between atoms: C_6  and  C_8
REMARK    3  A    between atoms: C_10  and  C_11
REMARK    4  A    between atoms: C_11  and  C_13
REMARK    5  A    between atoms: C_13  and  O_14
REMARK    6  A    between atoms: C_15  and  C_16
REMARK    7  A    between atoms: C_18  and  O_19
REMARK    8  A    between atoms: C_32  and  C_33
REMARK                            x       y       z     vdW  Elec       q    Type
REMARK                         _______ _______ _______ _____ _____    ______ ____
ROOT
ATOM      1  C   UNL     1      -6.341   2.343 131.101  0.00  0.00    +0.000 C 
ATOM      2  C   UNL     1      -5.966   2.352 129.647  0.00  0.00    +0.000 C 
ATOM      3  C   UNL     1      -5.752   3.814 129.176  0.00  0.00    +0.000 C 
ATOM      4  O   UNL     1      -4.520   4.757 129.642  0.00  0.00    +0.000 OA
ATOM      5  C   UNL     1      -5.076   6.134 130.215  0.00  0.00    +0.000 C 
ATOM      6  C   UNL     1      -4.893   7.016 131.866  0.00  0.00    +0.000 C 
ATOM      7  C   UNL     1      -4.244   7.213 129.656  0.00  0.00    +0.000 C 
ATOM      8  O   UNL     1      -6.333   5.910 129.698  0.00  0.00    +0.000 OA
ATOM      9  C   UNL     1      -6.716   4.339 130.123  0.00  0.00    +0.000 C 
ATOM     10  C   UNL     1      -5.721   3.492 131.667  0.00  0.00    +0.000 C 
ATOM     11  C   UNL     1      -5.965   3.067 133.456  0.00  0.00    +0.000 C 
ATOM     12  C   UNL     1      -5.438   4.751 132.252  0.00  0.00    +0.000 C 
ATOM     13  C   UNL     1      -6.720   5.628 132.422  0.00  0.00    +0.000 C 
ATOM     14  C   UNL     1      -7.686   5.256 131.487  0.00  0.00    +0.000 C 
ATOM     15  C   UNL     1      -7.555   3.052 131.313  0.00  0.00    +0.000 C 
ATOM     16  C   UNL     1      -9.141   2.183 130.201  0.00  0.00    +0.000 C 
ATOM     17  C   UNL     1     -10.929   3.214 130.403  0.00  0.00    +0.000 C 
ATOM     18  C   UNL     1     -10.784   5.090 130.468  0.00  0.00    +0.000 C 
ATOM     19  C   UNL     1     -11.477   5.857 129.622  0.00  0.00    +0.000 C 
ATOM     20  C   UNL     1     -11.161   7.325 129.712  0.00  0.00    +0.000 C 
ATOM     21  O   UNL     1     -11.696   8.259 130.293  0.00  0.00    +0.000 OA
ATOM     22  C   UNL     1      -9.936   7.701 129.027  0.00  0.00    +0.000 C 
ATOM     23  C   UNL     1      -9.255   7.307 130.158  0.00  0.00    +0.000 C 
ATOM     24  C   UNL     1      -9.491   6.062 131.323  0.00  0.00    +0.000 C 
ATOM     25  C   UNL     1      -9.980   6.141 132.856  0.00  0.00    +0.000 C 
ENDROOT
BRANCH   9  26
ATOM     26  C   UNL     1      -8.763   4.104 130.607  0.00  0.00    +0.000 C 
ATOM     27  O   UNL     1      -8.993   4.310 132.176  0.00  0.00    +0.000 OA
BRANCH  26  28
ATOM     28  C   UNL     1      -9.408   2.854 131.962  0.00  0.00    +0.000 C 
BRANCH  28  29
ATOM     29  O   UNL     1      -9.834   2.714 133.237  0.00  0.00    +0.000 OA
ATOM     30  H   UNL     1      -8.947   2.791 133.638  0.00  0.00    +0.000 HD
ENDBRANCH  28  29
ENDBRANCH  26  28
ENDBRANCH   9  26
BRANCH  13  31
ATOM     31  O   UNL     1      -7.113   5.611 133.747  0.00  0.00    +0.000 OA
ATOM     32  H   UNL     1      -6.505   4.965 134.138  0.00  0.00    +0.000 HD
ENDBRANCH  13  31
TORSDOF 4
ENDMDL
MODEL 9
REMARK VINA RESULT:      -7.9      5.628      7.991
REMARK  Name = Desonide
REMARK  8 active torsions:
REMARK  status: ('A' for Active; 'I' for Inactive)
REMARK    1  A    between atoms: C_6  and  C_7
REMARK    2  A    between atoms: C_6  and  C_8
REMARK    3  A    between atoms: C_10  and  C_11
REMARK    4  A    between atoms: C_11  and  C_13
REMARK    5  A    between atoms: C_13  and  O_14
REMARK    6  A    between atoms: C_15  and  C_16
REMARK    7  A    between atoms: C_18  and  O_19
REMARK    8  A    between atoms: C_32  and  C_33
REMARK                            x       y       z     vdW  Elec       q    Type
REMARK                         _______ _______ _______ _____ _____    ______ ____
ROOT
ATOM      1  C   UNL     1      -7.722   3.226 133.812  0.00  0.00    +0.000 C 
ATOM      2  C   UNL     1      -7.971   4.503 134.562  0.00  0.00    +0.000 C 
ATOM      3  C   UNL     1      -8.033   5.687 133.564  0.00  0.00    +0.000 C 
ATOM      4  O   UNL     1      -9.225   5.923 132.492  0.00  0.00    +0.000 OA
ATOM      5  C   UNL     1      -8.616   6.094 131.031  0.00  0.00    +0.000 C 
ATOM      6  C   UNL     1      -8.871   5.178 129.408  0.00  0.00    +0.000 C 
ATOM      7  C   UNL     1      -9.314   7.223 130.392  0.00  0.00    +0.000 C 
ATOM      8  O   UNL     1      -7.340   6.274 131.519  0.00  0.00    +0.000 OA
ATOM      9  C   UNL     1      -7.115   5.053 132.638  0.00  0.00    +0.000 C 
ATOM     10  C   UNL     1      -8.299   3.416 132.524  0.00  0.00    +0.000 C 
ATOM     11  C   UNL     1      -8.240   1.654 131.948  0.00  0.00    +0.000 C 
ATOM     12  C   UNL     1      -8.534   3.610 131.141  0.00  0.00    +0.000 C 
ATOM     13  C   UNL     1      -7.208   3.780 130.332  0.00  0.00    +0.000 C 
ATOM     14  C   UNL     1      -6.197   4.269 131.159  0.00  0.00    +0.000 C 
ATOM     15  C   UNL     1      -6.480   3.281 133.121  0.00  0.00    +0.000 C 
ATOM     16  C   UNL     1      -4.876   3.591 134.477  0.00  0.00    +0.000 C 
ATOM     17  C   UNL     1      -3.039   3.758 133.530  0.00  0.00    +0.000 C 
ATOM     18  C   UNL     1      -3.046   4.697 131.900  0.00  0.00    +0.000 C 
ATOM     19  C   UNL     1      -2.227   5.736 131.708  0.00  0.00    +0.000 C 
ATOM     20  C   UNL     1      -2.438   6.461 130.406  0.00  0.00    +0.000 C 
ATOM     21  O   UNL     1      -1.884   6.397 129.317  0.00  0.00    +0.000 OA
ATOM     22  C   UNL     1      -3.568   7.373 130.422  0.00  0.00    +0.000 C 
ATOM     23  C   UNL     1      -4.370   6.288 130.148  0.00  0.00    +0.000 C 
ATOM     24  C   UNL     1      -4.329   4.626 130.597  0.00  0.00    +0.000 C 
ATOM     25  C   UNL     1      -3.967   3.316 129.733  0.00  0.00    +0.000 C 
ENDROOT
BRANCH   9  26
ATOM     26  C   UNL     1      -5.140   4.292 132.623  0.00  0.00    +0.000 C 
ATOM     27  O   UNL     1      -5.032   3.036 131.640  0.00  0.00    +0.000 OA
BRANCH  26  28
ATOM     28  C   UNL     1      -4.707   2.426 133.003  0.00  0.00    +0.000 C 
BRANCH  28  29
ATOM     29  O   UNL     1      -4.519   1.195 132.476  0.00  0.00    +0.000 OA
ATOM     30  H   UNL     1      -5.425   1.109 132.121  0.00  0.00    +0.000 HD
ENDBRANCH  28  29
ENDBRANCH  26  28
ENDBRANCH   9  26
BRANCH  13  31
ATOM     31  O   UNL     1      -6.930   2.606 129.655  0.00  0.00    +0.000 OA
ATOM     32  H   UNL     1      -6.926   2.895 128.730  0.00  0.00    +0.000 HD
ENDBRANCH  13  31
TORSDOF 4
ENDMDL
