MODEL 1
REMARK VINA RESULT:      -7.6      0.000      0.000
REMARK  Name = Desogestrel
REMARK  4 active torsions:
REMARK  status: ('A' for Active; 'I' for Inactive)
REMARK    1  A    between atoms: C_5  and  O_6
REMARK    2  A    between atoms: C_5  and  C_7
REMARK    3  A    between atoms: C_9  and  C_10
REMARK    4  A    between atoms: C_10  and  C_11
REMARK                            x       y       z     vdW  Elec       q    Type
REMARK                         _______ _______ _______ _____ _____    ______ ____
ROOT
ATOM      1  C   UNL     1      -7.959  -1.869 123.658  0.00  0.00    +0.000 C 
ATOM      2  C   UNL     1      -7.401  -1.764 122.364  0.00  0.00    +0.000 C 
ATOM      3  C   UNL     1      -6.517  -1.383 123.495  0.00  0.00    +0.000 C 
ATOM      4  C   UNL     1      -7.204  -1.890 125.399  0.00  0.00    +0.000 C 
ATOM      5  C   UNL     1      -6.391  -2.547 124.529  0.00  0.00    +0.000 C 
ATOM      6  C   UNL     1      -5.062  -1.378 125.126  0.00  0.00    +0.000 C 
ATOM      7  C   UNL     1      -5.828  -0.035 125.611  0.00  0.00    +0.000 C 
ATOM      8  C   UNL     1      -5.653   0.367 126.884  0.00  0.00    +0.000 C 
ATOM      9  C   UNL     1      -7.030   0.604 124.709  0.00  0.00    +0.000 C 
ATOM     10  C   UNL     1      -7.457   1.929 125.181  0.00  0.00    +0.000 C 
ATOM     11  C   UNL     1      -6.237   2.580 125.452  0.00  0.00    +0.000 C 
ATOM     12  C   UNL     1      -4.929   2.859 125.883  0.00  0.00    +0.000 C 
ATOM     13  C   UNL     1      -5.099   4.026 124.743  0.00  0.00    +0.000 C 
ATOM     14  C   UNL     1      -6.765   3.925 123.762  0.00  0.00    +0.000 C 
ATOM     15  C   UNL     1      -7.780   2.859 123.981  0.00  0.00    +0.000 C 
ATOM     16  C   UNL     1      -9.190   2.122 123.524  0.00  0.00    +0.000 C 
ATOM     17  C   UNL     1      -9.115   0.569 123.231  0.00  0.00    +0.000 C 
ATOM     18  C   UNL     1      -8.328  -0.208 124.280  0.00  0.00    +0.000 C 
ENDROOT
BRANCH   4  19
ATOM     19  O   UNL     1      -6.531  -2.425 126.609  0.00  0.00    +0.000 OA
ATOM     20  H   UNL     1      -6.033  -1.818 127.171  0.00  0.00    +0.000 HD
ENDBRANCH   4  19
BRANCH   4  21
ATOM     21  C   UNL     1      -8.516  -2.758 125.714  0.00  0.00    +0.000 C 
ATOM     22  C   UNL     1      -9.504  -3.313 126.055  0.00  0.00    +0.000 C 
ENDBRANCH   4  21
BRANCH   5  23
ATOM     23  C   UNL     1      -6.101  -3.985 124.491  0.00  0.00    +0.000 C 
ATOM     24  C   UNL     1      -4.833  -4.004 123.686  0.00  0.00    +0.000 C 
ENDBRANCH   5  23
TORSDOF 3
ENDMDL
MODEL 2
REMARK VINA RESULT:      -7.6      2.563      4.745
REMARK  Name = Desogestrel
REMARK  4 active torsions:
REMARK  status: ('A' for Active; 'I' for Inactive)
REMARK    1  A    between atoms: C_5  and  O_6
REMARK    2  A    between atoms: C_5  and  C_7
REMARK    3  A    between atoms: C_9  and  C_10
REMARK    4  A    between atoms: C_10  and  C_11
REMARK                            x       y       z     vdW  Elec       q    Type
REMARK                         _______ _______ _______ _____ _____    ______ ____
ROOT
ATOM      1  C   UNL     1      -8.151  -2.948 125.684  0.00  0.00    +0.000 C 
ATOM      2  C   UNL     1      -9.560  -2.976 125.786  0.00  0.00    +0.000 C 
ATOM      3  C   UNL     1      -8.925  -1.634 125.815  0.00  0.00    +0.000 C 
ATOM      4  C   UNL     1      -6.905  -1.570 125.293  0.00  0.00    +0.000 C 
ATOM      5  C   UNL     1      -8.033  -1.405 124.552  0.00  0.00    +0.000 C 
ATOM      6  C   UNL     1      -8.080   0.312 125.287  0.00  0.00    +0.000 C 
ATOM      7  C   UNL     1      -7.327   0.210 126.719  0.00  0.00    +0.000 C 
ATOM      8  C   UNL     1      -6.258   1.002 126.927  0.00  0.00    +0.000 C 
ATOM      9  C   UNL     1      -7.629  -1.038 127.726  0.00  0.00    +0.000 C 
ATOM     10  C   UNL     1      -7.034  -0.857 129.057  0.00  0.00    +0.000 C 
ATOM     11  C   UNL     1      -7.322   0.490 129.355  0.00  0.00    +0.000 C 
ATOM     12  C   UNL     1      -7.500   1.880 129.256  0.00  0.00    +0.000 C 
ATOM     13  C   UNL     1      -8.468   1.569 130.543  0.00  0.00    +0.000 C 
ATOM     14  C   UNL     1      -8.634  -0.314 130.961  0.00  0.00    +0.000 C 
ATOM     15  C   UNL     1      -7.988  -1.390 130.160  0.00  0.00    +0.000 C 
ATOM     16  C   UNL     1      -7.784  -3.002 129.846  0.00  0.00    +0.000 C 
ATOM     17  C   UNL     1      -8.063  -3.476 128.363  0.00  0.00    +0.000 C 
ATOM     18  C   UNL     1      -7.449  -2.562 127.309  0.00  0.00    +0.000 C 
ENDROOT
BRANCH   4  19
ATOM     19  O   UNL     1      -6.097  -0.624 124.483  0.00  0.00    +0.000 OA
ATOM     20  H   UNL     1      -6.082  -0.729 123.523  0.00  0.00    +0.000 HD
ENDBRANCH   4  19
BRANCH   4  21
ATOM     21  C   UNL     1      -6.046  -2.811 124.747  0.00  0.00    +0.000 C 
ATOM     22  C   UNL     1      -5.341  -3.632 124.270  0.00  0.00    +0.000 C 
ENDBRANCH   4  21
BRANCH   5  23
ATOM     23  C   UNL     1      -8.178  -1.554 123.099  0.00  0.00    +0.000 C 
ATOM     24  C   UNL     1      -9.519  -0.918 122.874  0.00  0.00    +0.000 C 
ENDBRANCH   5  23
TORSDOF 3
ENDMDL
MODEL 3
REMARK VINA RESULT:      -7.5      3.531      5.910
REMARK  Name = Desogestrel
REMARK  4 active torsions:
REMARK  status: ('A' for Active; 'I' for Inactive)
REMARK    1  A    between atoms: C_5  and  O_6
REMARK    2  A    between atoms: C_5  and  C_7
REMARK    3  A    between atoms: C_9  and  C_10
REMARK    4  A    between atoms: C_10  and  C_11
REMARK                            x       y       z     vdW  Elec       q    Type
REMARK                         _______ _______ _______ _____ _____    ______ ____
ROOT
ATOM      1  C   UNL     1      -7.112  -2.925 130.410  0.00  0.00    +0.000 C 
ATOM      2  C   UNL     1      -6.523  -4.208 130.352  0.00  0.00    +0.000 C 
ATOM      3  C   UNL     1      -5.821  -3.128 129.614  0.00  0.00    +0.000 C 
ATOM      4  C   UNL     1      -6.473  -1.184 130.004  0.00  0.00    +0.000 C 
ATOM      5  C   UNL     1      -5.479  -1.930 130.557  0.00  0.00    +0.000 C 
ATOM      6  C   UNL     1      -4.503  -1.485 129.027  0.00  0.00    +0.000 C 
ATOM      7  C   UNL     1      -5.594  -1.222 127.857  0.00  0.00    +0.000 C 
ATOM      8  C   UNL     1      -5.592  -0.019 127.252  0.00  0.00    +0.000 C 
ATOM      9  C   UNL     1      -6.861  -2.233 127.664  0.00  0.00    +0.000 C 
ATOM     10  C   UNL     1      -7.618  -1.972 126.431  0.00  0.00    +0.000 C 
ATOM     11  C   UNL     1      -6.606  -1.775 125.471  0.00  0.00    +0.000 C 
ATOM     12  C   UNL     1      -5.430  -1.364 124.823  0.00  0.00    +0.000 C 
ATOM     13  C   UNL     1      -5.809  -2.668 123.903  0.00  0.00    +0.000 C 
ATOM     14  C   UNL     1      -7.344  -3.657 124.543  0.00  0.00    +0.000 C 
ATOM     15  C   UNL     1      -8.086  -3.304 125.785  0.00  0.00    +0.000 C 
ATOM     16  C   UNL     1      -9.251  -3.675 126.900  0.00  0.00    +0.000 C 
ATOM     17  C   UNL     1      -8.791  -3.732 128.413  0.00  0.00    +0.000 C 
ATOM     18  C   UNL     1      -7.901  -2.564 128.820  0.00  0.00    +0.000 C 
ENDROOT
BRANCH   4  19
ATOM     19  O   UNL     1      -5.761   0.105 130.185  0.00  0.00    +0.000 OA
ATOM     20  H   UNL     1      -6.254   0.866 130.516  0.00  0.00    +0.000 HD
ENDBRANCH   4  19
BRANCH   4  21
ATOM     21  C   UNL     1      -7.556  -0.771 131.114  0.00  0.00    +0.000 C 
ATOM     22  C   UNL     1      -8.354  -0.341 131.873  0.00  0.00    +0.000 C 
ENDBRANCH   4  21
BRANCH   5  23
ATOM     23  C   UNL     1      -4.852  -1.749 131.871  0.00  0.00    +0.000 C 
ATOM     24  C   UNL     1      -3.789  -2.809 131.835  0.00  0.00    +0.000 C 
ENDBRANCH   5  23
TORSDOF 3
ENDMDL
MODEL 4
REMARK VINA RESULT:      -7.3      1.578      1.919
REMARK  Name = Desogestrel
REMARK  4 active torsions:
REMARK  status: ('A' for Active; 'I' for Inactive)
REMARK    1  A    between atoms: C_5  and  O_6
REMARK    2  A    between atoms: C_5  and  C_7
REMARK    3  A    between atoms: C_9  and  C_10
REMARK    4  A    between atoms: C_10  and  C_11
REMARK                            x       y       z     vdW  Elec       q    Type
REMARK                         _______ _______ _______ _____ _____    ______ ____
ROOT
ATOM      1  C   UNL     1      -7.565  -1.509 123.307  0.00  0.00    +0.000 C 
ATOM      2  C   UNL     1      -6.419  -0.912 122.735  0.00  0.00    +0.000 C 
ATOM      3  C   UNL     1      -6.377  -1.147 124.201  0.00  0.00    +0.000 C 
ATOM      4  C   UNL     1      -7.893  -2.356 124.974  0.00  0.00    +0.000 C 
ATOM      5  C   UNL     1      -6.638  -2.650 124.538  0.00  0.00    +0.000 C 
ATOM      6  C   UNL     1      -6.075  -1.993 126.194  0.00  0.00    +0.000 C 
ATOM      7  C   UNL     1      -7.197  -0.922 126.660  0.00  0.00    +0.000 C 
ATOM      8  C   UNL     1      -7.818  -1.129 127.837  0.00  0.00    +0.000 C 
ATOM      9  C   UNL     1      -7.801   0.160 125.597  0.00  0.00    +0.000 C 
ATOM     10  C   UNL     1      -8.636   1.187 126.236  0.00  0.00    +0.000 C 
ATOM     11  C   UNL     1      -7.894   1.531 127.384  0.00  0.00    +0.000 C 
ATOM     12  C   UNL     1      -7.105   1.465 128.544  0.00  0.00    +0.000 C 
ATOM     13  C   UNL     1      -6.823   3.021 128.107  0.00  0.00    +0.000 C 
ATOM     14  C   UNL     1      -7.636   3.520 126.423  0.00  0.00    +0.000 C 
ATOM     15  C   UNL     1      -8.405   2.571 125.572  0.00  0.00    +0.000 C 
ATOM     16  C   UNL     1      -9.186   2.249 124.149  0.00  0.00    +0.000 C 
ATOM     17  C   UNL     1      -8.699   0.976 123.346  0.00  0.00    +0.000 C 
ATOM     18  C   UNL     1      -8.492  -0.252 124.225  0.00  0.00    +0.000 C 
ENDROOT
BRANCH   4  19
ATOM     19  O   UNL     1      -7.910  -3.425 126.003  0.00  0.00    +0.000 OA
ATOM     20  H   UNL     1      -8.272  -4.289 125.770  0.00  0.00    +0.000 HD
ENDBRANCH   4  19
BRANCH   4  21
ATOM     21  C   UNL     1      -8.992  -3.138 124.106  0.00  0.00    +0.000 C 
ATOM     22  C   UNL     1      -9.838  -3.591 123.414  0.00  0.00    +0.000 C 
ENDBRANCH   4  21
BRANCH   5  23
ATOM     23  C   UNL     1      -6.133  -3.951 124.087  0.00  0.00    +0.000 C 
ATOM     24  C   UNL     1      -4.705  -3.614 123.768  0.00  0.00    +0.000 C 
ENDBRANCH   5  23
TORSDOF 3
ENDMDL
MODEL 5
REMARK VINA RESULT:      -7.3      1.559      3.574
REMARK  Name = Desogestrel
REMARK  4 active torsions:
REMARK  status: ('A' for Active; 'I' for Inactive)
REMARK    1  A    between atoms: C_5  and  O_6
REMARK    2  A    between atoms: C_5  and  C_7
REMARK    3  A    between atoms: C_9  and  C_10
REMARK    4  A    between atoms: C_10  and  C_11
REMARK                            x       y       z     vdW  Elec       q    Type
REMARK                         _______ _______ _______ _____ _____    ______ ____
ROOT
ATOM      1  C   UNL     1      -6.652  -2.146 125.687  0.00  0.00    +0.000 C 
ATOM      2  C   UNL     1      -7.727  -2.257 126.598  0.00  0.00    +0.000 C 
ATOM      3  C   UNL     1      -7.921  -1.320 125.462  0.00  0.00    +0.000 C 
ATOM      4  C   UNL     1      -6.506  -1.438 123.932  0.00  0.00    +0.000 C 
ATOM      5  C   UNL     1      -7.712  -2.045 124.093  0.00  0.00    +0.000 C 
ATOM      6  C   UNL     1      -8.434  -0.412 123.540  0.00  0.00    +0.000 C 
ATOM      7  C   UNL     1      -7.352   0.722 123.953  0.00  0.00    +0.000 C 
ATOM      8  C   UNL     1      -6.857   1.506 122.977  0.00  0.00    +0.000 C 
ATOM      9  C   UNL     1      -6.631   0.684 125.417  0.00  0.00    +0.000 C 
ATOM     10  C   UNL     1      -5.854   1.899 125.703  0.00  0.00    +0.000 C 
ATOM     11  C   UNL     1      -6.704   2.933 125.263  0.00  0.00    +0.000 C 
ATOM     12  C   UNL     1      -7.608   3.701 124.512  0.00  0.00    +0.000 C 
ATOM     13  C   UNL     1      -7.826   4.384 125.987  0.00  0.00    +0.000 C 
ATOM     14  C   UNL     1      -6.840   3.513 127.406  0.00  0.00    +0.000 C 
ATOM     15  C   UNL     1      -6.000   2.302 127.195  0.00  0.00    +0.000 C 
ATOM     16  C   UNL     1      -5.082   1.080 127.830  0.00  0.00    +0.000 C 
ATOM     17  C   UNL     1      -5.499  -0.396 127.439  0.00  0.00    +0.000 C 
ATOM     18  C   UNL     1      -5.809  -0.565 125.957  0.00  0.00    +0.000 C 
ENDROOT
BRANCH   4  19
ATOM     19  O   UNL     1      -6.606  -1.376 122.453  0.00  0.00    +0.000 OA
ATOM     20  H   UNL     1      -7.332  -1.839 122.016  0.00  0.00    +0.000 HD
ENDBRANCH   4  19
BRANCH   4  21
ATOM     21  C   UNL     1      -5.333  -2.528 123.832  0.00  0.00    +0.000 C 
ATOM     22  C   UNL     1      -4.478  -3.318 123.620  0.00  0.00    +0.000 C 
ENDBRANCH   4  21
BRANCH   5  23
ATOM     23  C   UNL     1      -8.185  -3.277 123.452  0.00  0.00    +0.000 C 
ATOM     24  C   UNL     1      -9.627  -3.289 123.871  0.00  0.00    +0.000 C 
ENDBRANCH   5  23
TORSDOF 3
ENDMDL
MODEL 6
REMARK VINA RESULT:      -7.1      2.932      5.930
REMARK  Name = Desogestrel
REMARK  4 active torsions:
REMARK  status: ('A' for Active; 'I' for Inactive)
REMARK    1  A    between atoms: C_5  and  O_6
REMARK    2  A    between atoms: C_5  and  C_7
REMARK    3  A    between atoms: C_9  and  C_10
REMARK    4  A    between atoms: C_10  and  C_11
REMARK                            x       y       z     vdW  Elec       q    Type
REMARK                         _______ _______ _______ _____ _____    ______ ____
ROOT
ATOM      1  C   UNL     1      -6.879  -1.373 129.958  0.00  0.00    +0.000 C 
ATOM      2  C   UNL     1      -5.646  -2.026 129.731  0.00  0.00    +0.000 C 
ATOM      3  C   UNL     1      -6.051  -1.016 128.722  0.00  0.00    +0.000 C 
ATOM      4  C   UNL     1      -7.664   0.202 129.246  0.00  0.00    +0.000 C 
ATOM      5  C   UNL     1      -6.322   0.371 129.389  0.00  0.00    +0.000 C 
ATOM      6  C   UNL     1      -6.341   0.824 127.577  0.00  0.00    +0.000 C 
ATOM      7  C   UNL     1      -7.610   0.050 126.932  0.00  0.00    +0.000 C 
ATOM      8  C   UNL     1      -8.555   0.789 126.319  0.00  0.00    +0.000 C 
ATOM      9  C   UNL     1      -7.909  -1.509 127.312  0.00  0.00    +0.000 C 
ATOM     10  C   UNL     1      -8.958  -2.111 126.475  0.00  0.00    +0.000 C 
ATOM     11  C   UNL     1      -8.632  -1.658 125.181  0.00  0.00    +0.000 C 
ATOM     12  C   UNL     1      -8.243  -0.855 124.097  0.00  0.00    +0.000 C 
ATOM     13  C   UNL     1      -7.923  -2.337 123.471  0.00  0.00    +0.000 C 
ATOM     14  C   UNL     1      -8.196  -3.789 124.720  0.00  0.00    +0.000 C 
ATOM     15  C   UNL     1      -8.608  -3.584 126.136  0.00  0.00    +0.000 C 
ATOM     16  C   UNL     1      -8.886  -4.214 127.642  0.00  0.00    +0.000 C 
ATOM     17  C   UNL     1      -8.103  -3.546 128.844  0.00  0.00    +0.000 C 
ATOM     18  C   UNL     1      -8.114  -2.023 128.803  0.00  0.00    +0.000 C 
ENDROOT
BRANCH   4  19
ATOM     19  O   UNL     1      -7.943   1.648 129.063  0.00  0.00    +0.000 OA
ATOM     20  H   UNL     1      -8.856   1.956 129.118  0.00  0.00    +0.000 HD
ENDBRANCH   4  19
BRANCH   4  21
ATOM     21  C   UNL     1      -8.393   0.216 130.675  0.00  0.00    +0.000 C 
ATOM     22  C   UNL     1      -8.910   0.363 131.729  0.00  0.00    +0.000 C 
ENDBRANCH   4  21
BRANCH   5  23
ATOM     23  C   UNL     1      -5.630   1.258 130.331  0.00  0.00    +0.000 C 
ATOM     24  C   UNL     1      -4.215   1.156 129.840  0.00  0.00    +0.000 C 
ENDBRANCH   5  23
TORSDOF 3
ENDMDL
MODEL 7
REMARK VINA RESULT:      -6.9      2.640      5.126
REMARK  Name = Desogestrel
REMARK  4 active torsions:
REMARK  status: ('A' for Active; 'I' for Inactive)
REMARK    1  A    between atoms: C_5  and  O_6
REMARK    2  A    between atoms: C_5  and  C_7
REMARK    3  A    between atoms: C_9  and  C_10
REMARK    4  A    between atoms: C_10  and  C_11
REMARK                            x       y       z     vdW  Elec       q    Type
REMARK                         _______ _______ _______ _____ _____    ______ ____
ROOT
ATOM      1  C   UNL     1      -7.154   0.537 125.523  0.00  0.00    +0.000 C 
ATOM      2  C   UNL     1      -5.744   0.557 125.420  0.00  0.00    +0.000 C 
ATOM      3  C   UNL     1      -6.367  -0.769 125.662  0.00  0.00    +0.000 C 
ATOM      4  C   UNL     1      -8.441  -0.856 125.441  0.00  0.00    +0.000 C 
ATOM      5  C   UNL     1      -7.429  -1.101 124.565  0.00  0.00    +0.000 C 
ATOM      6  C   UNL     1      -7.276  -2.745 125.439  0.00  0.00    +0.000 C 
ATOM      7  C   UNL     1      -7.817  -2.505 126.948  0.00  0.00    +0.000 C 
ATOM      8  C   UNL     1      -8.844  -3.262 127.378  0.00  0.00    +0.000 C 
ATOM      9  C   UNL     1      -7.375  -1.174 127.784  0.00  0.00    +0.000 C 
ATOM     10  C   UNL     1      -7.774  -1.227 129.198  0.00  0.00    +0.000 C 
ATOM     11  C   UNL     1      -7.445  -2.545 129.572  0.00  0.00    +0.000 C 
ATOM     12  C   UNL     1      -7.281  -3.940 129.576  0.00  0.00    +0.000 C 
ATOM     13  C   UNL     1      -6.139  -3.525 130.679  0.00  0.00    +0.000 C 
ATOM     14  C   UNL     1      -5.918  -1.614 130.895  0.00  0.00    +0.000 C 
ATOM     15  C   UNL     1      -6.674  -0.608 130.100  0.00  0.00    +0.000 C 
ATOM     16  C   UNL     1      -6.922   0.972 129.673  0.00  0.00    +0.000 C 
ATOM     17  C   UNL     1      -6.858   1.306 128.128  0.00  0.00    +0.000 C 
ATOM     18  C   UNL     1      -7.616   0.308 127.260  0.00  0.00    +0.000 C 
ENDROOT
BRANCH   4  19
ATOM     19  O   UNL     1      -9.354  -1.862 124.844  0.00  0.00    +0.000 OA
ATOM     20  H   UNL     1      -8.978  -2.574 124.311  0.00  0.00    +0.000 HD
ENDBRANCH   4  19
BRANCH   4  21
ATOM     21  C   UNL     1      -9.371   0.340 124.912  0.00  0.00    +0.000 C 
ATOM     22  C   UNL     1     -10.164   1.135 124.540  0.00  0.00    +0.000 C 
ENDBRANCH   4  21
BRANCH   5  23
ATOM     23  C   UNL     1      -7.494  -1.085 123.099  0.00  0.00    +0.000 C 
ATOM     24  C   UNL     1      -6.232  -1.818 122.744  0.00  0.00    +0.000 C 
ENDBRANCH   5  23
TORSDOF 3
ENDMDL
MODEL 8
REMARK VINA RESULT:      -6.8      2.181      5.838
REMARK  Name = Desogestrel
REMARK  4 active torsions:
REMARK  status: ('A' for Active; 'I' for Inactive)
REMARK    1  A    between atoms: C_5  and  O_6
REMARK    2  A    between atoms: C_5  and  C_7
REMARK    3  A    between atoms: C_9  and  C_10
REMARK    4  A    between atoms: C_10  and  C_11
REMARK                            x       y       z     vdW  Elec       q    Type
REMARK                         _______ _______ _______ _____ _____    ______ ____
ROOT
ATOM      1  C   UNL     1      -6.161   2.186 126.657  0.00  0.00    +0.000 C 
ATOM      2  C   UNL     1      -4.923   1.736 126.145  0.00  0.00    +0.000 C 
ATOM      3  C   UNL     1      -6.051   1.798 125.181  0.00  0.00    +0.000 C 
ATOM      4  C   UNL     1      -7.756   2.806 125.836  0.00  0.00    +0.000 C 
ATOM      5  C   UNL     1      -6.673   3.230 125.133  0.00  0.00    +0.000 C 
ATOM      6  C   UNL     1      -7.500   2.419 123.667  0.00  0.00    +0.000 C 
ATOM      7  C   UNL     1      -8.421   1.230 124.270  0.00  0.00    +0.000 C 
ATOM      8  C   UNL     1      -9.741   1.256 124.002  0.00  0.00    +0.000 C 
ATOM      9  C   UNL     1      -7.842   0.245 125.436  0.00  0.00    +0.000 C 
ATOM     10  C   UNL     1      -8.721  -0.902 125.705  0.00  0.00    +0.000 C 
ATOM     11  C   UNL     1      -9.089  -1.331 124.414  0.00  0.00    +0.000 C 
ATOM     12  C   UNL     1      -9.491  -1.352 123.069  0.00  0.00    +0.000 C 
ATOM     13  C   UNL     1      -8.772  -2.824 123.165  0.00  0.00    +0.000 C 
ATOM     14  C   UNL     1      -7.927  -3.171 124.871  0.00  0.00    +0.000 C 
ATOM     15  C   UNL     1      -7.884  -2.180 125.980  0.00  0.00    +0.000 C 
ATOM     16  C   UNL     1      -7.327  -1.742 127.476  0.00  0.00    +0.000 C 
ATOM     17  C   UNL     1      -6.574  -0.354 127.574  0.00  0.00    +0.000 C 
ATOM     18  C   UNL     1      -7.280   0.772 126.827  0.00  0.00    +0.000 C 
ENDROOT
BRANCH   4  19
ATOM     19  O   UNL     1      -8.697   3.743 125.173  0.00  0.00    +0.000 OA
ATOM     20  H   UNL     1      -9.594   3.441 124.978  0.00  0.00    +0.000 HD
ENDBRANCH   4  19
BRANCH   4  21
ATOM     21  C   UNL     1      -7.886   3.614 127.217  0.00  0.00    +0.000 C 
ATOM     22  C   UNL     1      -8.089   4.276 128.176  0.00  0.00    +0.000 C 
ENDBRANCH   4  21
BRANCH   5  23
ATOM     23  C   UNL     1      -6.181   4.606 124.993  0.00  0.00    +0.000 C 
ATOM     24  C   UNL     1      -5.309   4.481 123.777  0.00  0.00    +0.000 C 
ENDBRANCH   5  23
TORSDOF 3
ENDMDL
MODEL 9
REMARK VINA RESULT:      -6.7      1.949      5.440
REMARK  Name = Desogestrel
REMARK  4 active torsions:
REMARK  status: ('A' for Active; 'I' for Inactive)
REMARK    1  A    between atoms: C_5  and  O_6
REMARK    2  A    between atoms: C_5  and  C_7
REMARK    3  A    between atoms: C_9  and  C_10
REMARK    4  A    between atoms: C_10  and  C_11
REMARK                            x       y       z     vdW  Elec       q    Type
REMARK                         _______ _______ _______ _____ _____    ______ ____
ROOT
ATOM      1  C   UNL     1      -8.608   1.803 123.488  0.00  0.00    +0.000 C 
ATOM      2  C   UNL     1      -9.914   1.941 124.009  0.00  0.00    +0.000 C 
ATOM      3  C   UNL     1      -8.830   1.725 125.000  0.00  0.00    +0.000 C 
ATOM      4  C   UNL     1      -6.882   1.897 124.273  0.00  0.00    +0.000 C 
ATOM      5  C   UNL     1      -7.710   2.805 124.855  0.00  0.00    +0.000 C 
ATOM      6  C   UNL     1      -7.226   1.985 126.463  0.00  0.00    +0.000 C 
ATOM      7  C   UNL     1      -6.837   0.457 126.091  0.00  0.00    +0.000 C 
ATOM      8  C   UNL     1      -5.601   0.025 126.409  0.00  0.00    +0.000 C 
ATOM      9  C   UNL     1      -7.767  -0.408 125.065  0.00  0.00    +0.000 C 
ATOM     10  C   UNL     1      -7.394  -1.829 125.014  0.00  0.00    +0.000 C 
ATOM     11  C   UNL     1      -7.193  -2.155 126.370  0.00  0.00    +0.000 C 
ATOM     12  C   UNL     1      -6.806  -2.112 127.720  0.00  0.00    +0.000 C 
ATOM     13  C   UNL     1      -8.031  -3.199 127.819  0.00  0.00    +0.000 C 
ATOM     14  C   UNL     1      -8.975  -3.468 126.151  0.00  0.00    +0.000 C 
ATOM     15  C   UNL     1      -8.658  -2.723 124.902  0.00  0.00    +0.000 C 
ATOM     16  C   UNL     1      -9.034  -2.351 123.333  0.00  0.00    +0.000 C 
ATOM     17  C   UNL     1      -9.205  -0.815 122.991  0.00  0.00    +0.000 C 
ATOM     18  C   UNL     1      -8.112   0.063 123.586  0.00  0.00    +0.000 C 
ENDROOT
BRANCH   4  19
ATOM     19  O   UNL     1      -5.644   2.502 124.825  0.00  0.00    +0.000 OA
ATOM     20  H   UNL     1      -5.713   3.319 125.335  0.00  0.00    +0.000 HD
ENDBRANCH   4  19
BRANCH   4  21
ATOM     21  C   UNL     1      -6.480   2.366 122.791  0.00  0.00    +0.000 C 
ATOM     22  C   UNL     1      -6.192   2.841 121.747  0.00  0.00    +0.000 C 
ENDBRANCH   4  21
BRANCH   5  23
ATOM     23  C   UNL     1      -7.641   4.267 124.760  0.00  0.00    +0.000 C 
ATOM     24  C   UNL     1      -8.346   4.674 126.022  0.00  0.00    +0.000 C 
ENDBRANCH   5  23
TORSDOF 3
ENDMDL
