MODEL 1
REMARK VINA RESULT:      -8.4      0.000      0.000
REMARK  Name = Desoximetasone
REMARK  7 active torsions:
REMARK  status: ('A' for Active; 'I' for Inactive)
REMARK    1  A    between atoms: C_4  and  C_5
REMARK    2  A    between atoms: C_6  and  C_7
REMARK    3  A    between atoms: C_7  and  C_9
REMARK    4  A    between atoms: C_9  and  O_10
REMARK    5  A    between atoms: C_11  and  C_12
REMARK    6  A    between atoms: C_14  and  O_15
REMARK    7  A    between atoms: C_28  and  C_29
REMARK                            x       y       z     vdW  Elec       q    Type
REMARK                         _______ _______ _______ _____ _____    ______ ____
ROOT
ATOM      1  C   UNL     1      -7.614  -2.490 131.169  0.00  0.00    +0.000 C 
ATOM      2  C   UNL     1      -8.381  -1.260 131.051  0.00  0.00    +0.000 C 
ATOM      3  C   UNL     1      -7.001  -0.925 130.605  0.00  0.00    +0.000 C 
ATOM      4  C   UNL     1      -7.066   0.866 130.757  0.00  0.00    +0.000 C 
ATOM      5  C   UNL     1      -5.776  -2.520 130.999  0.00  0.00    +0.000 C 
ATOM      6  C   UNL     1      -6.157  -1.609 131.871  0.00  0.00    +0.000 C 
ATOM      7  C   UNL     1      -6.170  -1.408 133.320  0.00  0.00    +0.000 C 
ATOM      8  C   UNL     1      -4.915  -0.742 130.810  0.00  0.00    +0.000 C 
ATOM      9  C   UNL     1      -5.003  -1.414 129.098  0.00  0.00    +0.000 C 
ATOM     10  C   UNL     1      -6.467  -2.275 128.438  0.00  0.00    +0.000 C 
ATOM     11  F   UNL     1      -7.606  -1.447 128.675  0.00  0.00    +0.000 F 
ATOM     12  C   UNL     1      -7.329  -3.242 129.480  0.00  0.00    +0.000 C 
ATOM     13  C   UNL     1      -8.749  -3.420 128.888  0.00  0.00    +0.000 C 
ATOM     14  C   UNL     1      -8.645  -3.728 127.419  0.00  0.00    +0.000 C 
ATOM     15  C   UNL     1      -8.238  -2.440 126.756  0.00  0.00    +0.000 C 
ATOM     16  C   UNL     1      -8.886  -1.791 125.766  0.00  0.00    +0.000 C 
ATOM     17  C   UNL     1      -8.830  -2.810 124.776  0.00  0.00    +0.000 C 
ATOM     18  O   UNL     1      -9.858  -3.297 124.361  0.00  0.00    +0.000 OA
ATOM     19  C   UNL     1      -7.334  -2.876 124.397  0.00  0.00    +0.000 C 
ATOM     20  C   UNL     1      -6.367  -2.511 125.365  0.00  0.00    +0.000 C 
ATOM     21  C   UNL     1      -6.811  -1.953 126.869  0.00  0.00    +0.000 C 
ATOM     22  C   UNL     1      -7.190  -0.279 126.981  0.00  0.00    +0.000 C 
ENDROOT
BRANCH   5  23
ATOM     23  C   UNL     1      -5.640  -4.259 131.541  0.00  0.00    +0.000 C 
ATOM     24  O   UNL     1      -5.325  -5.080 130.648  0.00  0.00    +0.000 OA
BRANCH  23  25
ATOM     25  C   UNL     1      -5.504  -4.866 133.039  0.00  0.00    +0.000 C 
BRANCH  25  26
ATOM     26  O   UNL     1      -6.671  -4.762 133.912  0.00  0.00    +0.000 OA
ATOM     27  H   UNL     1      -6.944  -5.635 134.250  0.00  0.00    +0.000 HD
ENDBRANCH  25  26
ENDBRANCH  23  25
ENDBRANCH   5  23
BRANCH   9  28
ATOM     28  O   UNL     1      -4.616  -0.314 128.286  0.00  0.00    +0.000 OA
ATOM     29  H   UNL     1      -4.309   0.363 128.918  0.00  0.00    +0.000 HD
ENDBRANCH   9  28
TORSDOF 4
ENDMDL
MODEL 2
REMARK VINA RESULT:      -8.2      3.105      6.949
REMARK  Name = Desoximetasone
REMARK  7 active torsions:
REMARK  status: ('A' for Active; 'I' for Inactive)
REMARK    1  A    between atoms: C_4  and  C_5
REMARK    2  A    between atoms: C_6  and  C_7
REMARK    3  A    between atoms: C_7  and  C_9
REMARK    4  A    between atoms: C_9  and  O_10
REMARK    5  A    between atoms: C_11  and  C_12
REMARK    6  A    between atoms: C_14  and  O_15
REMARK    7  A    between atoms: C_28  and  C_29
REMARK                            x       y       z     vdW  Elec       q    Type
REMARK                         _______ _______ _______ _____ _____    ______ ____
ROOT
ATOM      1  C   UNL     1      -8.584   1.777 125.632  0.00  0.00    +0.000 C 
ATOM      2  C   UNL     1      -9.683   0.868 125.341  0.00  0.00    +0.000 C 
ATOM      3  C   UNL     1      -8.497   0.317 124.630  0.00  0.00    +0.000 C 
ATOM      4  C   UNL     1      -9.331  -0.761 123.455  0.00  0.00    +0.000 C 
ATOM      5  C   UNL     1      -6.968   1.675 124.748  0.00  0.00    +0.000 C 
ATOM      6  C   UNL     1      -7.971   1.720 123.896  0.00  0.00    +0.000 C 
ATOM      7  C   UNL     1      -8.589   2.668 122.969  0.00  0.00    +0.000 C 
ATOM      8  C   UNL     1      -6.893   0.354 123.268  0.00  0.00    +0.000 C 
ATOM      9  C   UNL     1      -6.076  -0.479 124.692  0.00  0.00    +0.000 C 
ATOM     10  C   UNL     1      -6.718  -0.403 126.396  0.00  0.00    +0.000 C 
ATOM     11  F   UNL     1      -8.095  -0.780 126.362  0.00  0.00    +0.000 F 
ATOM     12  C   UNL     1      -7.429   1.016 126.891  0.00  0.00    +0.000 C 
ATOM     13  C   UNL     1      -8.335   0.688 128.103  0.00  0.00    +0.000 C 
ATOM     14  C   UNL     1      -7.591  -0.205 129.059  0.00  0.00    +0.000 C 
ATOM     15  C   UNL     1      -7.529  -1.555 128.399  0.00  0.00    +0.000 C 
ATOM     16  C   UNL     1      -7.976  -2.727 128.894  0.00  0.00    +0.000 C 
ATOM     17  C   UNL     1      -7.158  -2.789 130.056  0.00  0.00    +0.000 C 
ATOM     18  O   UNL     1      -7.675  -2.778 131.151  0.00  0.00    +0.000 OA
ATOM     19  C   UNL     1      -5.739  -3.024 129.496  0.00  0.00    +0.000 C 
ATOM     20  C   UNL     1      -5.425  -2.541 128.203  0.00  0.00    +0.000 C 
ATOM     21  C   UNL     1      -6.568  -1.790 127.254  0.00  0.00    +0.000 C 
ATOM     22  C   UNL     1      -7.603  -2.820 126.346  0.00  0.00    +0.000 C 
ENDROOT
BRANCH   5  23
ATOM     23  C   UNL     1      -6.347   3.236 125.464  0.00  0.00    +0.000 C 
ATOM     24  O   UNL     1      -5.106   3.298 125.631  0.00  0.00    +0.000 OA
BRANCH  23  25
ATOM     25  C   UNL     1      -7.077   4.679 125.585  0.00  0.00    +0.000 C 
BRANCH  25  26
ATOM     26  O   UNL     1      -6.432   5.813 124.927  0.00  0.00    +0.000 OA
ATOM     27  H   UNL     1      -6.840   6.659 125.190  0.00  0.00    +0.000 HD
ENDBRANCH  25  26
ENDBRANCH  23  25
ENDBRANCH   5  23
BRANCH   9  28
ATOM     28  O   UNL     1      -5.900  -1.815 124.243  0.00  0.00    +0.000 OA
ATOM     29  H   UNL     1      -4.942  -1.897 124.082  0.00  0.00    +0.000 HD
ENDBRANCH   9  28
TORSDOF 4
ENDMDL
MODEL 3
REMARK VINA RESULT:      -8.0      5.170      7.905
REMARK  Name = Desoximetasone
REMARK  7 active torsions:
REMARK  status: ('A' for Active; 'I' for Inactive)
REMARK    1  A    between atoms: C_4  and  C_5
REMARK    2  A    between atoms: C_6  and  C_7
REMARK    3  A    between atoms: C_7  and  C_9
REMARK    4  A    between atoms: C_9  and  O_10
REMARK    5  A    between atoms: C_11  and  C_12
REMARK    6  A    between atoms: C_14  and  O_15
REMARK    7  A    between atoms: C_28  and  C_29
REMARK                            x       y       z     vdW  Elec       q    Type
REMARK                         _______ _______ _______ _____ _____    ______ ____
ROOT
ATOM      1  C   UNL     1      -8.390   1.690 130.586  0.00  0.00    +0.000 C 
ATOM      2  C   UNL     1      -8.136   1.984 131.988  0.00  0.00    +0.000 C 
ATOM      3  C   UNL     1      -7.225   2.869 131.213  0.00  0.00    +0.000 C 
ATOM      4  C   UNL     1      -6.048   3.289 132.507  0.00  0.00    +0.000 C 
ATOM      5  C   UNL     1      -7.306   2.332 129.238  0.00  0.00    +0.000 C 
ATOM      6  C   UNL     1      -6.596   1.729 130.170  0.00  0.00    +0.000 C 
ATOM      7  C   UNL     1      -5.868   0.476 130.363  0.00  0.00    +0.000 C 
ATOM      8  C   UNL     1      -5.688   3.308 129.845  0.00  0.00    +0.000 C 
ATOM      9  C   UNL     1      -6.895   4.622 129.391  0.00  0.00    +0.000 C 
ATOM     10  C   UNL     1      -8.662   4.547 129.827  0.00  0.00    +0.000 C 
ATOM     11  F   UNL     1      -8.757   4.290 131.229  0.00  0.00    +0.000 F 
ATOM     12  C   UNL     1      -9.401   3.058 129.809  0.00  0.00    +0.000 C 
ATOM     13  C   UNL     1     -10.671   3.153 130.689  0.00  0.00    +0.000 C 
ATOM     14  C   UNL     1     -11.419   4.416 130.357  0.00  0.00    +0.000 C 
ATOM     15  C   UNL     1     -10.606   5.541 130.937  0.00  0.00    +0.000 C 
ATOM     16  C   UNL     1     -11.016   6.472 131.823  0.00  0.00    +0.000 C 
ATOM     17  C   UNL     1     -12.052   7.059 131.045  0.00  0.00    +0.000 C 
ATOM     18  O   UNL     1     -13.197   7.001 131.435  0.00  0.00    +0.000 OA
ATOM     19  C   UNL     1     -11.297   7.787 129.912  0.00  0.00    +0.000 C 
ATOM     20  C   UNL     1     -10.038   7.288 129.499  0.00  0.00    +0.000 C 
ATOM     21  C   UNL     1      -9.331   5.982 130.251  0.00  0.00    +0.000 C 
ATOM     22  C   UNL     1      -8.448   6.314 131.688  0.00  0.00    +0.000 C 
ENDROOT
BRANCH   5  23
ATOM     23  C   UNL     1      -8.113   1.319 127.950  0.00  0.00    +0.000 C 
ATOM     24  O   UNL     1      -8.727   1.960 127.064  0.00  0.00    +0.000 OA
BRANCH  23  25
ATOM     25  C   UNL     1      -7.873  -0.236 127.557  0.00  0.00    +0.000 C 
BRANCH  25  26
ATOM     26  O   UNL     1      -8.152  -0.630 126.178  0.00  0.00    +0.000 OA
ATOM     27  H   UNL     1      -7.552  -1.338 125.880  0.00  0.00    +0.000 HD
ENDBRANCH  25  26
ENDBRANCH  23  25
ENDBRANCH   5  23
BRANCH   9  28
ATOM     28  O   UNL     1      -6.278   5.816 129.850  0.00  0.00    +0.000 OA
ATOM     29  H   UNL     1      -5.492   5.514 130.342  0.00  0.00    +0.000 HD
ENDBRANCH   9  28
TORSDOF 4
ENDMDL
MODEL 4
REMARK VINA RESULT:      -8.0      2.074      6.457
REMARK  Name = Desoximetasone
REMARK  7 active torsions:
REMARK  status: ('A' for Active; 'I' for Inactive)
REMARK    1  A    between atoms: C_4  and  C_5
REMARK    2  A    between atoms: C_6  and  C_7
REMARK    3  A    between atoms: C_7  and  C_9
REMARK    4  A    between atoms: C_9  and  O_10
REMARK    5  A    between atoms: C_11  and  C_12
REMARK    6  A    between atoms: C_14  and  O_15
REMARK    7  A    between atoms: C_28  and  C_29
REMARK                            x       y       z     vdW  Elec       q    Type
REMARK                         _______ _______ _______ _____ _____    ______ ____
ROOT
ATOM      1  C   UNL     1      -6.550  -1.431 125.771  0.00  0.00    +0.000 C 
ATOM      2  C   UNL     1      -5.343  -0.639 125.954  0.00  0.00    +0.000 C 
ATOM      3  C   UNL     1      -6.479   0.317 126.055  0.00  0.00    +0.000 C 
ATOM      4  C   UNL     1      -5.596   1.858 125.775  0.00  0.00    +0.000 C 
ATOM      5  C   UNL     1      -8.206  -0.654 125.534  0.00  0.00    +0.000 C 
ATOM      6  C   UNL     1      -7.323  -0.153 124.695  0.00  0.00    +0.000 C 
ATOM      7  C   UNL     1      -6.987  -0.227 123.273  0.00  0.00    +0.000 C 
ATOM      8  C   UNL     1      -8.199   1.325 125.382  0.00  0.00    +0.000 C 
ATOM      9  C   UNL     1      -8.699   0.982 127.120  0.00  0.00    +0.000 C 
ATOM     10  C   UNL     1      -7.903  -0.289 128.155  0.00  0.00    +0.000 C 
ATOM     11  F   UNL     1      -6.492  -0.073 128.108  0.00  0.00    +0.000 F 
ATOM     12  C   UNL     1      -7.409  -1.692 127.412  0.00  0.00    +0.000 C 
ATOM     13  C   UNL     1      -6.335  -2.348 128.314  0.00  0.00    +0.000 C 
ATOM     14  C   UNL     1      -6.802  -2.327 129.745  0.00  0.00    +0.000 C 
ATOM     15  C   UNL     1      -6.690  -0.896 130.194  0.00  0.00    +0.000 C 
ATOM     16  C   UNL     1      -5.990  -0.422 131.245  0.00  0.00    +0.000 C 
ATOM     17  C   UNL     1      -6.656  -1.136 132.279  0.00  0.00    +0.000 C 
ATOM     18  O   UNL     1      -6.036  -1.933 132.949  0.00  0.00    +0.000 OA
ATOM     19  C   UNL     1      -8.061  -0.500 132.323  0.00  0.00    +0.000 C 
ATOM     20  C   UNL     1      -8.592   0.068 131.139  0.00  0.00    +0.000 C 
ATOM     21  C   UNL     1      -7.709   0.121 129.729  0.00  0.00    +0.000 C 
ATOM     22  C   UNL     1      -6.609   1.432 129.566  0.00  0.00    +0.000 C 
ENDROOT
BRANCH   5  23
ATOM     23  C   UNL     1      -9.017  -2.238 125.120  0.00  0.00    +0.000 C 
ATOM     24  O   UNL     1      -9.957  -2.577 125.876  0.00  0.00    +0.000 OA
BRANCH  23  25
ATOM     25  C   UNL     1      -8.968  -3.095 123.744  0.00  0.00    +0.000 C 
BRANCH  25  26
ATOM     26  O   UNL     1     -10.238  -3.589 123.217  0.00  0.00    +0.000 OA
ATOM     27  H   UNL     1     -10.374  -3.309 122.293  0.00  0.00    +0.000 HD
ENDBRANCH  25  26
ENDBRANCH  23  25
ENDBRANCH   5  23
BRANCH   9  28
ATOM     28  O   UNL     1      -8.678   2.264 127.733  0.00  0.00    +0.000 OA
ATOM     29  H   UNL     1      -8.508   2.884 127.000  0.00  0.00    +0.000 HD
ENDBRANCH   9  28
TORSDOF 4
ENDMDL
MODEL 5
REMARK VINA RESULT:      -8.0      1.965      6.260
REMARK  Name = Desoximetasone
REMARK  7 active torsions:
REMARK  status: ('A' for Active; 'I' for Inactive)
REMARK    1  A    between atoms: C_4  and  C_5
REMARK    2  A    between atoms: C_6  and  C_7
REMARK    3  A    between atoms: C_7  and  C_9
REMARK    4  A    between atoms: C_9  and  O_10
REMARK    5  A    between atoms: C_11  and  C_12
REMARK    6  A    between atoms: C_14  and  O_15
REMARK    7  A    between atoms: C_28  and  C_29
REMARK                            x       y       z     vdW  Elec       q    Type
REMARK                         _______ _______ _______ _____ _____    ______ ____
ROOT
ATOM      1  C   UNL     1      -6.034  -2.540 128.553  0.00  0.00    +0.000 C 
ATOM      2  C   UNL     1      -4.858  -1.788 128.966  0.00  0.00    +0.000 C 
ATOM      3  C   UNL     1      -6.012  -1.158 129.664  0.00  0.00    +0.000 C 
ATOM      4  C   UNL     1      -5.272   0.424 130.092  0.00  0.00    +0.000 C 
ATOM      5  C   UNL     1      -7.747  -1.967 128.932  0.00  0.00    +0.000 C 
ATOM      6  C   UNL     1      -7.043  -1.011 128.360  0.00  0.00    +0.000 C 
ATOM      7  C   UNL     1      -6.944  -0.339 127.065  0.00  0.00    +0.000 C 
ATOM      8  C   UNL     1      -7.872  -0.182 129.791  0.00  0.00    +0.000 C 
ATOM      9  C   UNL     1      -8.057  -1.389 131.169  0.00  0.00    +0.000 C 
ATOM     10  C   UNL     1      -7.034  -2.888 131.327  0.00  0.00    +0.000 C 
ATOM     11  F   UNL     1      -5.664  -2.496 131.231  0.00  0.00    +0.000 F 
ATOM     12  C   UNL     1      -6.594  -3.675 129.929  0.00  0.00    +0.000 C 
ATOM     13  C   UNL     1      -5.352  -4.542 130.250  0.00  0.00    +0.000 C 
ATOM     14  C   UNL     1      -5.576  -5.280 131.542  0.00  0.00    +0.000 C 
ATOM     15  C   UNL     1      -5.469  -4.248 132.631  0.00  0.00    +0.000 C 
ATOM     16  C   UNL     1      -4.631  -4.260 133.688  0.00  0.00    +0.000 C 
ATOM     17  C   UNL     1      -5.077  -5.466 134.295  0.00  0.00    +0.000 C 
ATOM     18  O   UNL     1      -4.312  -6.400 134.399  0.00  0.00    +0.000 OA
ATOM     19  C   UNL     1      -6.488  -5.120 134.815  0.00  0.00    +0.000 C 
ATOM     20  C   UNL     1      -7.238  -4.122 134.146  0.00  0.00    +0.000 C 
ATOM     21  C   UNL     1      -6.605  -3.275 132.860  0.00  0.00    +0.000 C 
ATOM     22  C   UNL     1      -5.619  -1.921 133.249  0.00  0.00    +0.000 C 
ENDROOT
BRANCH   5  23
ATOM     23  C   UNL     1      -8.528  -3.238 127.878  0.00  0.00    +0.000 C 
ATOM     24  O   UNL     1      -9.264  -4.057 128.476  0.00  0.00    +0.000 OA
BRANCH  23  25
ATOM     25  C   UNL     1      -8.718  -3.271 126.268  0.00  0.00    +0.000 C 
BRANCH  25  26
ATOM     26  O   UNL     1     -10.030  -2.906 125.741  0.00  0.00    +0.000 OA
ATOM     27  H   UNL     1     -10.743  -3.406 126.178  0.00  0.00    +0.000 HD
ENDBRANCH  25  26
ENDBRANCH  23  25
ENDBRANCH   5  23
BRANCH   9  28
ATOM     28  O   UNL     1      -8.005  -0.578 132.334  0.00  0.00    +0.000 OA
ATOM     29  H   UNL     1      -7.547  -1.128 132.997  0.00  0.00    +0.000 HD
ENDBRANCH   9  28
TORSDOF 4
ENDMDL
MODEL 6
REMARK VINA RESULT:      -8.0      5.691      9.153
REMARK  Name = Desoximetasone
REMARK  7 active torsions:
REMARK  status: ('A' for Active; 'I' for Inactive)
REMARK    1  A    between atoms: C_4  and  C_5
REMARK    2  A    between atoms: C_6  and  C_7
REMARK    3  A    between atoms: C_7  and  C_9
REMARK    4  A    between atoms: C_9  and  O_10
REMARK    5  A    between atoms: C_11  and  C_12
REMARK    6  A    between atoms: C_14  and  O_15
REMARK    7  A    between atoms: C_28  and  C_29
REMARK                            x       y       z     vdW  Elec       q    Type
REMARK                         _______ _______ _______ _____ _____    ______ ____
ROOT
ATOM      1  C   UNL     1      -7.967   4.464 131.878  0.00  0.00    +0.000 C 
ATOM      2  C   UNL     1      -7.305   3.259 132.353  0.00  0.00    +0.000 C 
ATOM      3  C   UNL     1      -7.366   3.134 130.871  0.00  0.00    +0.000 C 
ATOM      4  C   UNL     1      -7.097   1.363 130.711  0.00  0.00    +0.000 C 
ATOM      5  C   UNL     1      -8.530   4.648 130.130  0.00  0.00    +0.000 C 
ATOM      6  C   UNL     1      -8.973   3.524 130.654  0.00  0.00    +0.000 C 
ATOM      7  C   UNL     1     -10.227   2.960 131.156  0.00  0.00    +0.000 C 
ATOM      8  C   UNL     1      -8.315   3.034 128.996  0.00  0.00    +0.000 C 
ATOM      9  C   UNL     1      -6.887   4.112 128.566  0.00  0.00    +0.000 C 
ATOM     10  C   UNL     1      -5.912   5.021 129.808  0.00  0.00    +0.000 C 
ATOM     11  F   UNL     1      -5.509   4.091 130.815  0.00  0.00    +0.000 F 
ATOM     12  C   UNL     1      -6.720   5.636 131.125  0.00  0.00    +0.000 C 
ATOM     13  C   UNL     1      -5.679   5.871 132.247  0.00  0.00    +0.000 C 
ATOM     14  C   UNL     1      -4.464   6.548 131.670  0.00  0.00    +0.000 C 
ATOM     15  C   UNL     1      -3.753   5.499 130.860  0.00  0.00    +0.000 C 
ATOM     16  C   UNL     1      -2.477   5.084 131.001  0.00  0.00    +0.000 C 
ATOM     17  C   UNL     1      -1.826   6.323 130.750  0.00  0.00    +0.000 C 
ATOM     18  O   UNL     1      -1.159   6.836 131.622  0.00  0.00    +0.000 OA
ATOM     19  C   UNL     1      -2.076   6.575 129.248  0.00  0.00    +0.000 C 
ATOM     20  C   UNL     1      -3.241   6.036 128.649  0.00  0.00    +0.000 C 
ATOM     21  C   UNL     1      -4.302   5.087 129.512  0.00  0.00    +0.000 C 
ATOM     22  C   UNL     1      -3.902   3.420 129.645  0.00  0.00    +0.000 C 
ENDROOT
BRANCH   5  23
ATOM     23  C   UNL     1      -9.438   6.197 130.466  0.00  0.00    +0.000 C 
ATOM     24  O   UNL     1      -9.240   7.127 129.649  0.00  0.00    +0.000 OA
BRANCH  23  25
ATOM     25  C   UNL     1     -10.720   6.456 131.424  0.00  0.00    +0.000 C 
BRANCH  25  26
ATOM     26  O   UNL     1     -10.491   6.446 132.867  0.00  0.00    +0.000 OA
ATOM     27  H   UNL     1      -9.673   5.968 133.095  0.00  0.00    +0.000 HD
ENDBRANCH  25  26
ENDBRANCH  23  25
ENDBRANCH   5  23
BRANCH   9  28
ATOM     28  O   UNL     1      -6.074   3.280 127.749  0.00  0.00    +0.000 OA
ATOM     29  H   UNL     1      -6.496   3.310 126.870  0.00  0.00    +0.000 HD
ENDBRANCH   9  28
TORSDOF 4
ENDMDL
MODEL 7
REMARK VINA RESULT:      -7.9      2.745      4.458
REMARK  Name = Desoximetasone
REMARK  7 active torsions:
REMARK  status: ('A' for Active; 'I' for Inactive)
REMARK    1  A    between atoms: C_4  and  C_5
REMARK    2  A    between atoms: C_6  and  C_7
REMARK    3  A    between atoms: C_7  and  C_9
REMARK    4  A    between atoms: C_9  and  O_10
REMARK    5  A    between atoms: C_11  and  C_12
REMARK    6  A    between atoms: C_14  and  O_15
REMARK    7  A    between atoms: C_28  and  C_29
REMARK                            x       y       z     vdW  Elec       q    Type
REMARK                         _______ _______ _______ _____ _____    ______ ____
ROOT
ATOM      1  C   UNL     1      -6.726   1.486 131.121  0.00  0.00    +0.000 C 
ATOM      2  C   UNL     1      -5.337   1.137 130.864  0.00  0.00    +0.000 C 
ATOM      3  C   UNL     1      -5.888   0.036 131.700  0.00  0.00    +0.000 C 
ATOM      4  C   UNL     1      -4.350  -0.686 132.291  0.00  0.00    +0.000 C 
ATOM      5  C   UNL     1      -7.756   0.571 132.348  0.00  0.00    +0.000 C 
ATOM      6  C   UNL     1      -6.616   0.960 132.883  0.00  0.00    +0.000 C 
ATOM      7  C   UNL     1      -6.126   1.968 133.822  0.00  0.00    +0.000 C 
ATOM      8  C   UNL     1      -6.793  -0.807 133.403  0.00  0.00    +0.000 C 
ATOM      9  C   UNL     1      -7.673  -1.744 132.085  0.00  0.00    +0.000 C 
ATOM     10  C   UNL     1      -7.753  -1.191 130.351  0.00  0.00    +0.000 C 
ATOM     11  F   UNL     1      -6.420  -0.915 129.917  0.00  0.00    +0.000 F 
ATOM     12  C   UNL     1      -7.863   0.443 130.065  0.00  0.00    +0.000 C 
ATOM     13  C   UNL     1      -7.390   0.699 128.613  0.00  0.00    +0.000 C 
ATOM     14  C   UNL     1      -8.020  -0.314 127.695  0.00  0.00    +0.000 C 
ATOM     15  C   UNL     1      -7.323  -1.617 127.978  0.00  0.00    +0.000 C 
ATOM     16  C   UNL     1      -6.666  -2.399 127.097  0.00  0.00    +0.000 C 
ATOM     17  C   UNL     1      -7.750  -2.684 126.221  0.00  0.00    +0.000 C 
ATOM     18  O   UNL     1      -7.698  -2.316 125.068  0.00  0.00    +0.000 OA
ATOM     19  C   UNL     1      -8.675  -3.591 127.060  0.00  0.00    +0.000 C 
ATOM     20  C   UNL     1      -8.673  -3.454 128.469  0.00  0.00    +0.000 C 
ATOM     21  C   UNL     1      -7.651  -2.389 129.237  0.00  0.00    +0.000 C 
ATOM     22  C   UNL     1      -6.053  -2.946 129.539  0.00  0.00    +0.000 C 
ENDROOT
BRANCH   5  23
ATOM     23  C   UNL     1      -9.137   1.763 132.250  0.00  0.00    +0.000 C 
ATOM     24  O   UNL     1     -10.274   1.260 132.092  0.00  0.00    +0.000 OA
BRANCH  23  25
ATOM     25  C   UNL     1      -9.187   3.324 132.688  0.00  0.00    +0.000 C 
BRANCH  25  26
ATOM     26  O   UNL     1      -9.909   3.652 133.915  0.00  0.00    +0.000 OA
ATOM     27  H   UNL     1      -9.664   4.534 134.249  0.00  0.00    +0.000 HD
ENDBRANCH  25  26
ENDBRANCH  23  25
ENDBRANCH   5  23
BRANCH   9  28
ATOM     28  O   UNL     1      -7.152  -3.060 132.206  0.00  0.00    +0.000 OA
ATOM     29  H   UNL     1      -7.866  -3.639 131.879  0.00  0.00    +0.000 HD
ENDBRANCH   9  28
TORSDOF 4
ENDMDL
MODEL 8
REMARK VINA RESULT:      -7.9      3.338      5.080
REMARK  Name = Desoximetasone
REMARK  7 active torsions:
REMARK  status: ('A' for Active; 'I' for Inactive)
REMARK    1  A    between atoms: C_4  and  C_5
REMARK    2  A    between atoms: C_6  and  C_7
REMARK    3  A    between atoms: C_7  and  C_9
REMARK    4  A    between atoms: C_9  and  O_10
REMARK    5  A    between atoms: C_11  and  C_12
REMARK    6  A    between atoms: C_14  and  O_15
REMARK    7  A    between atoms: C_28  and  C_29
REMARK                            x       y       z     vdW  Elec       q    Type
REMARK                         _______ _______ _______ _____ _____    ______ ____
ROOT
ATOM      1  C   UNL     1      -7.511   2.868 127.312  0.00  0.00    +0.000 C 
ATOM      2  C   UNL     1      -6.637   3.060 126.164  0.00  0.00    +0.000 C 
ATOM      3  C   UNL     1      -5.911   2.140 127.081  0.00  0.00    +0.000 C 
ATOM      4  C   UNL     1      -4.243   2.331 126.434  0.00  0.00    +0.000 C 
ATOM      5  C   UNL     1      -6.936   2.030 128.852  0.00  0.00    +0.000 C 
ATOM      6  C   UNL     1      -6.110   2.994 128.501  0.00  0.00    +0.000 C 
ATOM      7  C   UNL     1      -5.751   4.348 128.924  0.00  0.00    +0.000 C 
ATOM      8  C   UNL     1      -5.008   1.561 128.892  0.00  0.00    +0.000 C 
ATOM      9  C   UNL     1      -5.871  -0.006 128.458  0.00  0.00    +0.000 C 
ATOM     10  C   UNL     1      -7.250  -0.090 127.270  0.00  0.00    +0.000 C 
ATOM     11  F   UNL     1      -6.836   0.563 126.070  0.00  0.00    +0.000 F 
ATOM     12  C   UNL     1      -8.319   1.183 127.237  0.00  0.00    +0.000 C 
ATOM     13  C   UNL     1      -9.038   1.156 125.866  0.00  0.00    +0.000 C 
ATOM     14  C   UNL     1      -9.467  -0.252 125.552  0.00  0.00    +0.000 C 
ATOM     15  C   UNL     1      -8.208  -0.999 125.208  0.00  0.00    +0.000 C 
ATOM     16  C   UNL     1      -7.942  -1.670 124.068  0.00  0.00    +0.000 C 
ATOM     17  C   UNL     1      -8.993  -2.625 124.137  0.00  0.00    +0.000 C 
ATOM     18  O   UNL     1      -9.846  -2.637 123.277  0.00  0.00    +0.000 OA
ATOM     19  C   UNL     1      -8.593  -3.531 125.321  0.00  0.00    +0.000 C 
ATOM     20  C   UNL     1      -7.808  -2.985 126.365  0.00  0.00    +0.000 C 
ATOM     21  C   UNL     1      -7.255  -1.416 126.307  0.00  0.00    +0.000 C 
ATOM     22  C   UNL     1      -5.809  -1.147 125.416  0.00  0.00    +0.000 C 
ENDROOT
BRANCH   5  23
ATOM     23  C   UNL     1      -8.446   2.458 129.786  0.00  0.00    +0.000 C 
ATOM     24  O   UNL     1      -8.817   1.610 130.631  0.00  0.00    +0.000 OA
BRANCH  23  25
ATOM     25  C   UNL     1      -9.179   3.893 129.962  0.00  0.00    +0.000 C 
BRANCH  25  26
ATOM     26  O   UNL     1     -10.640   3.901 129.991  0.00  0.00    +0.000 OA
ATOM     27  H   UNL     1     -10.996   3.050 130.307  0.00  0.00    +0.000 HD
ENDBRANCH  25  26
ENDBRANCH  23  25
ENDBRANCH   5  23
BRANCH   9  28
ATOM     28  O   UNL     1      -4.811  -0.888 128.113  0.00  0.00    +0.000 OA
ATOM     29  H   UNL     1      -4.120  -0.309 127.741  0.00  0.00    +0.000 HD
ENDBRANCH   9  28
TORSDOF 4
ENDMDL
MODEL 9
REMARK VINA RESULT:      -7.8      6.041      8.852
REMARK  Name = Desoximetasone
REMARK  7 active torsions:
REMARK  status: ('A' for Active; 'I' for Inactive)
REMARK    1  A    between atoms: C_4  and  C_5
REMARK    2  A    between atoms: C_6  and  C_7
REMARK    3  A    between atoms: C_7  and  C_9
REMARK    4  A    between atoms: C_9  and  O_10
REMARK    5  A    between atoms: C_11  and  C_12
REMARK    6  A    between atoms: C_14  and  O_15
REMARK    7  A    between atoms: C_28  and  C_29
REMARK                            x       y       z     vdW  Elec       q    Type
REMARK                         _______ _______ _______ _____ _____    ______ ____
ROOT
ATOM      1  C   UNL     1      -5.818   4.427 131.792  0.00  0.00    +0.000 C 
ATOM      2  C   UNL     1      -6.049   3.635 130.593  0.00  0.00    +0.000 C 
ATOM      3  C   UNL     1      -6.973   3.093 131.626  0.00  0.00    +0.000 C 
ATOM      4  C   UNL     1      -7.339   1.494 130.888  0.00  0.00    +0.000 C 
ATOM      5  C   UNL     1      -6.526   3.957 133.429  0.00  0.00    +0.000 C 
ATOM      6  C   UNL     1      -5.885   2.944 132.882  0.00  0.00    +0.000 C 
ATOM      7  C   UNL     1      -4.627   2.216 133.048  0.00  0.00    +0.000 C 
ATOM      8  C   UNL     1      -7.480   2.217 133.471  0.00  0.00    +0.000 C 
ATOM      9  C   UNL     1      -8.808   3.487 133.352  0.00  0.00    +0.000 C 
ATOM     10  C   UNL     1      -8.706   4.939 132.255  0.00  0.00    +0.000 C 
ATOM     11  F   UNL     1      -8.384   4.475 130.943  0.00  0.00    +0.000 F 
ATOM     12  C   UNL     1      -7.215   5.644 132.045  0.00  0.00    +0.000 C 
ATOM     13  C   UNL     1      -7.264   6.460 130.730  0.00  0.00    +0.000 C 
ATOM     14  C   UNL     1      -8.537   7.262 130.684  0.00  0.00    +0.000 C 
ATOM     15  C   UNL     1      -9.639   6.270 130.424  0.00  0.00    +0.000 C 
ATOM     16  C   UNL     1     -10.526   6.283 129.408  0.00  0.00    +0.000 C 
ATOM     17  C   UNL     1     -11.143   7.535 129.685  0.00  0.00    +0.000 C 
ATOM     18  O   UNL     1     -11.062   8.433 128.877  0.00  0.00    +0.000 OA
ATOM     19  C   UNL     1     -11.925   7.280 130.992  0.00  0.00    +0.000 C 
ATOM     20  C   UNL     1     -11.451   6.295 131.892  0.00  0.00    +0.000 C 
ATOM     21  C   UNL     1     -10.116   5.366 131.539  0.00  0.00    +0.000 C 
ATOM     22  C   UNL     1     -10.387   3.981 130.556  0.00  0.00    +0.000 C 
ENDROOT
BRANCH   5  23
ATOM     23  C   UNL     1      -5.568   5.222 134.335  0.00  0.00    +0.000 C 
ATOM     24  O   UNL     1      -6.203   5.853 135.213  0.00  0.00    +0.000 OA
BRANCH  23  25
ATOM     25  C   UNL     1      -3.963   5.418 134.447  0.00  0.00    +0.000 C 
BRANCH  25  26
ATOM     26  O   UNL     1      -3.232   4.487 135.304  0.00  0.00    +0.000 OA
ATOM     27  H   UNL     1      -3.790   3.733 135.569  0.00  0.00    +0.000 HD
ENDBRANCH  25  26
ENDBRANCH  23  25
ENDBRANCH   5  23
BRANCH   9  28
ATOM     28  O   UNL     1      -9.984   2.723 133.123  0.00  0.00    +0.000 OA
ATOM     29  H   UNL     1      -9.690   1.984 132.558  0.00  0.00    +0.000 HD
ENDBRANCH   9  28
TORSDOF 4
ENDMDL
