MODEL 1
REMARK VINA RESULT:      -8.4      0.000      0.000
REMARK  Name = Desoxycorticosterone acetate
REMARK  7 active torsions:
REMARK  status: ('A' for Active; 'I' for Inactive)
REMARK    1  A    between atoms: C_5  and  C_6
REMARK    2  A    between atoms: C_6  and  C_8
REMARK    3  A    between atoms: C_8  and  O_9
REMARK    4  A    between atoms: O_9  and  C_10
REMARK    5  A    between atoms: C_10  and  C_11
REMARK    6  A    between atoms: C_13  and  C_14
REMARK    7  A    between atoms: C_29  and  C_30
REMARK                            x       y       z     vdW  Elec       q    Type
REMARK                         _______ _______ _______ _____ _____    ______ ____
ROOT
ATOM      1  C   UNL     1      -6.420  -2.517 126.483  0.00  0.00    +0.000 C 
ATOM      2  C   UNL     1      -5.717  -1.784 125.352  0.00  0.00    +0.000 C 
ATOM      3  C   UNL     1      -6.431  -2.283 124.088  0.00  0.00    +0.000 C 
ATOM      4  C   UNL     1      -7.695  -3.068 124.546  0.00  0.00    +0.000 C 
ATOM      5  C   UNL     1      -7.888  -2.611 126.014  0.00  0.00    +0.000 C 
ATOM      6  C   UNL     1      -8.637  -1.254 126.041  0.00  0.00    +0.000 C 
ATOM      7  C   UNL     1      -8.570  -3.625 126.945  0.00  0.00    +0.000 C 
ATOM      8  C   UNL     1      -8.482  -3.203 128.422  0.00  0.00    +0.000 C 
ATOM      9  C   UNL     1      -7.052  -2.860 128.905  0.00  0.00    +0.000 C 
ATOM     10  C   UNL     1      -6.285  -1.949 127.899  0.00  0.00    +0.000 C 
ATOM     11  C   UNL     1      -4.814  -1.844 128.316  0.00  0.00    +0.000 C 
ATOM     12  C   UNL     1      -4.640  -1.365 129.752  0.00  0.00    +0.000 C 
ATOM     13  C   UNL     1      -5.507  -2.104 130.741  0.00  0.00    +0.000 C 
ATOM     14  C   UNL     1      -4.966  -2.541 131.892  0.00  0.00    +0.000 C 
ATOM     15  C   UNL     1      -5.809  -3.073 132.987  0.00  0.00    +0.000 C 
ATOM     16  O   UNL     1      -5.282  -3.456 134.027  0.00  0.00    +0.000 OA
ATOM     17  C   UNL     1      -7.303  -3.001 132.813  0.00  0.00    +0.000 C 
ATOM     18  C   UNL     1      -7.666  -3.271 131.358  0.00  0.00    +0.000 C 
ATOM     19  C   UNL     1      -6.985  -2.279 130.370  0.00  0.00    +0.000 C 
ATOM     20  C   UNL     1      -7.695  -0.910 130.474  0.00  0.00    +0.000 C 
ENDROOT
BRANCH   4  21
ATOM     21  C   UNL     1      -8.892  -2.814 123.615  0.00  0.00    +0.000 C 
ATOM     22  O   UNL     1      -9.918  -3.492 123.692  0.00  0.00    +0.000 OA
BRANCH  21  23
ATOM     23  C   UNL     1      -8.767  -1.673 122.605  0.00  0.00    +0.000 C 
BRANCH  23  24
ATOM     24  O   UNL     1      -9.998  -0.947 122.510  0.00  0.00    +0.000 OA
BRANCH  24  25
ATOM     25  C   UNL     1     -10.110   0.358 122.836  0.00  0.00    +0.000 C 
ATOM     26  C   UNL     1      -8.869   1.134 123.173  0.00  0.00    +0.000 C 
ATOM     27  O   UNL     1     -11.212   0.903 122.872  0.00  0.00    +0.000 OA
ENDBRANCH  24  25
ENDBRANCH  23  24
ENDBRANCH  21  23
ENDBRANCH   4  21
TORSDOF 4
ENDMDL
MODEL 2
REMARK VINA RESULT:      -7.6      1.601      2.684
REMARK  Name = Desoxycorticosterone acetate
REMARK  7 active torsions:
REMARK  status: ('A' for Active; 'I' for Inactive)
REMARK    1  A    between atoms: C_5  and  C_6
REMARK    2  A    between atoms: C_6  and  C_8
REMARK    3  A    between atoms: C_8  and  O_9
REMARK    4  A    between atoms: O_9  and  C_10
REMARK    5  A    between atoms: C_10  and  C_11
REMARK    6  A    between atoms: C_13  and  C_14
REMARK    7  A    between atoms: C_29  and  C_30
REMARK                            x       y       z     vdW  Elec       q    Type
REMARK                         _______ _______ _______ _____ _____    ______ ____
ROOT
ATOM      1  C   UNL     1      -8.615  -2.501 126.455  0.00  0.00    +0.000 C 
ATOM      2  C   UNL     1      -8.586  -3.736 125.569  0.00  0.00    +0.000 C 
ATOM      3  C   UNL     1      -9.221  -3.263 124.255  0.00  0.00    +0.000 C 
ATOM      4  C   UNL     1      -9.342  -1.713 124.326  0.00  0.00    +0.000 C 
ATOM      5  C   UNL     1      -8.375  -1.332 125.475  0.00  0.00    +0.000 C 
ATOM      6  C   UNL     1      -6.925  -1.263 124.933  0.00  0.00    +0.000 C 
ATOM      7  C   UNL     1      -8.727  -0.049 126.246  0.00  0.00    +0.000 C 
ATOM      8  C   UNL     1      -7.881   0.108 127.521  0.00  0.00    +0.000 C 
ATOM      9  C   UNL     1      -7.885  -1.131 128.449  0.00  0.00    +0.000 C 
ATOM     10  C   UNL     1      -7.677  -2.463 127.665  0.00  0.00    +0.000 C 
ATOM     11  C   UNL     1      -7.926  -3.654 128.597  0.00  0.00    +0.000 C 
ATOM     12  C   UNL     1      -7.072  -3.605 129.858  0.00  0.00    +0.000 C 
ATOM     13  C   UNL     1      -7.101  -2.266 130.552  0.00  0.00    +0.000 C 
ATOM     14  C   UNL     1      -7.272  -2.220 131.886  0.00  0.00    +0.000 C 
ATOM     15  C   UNL     1      -7.091  -0.961 132.643  0.00  0.00    +0.000 C 
ATOM     16  O   UNL     1      -7.248  -0.957 133.860  0.00  0.00    +0.000 OA
ATOM     17  C   UNL     1      -6.596   0.242 131.885  0.00  0.00    +0.000 C 
ATOM     18  C   UNL     1      -7.209   0.261 130.490  0.00  0.00    +0.000 C 
ATOM     19  C   UNL     1      -6.897  -1.026 129.673  0.00  0.00    +0.000 C 
ATOM     20  C   UNL     1      -5.422  -0.974 129.213  0.00  0.00    +0.000 C 
ENDROOT
BRANCH   4  21
ATOM     21  C   UNL     1      -9.041  -1.056 122.969  0.00  0.00    +0.000 C 
ATOM     22  O   UNL     1      -8.184  -1.513 122.211  0.00  0.00    +0.000 OA
BRANCH  21  23
ATOM     23  C   UNL     1      -9.863   0.177 122.588  0.00  0.00    +0.000 C 
BRANCH  23  24
ATOM     24  O   UNL     1      -9.484   1.302 123.389  0.00  0.00    +0.000 OA
BRANCH  24  25
ATOM     25  C   UNL     1      -8.581   2.221 122.988  0.00  0.00    +0.000 C 
ATOM     26  C   UNL     1      -7.165   2.112 123.475  0.00  0.00    +0.000 C 
ATOM     27  O   UNL     1      -8.913   3.144 122.245  0.00  0.00    +0.000 OA
ENDBRANCH  24  25
ENDBRANCH  23  24
ENDBRANCH  21  23
ENDBRANCH   4  21
TORSDOF 4
ENDMDL
MODEL 3
REMARK VINA RESULT:      -7.5      1.730      2.963
REMARK  Name = Desoxycorticosterone acetate
REMARK  7 active torsions:
REMARK  status: ('A' for Active; 'I' for Inactive)
REMARK    1  A    between atoms: C_5  and  C_6
REMARK    2  A    between atoms: C_6  and  C_8
REMARK    3  A    between atoms: C_8  and  O_9
REMARK    4  A    between atoms: O_9  and  C_10
REMARK    5  A    between atoms: C_10  and  C_11
REMARK    6  A    between atoms: C_13  and  C_14
REMARK    7  A    between atoms: C_29  and  C_30
REMARK                            x       y       z     vdW  Elec       q    Type
REMARK                         _______ _______ _______ _____ _____    ______ ____
ROOT
ATOM      1  C   UNL     1      -7.954  -2.421 127.467  0.00  0.00    +0.000 C 
ATOM      2  C   UNL     1      -8.938  -3.429 126.895  0.00  0.00    +0.000 C 
ATOM      3  C   UNL     1      -9.550  -2.704 125.689  0.00  0.00    +0.000 C 
ATOM      4  C   UNL     1      -8.706  -1.420 125.439  0.00  0.00    +0.000 C 
ATOM      5  C   UNL     1      -7.398  -1.693 126.224  0.00  0.00    +0.000 C 
ATOM      6  C   UNL     1      -6.449  -2.567 125.365  0.00  0.00    +0.000 C 
ATOM      7  C   UNL     1      -6.664  -0.450 126.750  0.00  0.00    +0.000 C 
ATOM      8  C   UNL     1      -5.537  -0.817 127.732  0.00  0.00    +0.000 C 
ATOM      9  C   UNL     1      -5.975  -1.750 128.887  0.00  0.00    +0.000 C 
ATOM     10  C   UNL     1      -6.850  -2.941 128.393  0.00  0.00    +0.000 C 
ATOM     11  C   UNL     1      -7.440  -3.682 129.597  0.00  0.00    +0.000 C 
ATOM     12  C   UNL     1      -6.377  -4.140 130.588  0.00  0.00    +0.000 C 
ATOM     13  C   UNL     1      -5.392  -3.058 130.956  0.00  0.00    +0.000 C 
ATOM     14  C   UNL     1      -5.071  -2.872 132.249  0.00  0.00    +0.000 C 
ATOM     15  C   UNL     1      -3.957  -1.982 132.645  0.00  0.00    +0.000 C 
ATOM     16  O   UNL     1      -3.686  -1.842 133.834  0.00  0.00    +0.000 OA
ATOM     17  C   UNL     1      -3.121  -1.381 131.547  0.00  0.00    +0.000 C 
ATOM     18  C   UNL     1      -4.008  -1.025 130.360  0.00  0.00    +0.000 C 
ATOM     19  C   UNL     1      -4.790  -2.249 129.799  0.00  0.00    +0.000 C 
ATOM     20  C   UNL     1      -3.806  -3.149 129.017  0.00  0.00    +0.000 C 
ENDROOT
BRANCH   4  21
ATOM     21  C   UNL     1      -8.525  -1.140 123.938  0.00  0.00    +0.000 C 
ATOM     22  O   UNL     1      -8.769  -2.002 123.092  0.00  0.00    +0.000 OA
BRANCH  21  23
ATOM     23  C   UNL     1      -8.052   0.257 123.536  0.00  0.00    +0.000 C 
BRANCH  23  24
ATOM     24  O   UNL     1      -8.782   1.262 124.250  0.00  0.00    +0.000 OA
BRANCH  24  25
ATOM     25  C   UNL     1      -8.222   2.410 124.683  0.00  0.00    +0.000 C 
ATOM     26  C   UNL     1      -6.735   2.587 124.565  0.00  0.00    +0.000 C 
ATOM     27  O   UNL     1      -8.914   3.297 125.182  0.00  0.00    +0.000 OA
ENDBRANCH  24  25
ENDBRANCH  23  24
ENDBRANCH  21  23
ENDBRANCH   4  21
TORSDOF 4
ENDMDL
MODEL 4
REMARK VINA RESULT:      -7.5      7.584      9.536
REMARK  Name = Desoxycorticosterone acetate
REMARK  7 active torsions:
REMARK  status: ('A' for Active; 'I' for Inactive)
REMARK    1  A    between atoms: C_5  and  C_6
REMARK    2  A    between atoms: C_6  and  C_8
REMARK    3  A    between atoms: C_8  and  O_9
REMARK    4  A    between atoms: O_9  and  C_10
REMARK    5  A    between atoms: C_10  and  C_11
REMARK    6  A    between atoms: C_13  and  C_14
REMARK    7  A    between atoms: C_29  and  C_30
REMARK                            x       y       z     vdW  Elec       q    Type
REMARK                         _______ _______ _______ _____ _____    ______ ____
ROOT
ATOM      1  C   UNL     1      -7.465   4.088 131.769  0.00  0.00    +0.000 C 
ATOM      2  C   UNL     1      -8.135   2.751 131.498  0.00  0.00    +0.000 C 
ATOM      3  C   UNL     1      -9.635   3.074 131.539  0.00  0.00    +0.000 C 
ATOM      4  C   UNL     1      -9.778   4.623 131.554  0.00  0.00    +0.000 C 
ATOM      5  C   UNL     1      -8.387   5.116 131.079  0.00  0.00    +0.000 C 
ATOM      6  C   UNL     1      -8.321   5.068 129.531  0.00  0.00    +0.000 C 
ATOM      7  C   UNL     1      -7.954   6.496 131.599  0.00  0.00    +0.000 C 
ATOM      8  C   UNL     1      -6.472   6.786 131.300  0.00  0.00    +0.000 C 
ATOM      9  C   UNL     1      -5.498   5.674 131.759  0.00  0.00    +0.000 C 
ATOM     10  C   UNL     1      -5.995   4.248 131.371  0.00  0.00    +0.000 C 
ATOM     11  C   UNL     1      -5.118   3.192 132.052  0.00  0.00    +0.000 C 
ATOM     12  C   UNL     1      -3.636   3.372 131.750  0.00  0.00    +0.000 C 
ATOM     13  C   UNL     1      -3.150   4.788 131.938  0.00  0.00    +0.000 C 
ATOM     14  C   UNL     1      -2.003   5.007 132.606  0.00  0.00    +0.000 C 
ATOM     15  C   UNL     1      -1.371   6.345 132.632  0.00  0.00    +0.000 C 
ATOM     16  O   UNL     1      -0.320   6.508 133.245  0.00  0.00    +0.000 OA
ATOM     17  C   UNL     1      -1.994   7.427 131.790  0.00  0.00    +0.000 C 
ATOM     18  C   UNL     1      -3.511   7.290 131.815  0.00  0.00    +0.000 C 
ATOM     19  C   UNL     1      -4.003   5.900 131.313  0.00  0.00    +0.000 C 
ATOM     20  C   UNL     1      -3.850   5.846 129.776  0.00  0.00    +0.000 C 
ENDROOT
BRANCH   4  21
ATOM     21  C   UNL     1     -10.968   5.095 130.703  0.00  0.00    +0.000 C 
ATOM     22  O   UNL     1     -11.555   4.326 129.940  0.00  0.00    +0.000 OA
BRANCH  21  23
ATOM     23  C   UNL     1     -11.409   6.552 130.856  0.00  0.00    +0.000 C 
BRANCH  23  24
ATOM     24  O   UNL     1     -12.032   7.019 129.654  0.00  0.00    +0.000 OA
BRANCH  24  25
ATOM     25  C   UNL     1     -11.760   8.220 129.103  0.00  0.00    +0.000 C 
ATOM     26  C   UNL     1     -10.532   8.370 128.252  0.00  0.00    +0.000 C 
ATOM     27  O   UNL     1     -12.497   9.184 129.306  0.00  0.00    +0.000 OA
ENDBRANCH  24  25
ENDBRANCH  23  24
ENDBRANCH  21  23
ENDBRANCH   4  21
TORSDOF 4
ENDMDL
MODEL 5
REMARK VINA RESULT:      -7.3      1.762      7.957
REMARK  Name = Desoxycorticosterone acetate
REMARK  7 active torsions:
REMARK  status: ('A' for Active; 'I' for Inactive)
REMARK    1  A    between atoms: C_5  and  C_6
REMARK    2  A    between atoms: C_6  and  C_8
REMARK    3  A    between atoms: C_8  and  O_9
REMARK    4  A    between atoms: O_9  and  C_10
REMARK    5  A    between atoms: C_10  and  C_11
REMARK    6  A    between atoms: C_13  and  C_14
REMARK    7  A    between atoms: C_29  and  C_30
REMARK                            x       y       z     vdW  Elec       q    Type
REMARK                         _______ _______ _______ _____ _____    ______ ____
ROOT
ATOM      1  C   UNL     1      -7.744  -0.932 129.177  0.00  0.00    +0.000 C 
ATOM      2  C   UNL     1      -7.201  -0.097 130.325  0.00  0.00    +0.000 C 
ATOM      3  C   UNL     1      -7.026  -1.106 131.467  0.00  0.00    +0.000 C 
ATOM      4  C   UNL     1      -7.208  -2.529 130.864  0.00  0.00    +0.000 C 
ATOM      5  C   UNL     1      -7.039  -2.296 129.341  0.00  0.00    +0.000 C 
ATOM      6  C   UNL     1      -5.531  -2.263 128.985  0.00  0.00    +0.000 C 
ATOM      7  C   UNL     1      -7.790  -3.278 128.428  0.00  0.00    +0.000 C 
ATOM      8  C   UNL     1      -7.785  -2.820 126.960  0.00  0.00    +0.000 C 
ATOM      9  C   UNL     1      -8.262  -1.364 126.742  0.00  0.00    +0.000 C 
ATOM     10  C   UNL     1      -7.623  -0.369 127.758  0.00  0.00    +0.000 C 
ATOM     11  C   UNL     1      -8.309   0.997 127.644  0.00  0.00    +0.000 C 
ATOM     12  C   UNL     1      -8.286   1.552 126.226  0.00  0.00    +0.000 C 
ATOM     13  C   UNL     1      -8.727   0.554 125.183  0.00  0.00    +0.000 C 
ATOM     14  C   UNL     1      -9.601   0.937 124.235  0.00  0.00    +0.000 C 
ATOM     15  C   UNL     1      -9.898   0.076 123.068  0.00  0.00    +0.000 C 
ATOM     16  O   UNL     1     -10.695   0.460 122.217  0.00  0.00    +0.000 OA
ATOM     17  C   UNL     1      -9.101  -1.193 122.918  0.00  0.00    +0.000 C 
ATOM     18  C   UNL     1      -8.852  -1.809 124.289  0.00  0.00    +0.000 C 
ATOM     19  C   UNL     1      -8.108  -0.847 125.260  0.00  0.00    +0.000 C 
ATOM     20  C   UNL     1      -6.624  -0.765 124.836  0.00  0.00    +0.000 C 
ENDROOT
BRANCH   4  21
ATOM     21  C   UNL     1      -6.232  -3.541 131.487  0.00  0.00    +0.000 C 
ATOM     22  O   UNL     1      -6.053  -4.652 130.983  0.00  0.00    +0.000 OA
BRANCH  21  23
ATOM     23  C   UNL     1      -5.475  -3.107 132.743  0.00  0.00    +0.000 C 
BRANCH  23  24
ATOM     24  O   UNL     1      -4.063  -3.101 132.505  0.00  0.00    +0.000 OA
BRANCH  24  25
ATOM     25  C   UNL     1      -3.410  -2.045 131.977  0.00  0.00    +0.000 C 
ATOM     26  C   UNL     1      -3.568  -0.696 132.618  0.00  0.00    +0.000 C 
ATOM     27  O   UNL     1      -2.707  -2.178 130.977  0.00  0.00    +0.000 OA
ENDBRANCH  24  25
ENDBRANCH  23  24
ENDBRANCH  21  23
ENDBRANCH   4  21
TORSDOF 4
ENDMDL
MODEL 6
REMARK VINA RESULT:      -7.3      2.622      3.723
REMARK  Name = Desoxycorticosterone acetate
REMARK  7 active torsions:
REMARK  status: ('A' for Active; 'I' for Inactive)
REMARK    1  A    between atoms: C_5  and  C_6
REMARK    2  A    between atoms: C_6  and  C_8
REMARK    3  A    between atoms: C_8  and  O_9
REMARK    4  A    between atoms: O_9  and  C_10
REMARK    5  A    between atoms: C_10  and  C_11
REMARK    6  A    between atoms: C_13  and  C_14
REMARK    7  A    between atoms: C_29  and  C_30
REMARK                            x       y       z     vdW  Elec       q    Type
REMARK                         _______ _______ _______ _____ _____    ______ ____
ROOT
ATOM      1  C   UNL     1      -7.312   0.760 127.394  0.00  0.00    +0.000 C 
ATOM      2  C   UNL     1      -8.235   1.957 127.238  0.00  0.00    +0.000 C 
ATOM      3  C   UNL     1      -7.855   2.541 125.871  0.00  0.00    +0.000 C 
ATOM      4  C   UNL     1      -6.928   1.511 125.164  0.00  0.00    +0.000 C 
ATOM      5  C   UNL     1      -7.175   0.204 125.960  0.00  0.00    +0.000 C 
ATOM      6  C   UNL     1      -8.459  -0.489 125.437  0.00  0.00    +0.000 C 
ATOM      7  C   UNL     1      -6.000  -0.787 125.996  0.00  0.00    +0.000 C 
ATOM      8  C   UNL     1      -6.230  -1.918 127.014  0.00  0.00    +0.000 C 
ATOM      9  C   UNL     1      -6.609  -1.433 128.434  0.00  0.00    +0.000 C 
ATOM     10  C   UNL     1      -7.697  -0.317 128.413  0.00  0.00    +0.000 C 
ATOM     11  C   UNL     1      -7.852   0.279 129.816  0.00  0.00    +0.000 C 
ATOM     12  C   UNL     1      -8.150  -0.775 130.875  0.00  0.00    +0.000 C 
ATOM     13  C   UNL     1      -7.227  -1.967 130.813  0.00  0.00    +0.000 C 
ATOM     14  C   UNL     1      -6.683  -2.437 131.950  0.00  0.00    +0.000 C 
ATOM     15  C   UNL     1      -5.953  -3.725 131.979  0.00  0.00    +0.000 C 
ATOM     16  O   UNL     1      -5.476  -4.128 133.036  0.00  0.00    +0.000 OA
ATOM     17  C   UNL     1      -5.940  -4.547 130.717  0.00  0.00    +0.000 C 
ATOM     18  C   UNL     1      -5.838  -3.628 129.506  0.00  0.00    +0.000 C 
ATOM     19  C   UNL     1      -6.996  -2.592 129.431  0.00  0.00    +0.000 C 
ATOM     20  C   UNL     1      -8.285  -3.320 128.988  0.00  0.00    +0.000 C 
ENDROOT
BRANCH   4  21
ATOM     21  C   UNL     1      -7.215   1.426 123.656  0.00  0.00    +0.000 C 
ATOM     22  O   UNL     1      -6.802   0.484 122.977  0.00  0.00    +0.000 OA
BRANCH  21  23
ATOM     23  C   UNL     1      -8.052   2.546 123.035  0.00  0.00    +0.000 C 
BRANCH  23  24
ATOM     24  O   UNL     1      -7.352   3.151 121.941  0.00  0.00    +0.000 OA
BRANCH  24  25
ATOM     25  C   UNL     1      -6.163   3.773 122.083  0.00  0.00    +0.000 C 
ATOM     26  C   UNL     1      -5.144   3.655 120.987  0.00  0.00    +0.000 C 
ATOM     27  O   UNL     1      -5.910   4.417 123.100  0.00  0.00    +0.000 OA
ENDBRANCH  24  25
ENDBRANCH  23  24
ENDBRANCH  21  23
ENDBRANCH   4  21
TORSDOF 4
ENDMDL
MODEL 7
REMARK VINA RESULT:      -7.2      2.042      3.564
REMARK  Name = Desoxycorticosterone acetate
REMARK  7 active torsions:
REMARK  status: ('A' for Active; 'I' for Inactive)
REMARK    1  A    between atoms: C_5  and  C_6
REMARK    2  A    between atoms: C_6  and  C_8
REMARK    3  A    between atoms: C_8  and  O_9
REMARK    4  A    between atoms: O_9  and  C_10
REMARK    5  A    between atoms: C_10  and  C_11
REMARK    6  A    between atoms: C_13  and  C_14
REMARK    7  A    between atoms: C_29  and  C_30
REMARK                            x       y       z     vdW  Elec       q    Type
REMARK                         _______ _______ _______ _____ _____    ______ ____
ROOT
ATOM      1  C   UNL     1      -8.151  -2.362 128.489  0.00  0.00    +0.000 C 
ATOM      2  C   UNL     1      -8.466  -3.705 127.850  0.00  0.00    +0.000 C 
ATOM      3  C   UNL     1      -9.048  -3.335 126.479  0.00  0.00    +0.000 C 
ATOM      4  C   UNL     1      -8.795  -1.815 126.259  0.00  0.00    +0.000 C 
ATOM      5  C   UNL     1      -7.700  -1.480 127.304  0.00  0.00    +0.000 C 
ATOM      6  C   UNL     1      -6.309  -1.864 126.738  0.00  0.00    +0.000 C 
ATOM      7  C   UNL     1      -7.694  -0.034 127.824  0.00  0.00    +0.000 C 
ATOM      8  C   UNL     1      -6.761   0.139 129.036  0.00  0.00    +0.000 C 
ATOM      9  C   UNL     1      -7.003  -0.876 130.179  0.00  0.00    +0.000 C 
ATOM     10  C   UNL     1      -7.161  -2.336 129.657  0.00  0.00    +0.000 C 
ATOM     11  C   UNL     1      -7.629  -3.245 130.799  0.00  0.00    +0.000 C 
ATOM     12  C   UNL     1      -6.715  -3.180 132.016  0.00  0.00    +0.000 C 
ATOM     13  C   UNL     1      -6.386  -1.772 132.448  0.00  0.00    +0.000 C 
ATOM     14  C   UNL     1      -6.463  -1.448 133.751  0.00  0.00    +0.000 C 
ATOM     15  C   UNL     1      -5.946  -0.156 134.255  0.00  0.00    +0.000 C 
ATOM     16  O   UNL     1      -6.025   0.103 135.453  0.00  0.00    +0.000 OA
ATOM     17  C   UNL     1      -5.226   0.735 133.278  0.00  0.00    +0.000 C 
ATOM     18  C   UNL     1      -5.899   0.653 131.914  0.00  0.00    +0.000 C 
ATOM     19  C   UNL     1      -5.947  -0.797 131.348  0.00  0.00    +0.000 C 
ATOM     20  C   UNL     1      -4.531  -1.188 130.866  0.00  0.00    +0.000 C 
ENDROOT
BRANCH   4  21
ATOM     21  C   UNL     1      -8.428  -1.504 124.799  0.00  0.00    +0.000 C 
ATOM     22  O   UNL     1      -8.220  -0.349 124.423  0.00  0.00    +0.000 OA
BRANCH  21  23
ATOM     23  C   UNL     1      -8.311  -2.686 123.836  0.00  0.00    +0.000 C 
BRANCH  23  24
ATOM     24  O   UNL     1      -6.997  -3.253 123.890  0.00  0.00    +0.000 OA
BRANCH  24  25
ATOM     25  C   UNL     1      -5.958  -2.771 123.176  0.00  0.00    +0.000 C 
ATOM     26  C   UNL     1      -4.573  -3.261 123.483  0.00  0.00    +0.000 C 
ATOM     27  O   UNL     1      -6.139  -1.932 122.295  0.00  0.00    +0.000 OA
ENDBRANCH  24  25
ENDBRANCH  23  24
ENDBRANCH  21  23
ENDBRANCH   4  21
TORSDOF 4
ENDMDL
MODEL 8
REMARK VINA RESULT:      -7.2      1.795      8.374
REMARK  Name = Desoxycorticosterone acetate
REMARK  7 active torsions:
REMARK  status: ('A' for Active; 'I' for Inactive)
REMARK    1  A    between atoms: C_5  and  C_6
REMARK    2  A    between atoms: C_6  and  C_8
REMARK    3  A    between atoms: C_8  and  O_9
REMARK    4  A    between atoms: O_9  and  C_10
REMARK    5  A    between atoms: C_10  and  C_11
REMARK    6  A    between atoms: C_13  and  C_14
REMARK    7  A    between atoms: C_29  and  C_30
REMARK                            x       y       z     vdW  Elec       q    Type
REMARK                         _______ _______ _______ _____ _____    ______ ____
ROOT
ATOM      1  C   UNL     1      -6.208  -0.988 128.953  0.00  0.00    +0.000 C 
ATOM      2  C   UNL     1      -5.025  -0.259 129.569  0.00  0.00    +0.000 C 
ATOM      3  C   UNL     1      -5.019  -0.731 131.029  0.00  0.00    +0.000 C 
ATOM      4  C   UNL     1      -6.017  -1.919 131.139  0.00  0.00    +0.000 C 
ATOM      5  C   UNL     1      -6.216  -2.358 129.666  0.00  0.00    +0.000 C 
ATOM      6  C   UNL     1      -5.051  -3.287 129.240  0.00  0.00    +0.000 C 
ATOM      7  C   UNL     1      -7.572  -3.003 129.338  0.00  0.00    +0.000 C 
ATOM      8  C   UNL     1      -7.784  -3.161 127.823  0.00  0.00    +0.000 C 
ATOM      9  C   UNL     1      -7.558  -1.866 127.006  0.00  0.00    +0.000 C 
ATOM     10  C   UNL     1      -6.260  -1.114 127.428  0.00  0.00    +0.000 C 
ATOM     11  C   UNL     1      -6.220   0.264 126.757  0.00  0.00    +0.000 C 
ATOM     12  C   UNL     1      -6.357   0.186 125.242  0.00  0.00    +0.000 C 
ATOM     13  C   UNL     1      -7.500  -0.686 124.785  0.00  0.00    +0.000 C 
ATOM     14  C   UNL     1      -8.326  -0.238 123.822  0.00  0.00    +0.000 C 
ATOM     15  C   UNL     1      -9.322  -1.129 123.186  0.00  0.00    +0.000 C 
ATOM     16  O   UNL     1     -10.055  -0.689 122.304  0.00  0.00    +0.000 OA
ATOM     17  C   UNL     1      -9.301  -2.585 123.571  0.00  0.00    +0.000 C 
ATOM     18  C   UNL     1      -8.981  -2.720 125.054  0.00  0.00    +0.000 C 
ATOM     19  C   UNL     1      -7.623  -2.066 125.443  0.00  0.00    +0.000 C 
ATOM     20  C   UNL     1      -6.475  -2.969 124.936  0.00  0.00    +0.000 C 
ENDROOT
BRANCH   4  21
ATOM     21  C   UNL     1      -5.499  -3.013 132.087  0.00  0.00    +0.000 C 
ATOM     22  O   UNL     1      -6.196  -3.984 132.386  0.00  0.00    +0.000 OA
BRANCH  21  23
ATOM     23  C   UNL     1      -4.076  -2.860 132.627  0.00  0.00    +0.000 C 
BRANCH  23  24
ATOM     24  O   UNL     1      -3.332  -4.070 132.438  0.00  0.00    +0.000 OA
BRANCH  24  25
ATOM     25  C   UNL     1      -2.881  -4.823 133.463  0.00  0.00    +0.000 C 
ATOM     26  C   UNL     1      -3.664  -6.036 133.876  0.00  0.00    +0.000 C 
ATOM     27  O   UNL     1      -1.851  -4.515 134.061  0.00  0.00    +0.000 OA
ENDBRANCH  24  25
ENDBRANCH  23  24
ENDBRANCH  21  23
ENDBRANCH   4  21
TORSDOF 4
ENDMDL
MODEL 9
REMARK VINA RESULT:      -7.2      5.324      8.711
REMARK  Name = Desoxycorticosterone acetate
REMARK  7 active torsions:
REMARK  status: ('A' for Active; 'I' for Inactive)
REMARK    1  A    between atoms: C_5  and  C_6
REMARK    2  A    between atoms: C_6  and  C_8
REMARK    3  A    between atoms: C_8  and  O_9
REMARK    4  A    between atoms: O_9  and  C_10
REMARK    5  A    between atoms: C_10  and  C_11
REMARK    6  A    between atoms: C_13  and  C_14
REMARK    7  A    between atoms: C_29  and  C_30
REMARK                            x       y       z     vdW  Elec       q    Type
REMARK                         _______ _______ _______ _____ _____    ______ ____
ROOT
ATOM      1  C   UNL     1      -7.622   1.975 133.293  0.00  0.00    +0.000 C 
ATOM      2  C   UNL     1      -6.398   1.933 134.192  0.00  0.00    +0.000 C 
ATOM      3  C   UNL     1      -6.000   0.451 134.207  0.00  0.00    +0.000 C 
ATOM      4  C   UNL     1      -6.831  -0.266 133.105  0.00  0.00    +0.000 C 
ATOM      5  C   UNL     1      -7.335   0.902 132.220  0.00  0.00    +0.000 C 
ATOM      6  C   UNL     1      -6.227   1.309 131.216  0.00  0.00    +0.000 C 
ATOM      7  C   UNL     1      -8.667   0.661 131.490  0.00  0.00    +0.000 C 
ATOM      8  C   UNL     1      -9.220   1.950 130.857  0.00  0.00    +0.000 C 
ATOM      9  C   UNL     1      -9.314   3.150 131.830  0.00  0.00    +0.000 C 
ATOM     10  C   UNL     1      -8.026   3.324 132.690  0.00  0.00    +0.000 C 
ATOM     11  C   UNL     1      -8.272   4.368 133.785  0.00  0.00    +0.000 C 
ATOM     12  C   UNL     1      -8.760   5.700 133.230  0.00  0.00    +0.000 C 
ATOM     13  C   UNL     1      -9.896   5.562 132.246  0.00  0.00    +0.000 C 
ATOM     14  C   UNL     1     -10.964   6.371 132.357  0.00  0.00    +0.000 C 
ATOM     15  C   UNL     1     -11.999   6.430 131.300  0.00  0.00    +0.000 C 
ATOM     16  O   UNL     1     -12.958   7.186 131.431  0.00  0.00    +0.000 OA
ATOM     17  C   UNL     1     -11.755   5.640 130.042  0.00  0.00    +0.000 C 
ATOM     18  C   UNL     1     -11.078   4.319 130.386  0.00  0.00    +0.000 C 
ATOM     19  C   UNL     1      -9.732   4.507 131.144  0.00  0.00    +0.000 C 
ATOM     20  C   UNL     1      -8.662   4.993 130.139  0.00  0.00    +0.000 C 
ENDROOT
BRANCH   4  21
ATOM     21  C   UNL     1      -6.005  -1.336 132.372  0.00  0.00    +0.000 C 
ATOM     22  O   UNL     1      -4.777  -1.374 132.468  0.00  0.00    +0.000 OA
BRANCH  21  23
ATOM     23  C   UNL     1      -6.769  -2.365 131.537  0.00  0.00    +0.000 C 
BRANCH  23  24
ATOM     24  O   UNL     1      -6.598  -2.106 130.139  0.00  0.00    +0.000 OA
BRANCH  24  25
ATOM     25  C   UNL     1      -7.591  -2.252 129.237  0.00  0.00    +0.000 C 
ATOM     26  C   UNL     1      -7.695  -1.275 128.102  0.00  0.00    +0.000 C 
ATOM     27  O   UNL     1      -8.411  -3.163 129.349  0.00  0.00    +0.000 OA
ENDBRANCH  24  25
ENDBRANCH  23  24
ENDBRANCH  21  23
ENDBRANCH   4  21
TORSDOF 4
ENDMDL
