MODEL 1
REMARK VINA RESULT:      -6.5      0.000      0.000
REMARK  Name = Desvenlafaxine
REMARK  8 active torsions:
REMARK  status: ('A' for Active; 'I' for Inactive)
REMARK    1  A    between atoms: C_1  and  N_2
REMARK    2  A    between atoms: N_2  and  C_3
REMARK    3  A    between atoms: N_2  and  C_4
REMARK    4  A    between atoms: C_4  and  C_5
REMARK    5  A    between atoms: C_5  and  C_6
REMARK    6  A    between atoms: C_5  and  C_13
REMARK    7  A    between atoms: C_9  and  O_10
REMARK    8  A    between atoms: C_13  and  O_14
REMARK                            x       y       z     vdW  Elec       q    Type
REMARK                         _______ _______ _______ _____ _____    ______ ____
ROOT
ATOM      1  C   UNL     1      -8.022  -1.456 125.565  0.00  0.00    +0.000 C 
ENDROOT
BRANCH   1   2
ATOM      2  C   UNL     1      -7.620  -2.233 126.819  0.00  0.00    +0.000 A 
ATOM      3  C   UNL     1      -6.363  -2.029 127.417  0.00  0.00    +0.000 A 
ATOM      4  C   UNL     1      -6.149  -2.466 128.733  0.00  0.00    +0.000 A 
ATOM      5  C   UNL     1      -7.118  -3.210 129.400  0.00  0.00    +0.000 A 
ATOM      6  C   UNL     1      -8.312  -3.522 128.781  0.00  0.00    +0.000 A 
ATOM      7  C   UNL     1      -8.554  -2.983 127.541  0.00  0.00    +0.000 A 
BRANCH   5   8
ATOM      8  O   UNL     1      -7.011  -3.607 130.693  0.00  0.00    +0.000 OA
ATOM      9  H   UNL     1      -7.864  -3.982 130.967  0.00  0.00    +0.000 HD
ENDBRANCH   5   8
ENDBRANCH   1   2
BRANCH   1  10
ATOM     10  C   UNL     1      -8.179  -2.409 124.291  0.00  0.00    +0.000 C 
ATOM     11  C   UNL     1      -7.870  -1.836 122.887  0.00  0.00    +0.000 C 
ATOM     12  C   UNL     1      -6.399  -1.477 122.691  0.00  0.00    +0.000 C 
ATOM     13  C   UNL     1      -5.513  -2.696 122.890  0.00  0.00    +0.000 C 
ATOM     14  C   UNL     1      -5.841  -3.540 124.122  0.00  0.00    +0.000 C 
ATOM     15  C   UNL     1      -7.348  -3.711 124.392  0.00  0.00    +0.000 C 
BRANCH  10  16
ATOM     16  O   UNL     1      -9.572  -2.797 124.253  0.00  0.00    +0.000 OA
ATOM     17  H   UNL     1      -9.624  -3.625 123.739  0.00  0.00    +0.000 HD
ENDBRANCH  10  16
ENDBRANCH   1  10
BRANCH   1  18
ATOM     18  C   UNL     1      -9.258  -0.524 125.797  0.00  0.00    +0.000 C 
BRANCH  18  20
ATOM     19  C   UNL     1      -7.949   1.447 125.471  0.00  0.00    +0.000 C 
ATOM     20  N   UNL     1      -9.328   0.928 125.547  0.00  0.00    +0.000 NA
ATOM     21  C   UNL     1      -9.971   1.254 124.284  0.00  0.00    +0.000 C 
ENDBRANCH  18  20
ENDBRANCH   1  18
TORSDOF 6
ENDMDL
MODEL 2
REMARK VINA RESULT:      -6.2      2.105      4.579
REMARK  Name = Desvenlafaxine
REMARK  8 active torsions:
REMARK  status: ('A' for Active; 'I' for Inactive)
REMARK    1  A    between atoms: C_1  and  N_2
REMARK    2  A    between atoms: N_2  and  C_3
REMARK    3  A    between atoms: N_2  and  C_4
REMARK    4  A    between atoms: C_4  and  C_5
REMARK    5  A    between atoms: C_5  and  C_6
REMARK    6  A    between atoms: C_5  and  C_13
REMARK    7  A    between atoms: C_9  and  O_10
REMARK    8  A    between atoms: C_13  and  O_14
REMARK                            x       y       z     vdW  Elec       q    Type
REMARK                         _______ _______ _______ _____ _____    ______ ____
ROOT
ATOM      1  C   UNL     1      -8.749  -1.751 125.404  0.00  0.00    +0.000 C 
ENDROOT
BRANCH   1   2
ATOM      2  C   UNL     1      -8.682  -0.266 125.045  0.00  0.00    +0.000 A 
ATOM      3  C   UNL     1      -9.727   0.347 124.330  0.00  0.00    +0.000 A 
ATOM      4  C   UNL     1      -9.823   1.747 124.319  0.00  0.00    +0.000 A 
ATOM      5  C   UNL     1      -8.828   2.532 124.895  0.00  0.00    +0.000 A 
ATOM      6  C   UNL     1      -7.733   1.944 125.498  0.00  0.00    +0.000 A 
ATOM      7  C   UNL     1      -7.716   0.575 125.608  0.00  0.00    +0.000 A 
BRANCH   5   8
ATOM      8  O   UNL     1      -8.886   3.884 124.983  0.00  0.00    +0.000 OA
ATOM      9  H   UNL     1      -9.126   4.235 124.110  0.00  0.00    +0.000 HD
ENDBRANCH   5   8
ENDBRANCH   1   2
BRANCH   1  10
ATOM     10  C   UNL     1      -8.572  -2.689 124.122  0.00  0.00    +0.000 C 
ATOM     11  C   UNL     1      -8.138  -2.048 122.782  0.00  0.00    +0.000 C 
ATOM     12  C   UNL     1      -6.722  -1.480 122.814  0.00  0.00    +0.000 C 
ATOM     13  C   UNL     1      -5.710  -2.564 123.148  0.00  0.00    +0.000 C 
ATOM     14  C   UNL     1      -6.097  -3.472 124.316  0.00  0.00    +0.000 C 
ATOM     15  C   UNL     1      -7.588  -3.861 124.351  0.00  0.00    +0.000 C 
BRANCH  10  16
ATOM     16  O   UNL     1      -9.872  -3.271 123.870  0.00  0.00    +0.000 OA
ATOM     17  H   UNL     1     -10.446  -3.022 124.619  0.00  0.00    +0.000 HD
ENDBRANCH  10  16
ENDBRANCH   1  10
BRANCH   1  18
ATOM     18  C   UNL     1      -7.798  -2.135 126.587  0.00  0.00    +0.000 C 
BRANCH  18  20
ATOM     19  C   UNL     1      -8.881  -3.876 127.813  0.00  0.00    +0.000 C 
ATOM     20  N   UNL     1      -8.201  -2.572 127.937  0.00  0.00    +0.000 NA
ATOM     21  C   UNL     1      -7.071  -2.769 128.829  0.00  0.00    +0.000 C 
ENDBRANCH  18  20
ENDBRANCH   1  18
TORSDOF 6
ENDMDL
MODEL 3
REMARK VINA RESULT:      -6.0      2.536      5.426
REMARK  Name = Desvenlafaxine
REMARK  8 active torsions:
REMARK  status: ('A' for Active; 'I' for Inactive)
REMARK    1  A    between atoms: C_1  and  N_2
REMARK    2  A    between atoms: N_2  and  C_3
REMARK    3  A    between atoms: N_2  and  C_4
REMARK    4  A    between atoms: C_4  and  C_5
REMARK    5  A    between atoms: C_5  and  C_6
REMARK    6  A    between atoms: C_5  and  C_13
REMARK    7  A    between atoms: C_9  and  O_10
REMARK    8  A    between atoms: C_13  and  O_14
REMARK                            x       y       z     vdW  Elec       q    Type
REMARK                         _______ _______ _______ _____ _____    ______ ____
ROOT
ATOM      1  C   UNL     1      -7.342  -0.649 125.360  0.00  0.00    +0.000 C 
ENDROOT
BRANCH   1   2
ATOM      2  C   UNL     1      -7.652   0.671 124.653  0.00  0.00    +0.000 A 
ATOM      3  C   UNL     1      -6.636   1.390 123.997  0.00  0.00    +0.000 A 
ATOM      4  C   UNL     1      -6.986   2.385 123.072  0.00  0.00    +0.000 A 
ATOM      5  C   UNL     1      -8.316   2.754 122.895  0.00  0.00    +0.000 A 
ATOM      6  C   UNL     1      -9.317   2.138 123.621  0.00  0.00    +0.000 A 
ATOM      7  C   UNL     1      -8.970   1.084 124.430  0.00  0.00    +0.000 A 
BRANCH   5   8
ATOM      8  O   UNL     1      -8.736   3.656 121.974  0.00  0.00    +0.000 OA
ATOM      9  H   UNL     1      -7.987   3.867 121.392  0.00  0.00    +0.000 HD
ENDBRANCH   5   8
ENDBRANCH   1   2
BRANCH   1  10
ATOM     10  C   UNL     1      -6.956  -1.809 124.328  0.00  0.00    +0.000 C 
ATOM     11  C   UNL     1      -7.254  -3.278 124.711  0.00  0.00    +0.000 C 
ATOM     12  C   UNL     1      -8.747  -3.585 124.812  0.00  0.00    +0.000 C 
ATOM     13  C   UNL     1      -9.449  -3.307 123.493  0.00  0.00    +0.000 C 
ATOM     14  C   UNL     1      -9.078  -1.979 122.831  0.00  0.00    +0.000 C 
ATOM     15  C   UNL     1      -7.584  -1.616 122.927  0.00  0.00    +0.000 C 
BRANCH  10  16
ATOM     16  O   UNL     1      -5.521  -1.735 124.164  0.00  0.00    +0.000 OA
ATOM     17  H   UNL     1      -5.121  -2.084 124.983  0.00  0.00    +0.000 HD
ENDBRANCH  10  16
ENDBRANCH   1  10
BRANCH   1  18
ATOM     18  C   UNL     1      -6.306  -0.487 126.524  0.00  0.00    +0.000 C 
BRANCH  18  20
ATOM     19  C   UNL     1      -7.680  -1.740 128.023  0.00  0.00    +0.000 C 
ATOM     20  N   UNL     1      -6.331  -1.174 127.829  0.00  0.00    +0.000 NA
ATOM     21  C   UNL     1      -5.394  -2.283 127.903  0.00  0.00    +0.000 C 
ENDBRANCH  18  20
ENDBRANCH   1  18
TORSDOF 6
ENDMDL
MODEL 4
REMARK VINA RESULT:      -5.9      2.963      6.239
REMARK  Name = Desvenlafaxine
REMARK  8 active torsions:
REMARK  status: ('A' for Active; 'I' for Inactive)
REMARK    1  A    between atoms: C_1  and  N_2
REMARK    2  A    between atoms: N_2  and  C_3
REMARK    3  A    between atoms: N_2  and  C_4
REMARK    4  A    between atoms: C_4  and  C_5
REMARK    5  A    between atoms: C_5  and  C_6
REMARK    6  A    between atoms: C_5  and  C_13
REMARK    7  A    between atoms: C_9  and  O_10
REMARK    8  A    between atoms: C_13  and  O_14
REMARK                            x       y       z     vdW  Elec       q    Type
REMARK                         _______ _______ _______ _____ _____    ______ ____
ROOT
ATOM      1  C   UNL     1      -7.544  -2.261 130.351  0.00  0.00    +0.000 C 
ENDROOT
BRANCH   1   2
ATOM      2  C   UNL     1      -7.877  -2.517 128.881  0.00  0.00    +0.000 A 
ATOM      3  C   UNL     1      -8.533  -3.699 128.489  0.00  0.00    +0.000 A 
ATOM      4  C   UNL     1      -9.139  -3.762 127.226  0.00  0.00    +0.000 A 
ATOM      5  C   UNL     1      -8.988  -2.722 126.313  0.00  0.00    +0.000 A 
ATOM      6  C   UNL     1      -8.245  -1.604 126.640  0.00  0.00    +0.000 A 
ATOM      7  C   UNL     1      -7.762  -1.505 127.922  0.00  0.00    +0.000 A 
BRANCH   5   8
ATOM      8  O   UNL     1      -9.598  -2.682 125.103  0.00  0.00    +0.000 OA
ATOM      9  H   UNL     1     -10.559  -2.678 125.247  0.00  0.00    +0.000 HD
ENDBRANCH   5   8
ENDBRANCH   1   2
BRANCH   1  10
ATOM     10  C   UNL     1      -5.980  -2.406 130.648  0.00  0.00    +0.000 C 
ATOM     11  C   UNL     1      -5.503  -2.474 132.118  0.00  0.00    +0.000 C 
ATOM     12  C   UNL     1      -5.965  -3.735 132.846  0.00  0.00    +0.000 C 
ATOM     13  C   UNL     1      -5.456  -4.984 132.144  0.00  0.00    +0.000 C 
ATOM     14  C   UNL     1      -5.624  -4.984 130.624  0.00  0.00    +0.000 C 
ATOM     15  C   UNL     1      -5.335  -3.628 129.952  0.00  0.00    +0.000 C 
BRANCH  10  16
ATOM     16  O   UNL     1      -5.357  -1.224 130.093  0.00  0.00    +0.000 OA
ATOM     17  H   UNL     1      -5.557  -0.485 130.698  0.00  0.00    +0.000 HD
ENDBRANCH  10  16
ENDBRANCH   1  10
BRANCH   1  18
ATOM     18  C   UNL     1      -8.155  -0.923 130.890  0.00  0.00    +0.000 C 
BRANCH  18  20
ATOM     19  C   UNL     1      -8.223   1.383 130.271  0.00  0.00    +0.000 C 
ATOM     20  N   UNL     1      -7.461   0.371 131.027  0.00  0.00    +0.000 NA
ATOM     21  C   UNL     1      -7.395   0.834 132.404  0.00  0.00    +0.000 C 
ENDBRANCH  18  20
ENDBRANCH   1  18
TORSDOF 6
ENDMDL
MODEL 5
REMARK VINA RESULT:      -5.4      2.507      5.205
REMARK  Name = Desvenlafaxine
REMARK  8 active torsions:
REMARK  status: ('A' for Active; 'I' for Inactive)
REMARK    1  A    between atoms: C_1  and  N_2
REMARK    2  A    between atoms: N_2  and  C_3
REMARK    3  A    between atoms: N_2  and  C_4
REMARK    4  A    between atoms: C_4  and  C_5
REMARK    5  A    between atoms: C_5  and  C_6
REMARK    6  A    between atoms: C_5  and  C_13
REMARK    7  A    between atoms: C_9  and  O_10
REMARK    8  A    between atoms: C_13  and  O_14
REMARK                            x       y       z     vdW  Elec       q    Type
REMARK                         _______ _______ _______ _____ _____    ______ ____
ROOT
ATOM      1  C   UNL     1      -8.685  -0.393 124.683  0.00  0.00    +0.000 C 
ENDROOT
BRANCH   1   2
ATOM      2  C   UNL     1      -8.342   0.937 124.012  0.00  0.00    +0.000 A 
ATOM      3  C   UNL     1      -7.023   1.426 124.022  0.00  0.00    +0.000 A 
ATOM      4  C   UNL     1      -6.658   2.438 123.122  0.00  0.00    +0.000 A 
ATOM      5  C   UNL     1      -7.613   3.049 122.314  0.00  0.00    +0.000 A 
ATOM      6  C   UNL     1      -8.938   2.660 122.379  0.00  0.00    +0.000 A 
ATOM      7  C   UNL     1      -9.255   1.587 123.175  0.00  0.00    +0.000 A 
BRANCH   5   8
ATOM      8  O   UNL     1      -7.326   3.983 121.374  0.00  0.00    +0.000 OA
ATOM      9  H   UNL     1      -6.616   3.637 120.809  0.00  0.00    +0.000 HD
ENDBRANCH   5   8
ENDBRANCH   1   2
BRANCH   1  10
ATOM     10  C   UNL     1      -8.757  -1.597 123.633  0.00  0.00    +0.000 C 
ATOM     11  C   UNL     1      -7.625  -1.745 122.589  0.00  0.00    +0.000 C 
ATOM     12  C   UNL     1      -6.275  -2.097 123.208  0.00  0.00    +0.000 C 
ATOM     13  C   UNL     1      -6.356  -3.404 123.980  0.00  0.00    +0.000 C 
ATOM     14  C   UNL     1      -7.572  -3.538 124.897  0.00  0.00    +0.000 C 
ATOM     15  C   UNL     1      -8.881  -2.987 124.301  0.00  0.00    +0.000 C 
BRANCH  10  16
ATOM     16  O   UNL     1      -9.966  -1.386 122.866  0.00  0.00    +0.000 OA
ATOM     17  H   UNL     1      -9.745  -0.759 122.152  0.00  0.00    +0.000 HD
ENDBRANCH  10  16
ENDBRANCH   1  10
BRANCH   1  18
ATOM     18  C   UNL     1      -7.775  -0.704 125.919  0.00  0.00    +0.000 C 
BRANCH  18  20
ATOM     19  C   UNL     1      -7.642  -1.575 128.139  0.00  0.00    +0.000 C 
ATOM     20  N   UNL     1      -8.081  -0.419 127.333  0.00  0.00    +0.000 NA
ATOM     21  C   UNL     1      -7.371   0.743 127.842  0.00  0.00    +0.000 C 
ENDBRANCH  18  20
ENDBRANCH   1  18
TORSDOF 6
ENDMDL
MODEL 6
REMARK VINA RESULT:      -5.3      2.827      5.634
REMARK  Name = Desvenlafaxine
REMARK  8 active torsions:
REMARK  status: ('A' for Active; 'I' for Inactive)
REMARK    1  A    between atoms: C_1  and  N_2
REMARK    2  A    between atoms: N_2  and  C_3
REMARK    3  A    between atoms: N_2  and  C_4
REMARK    4  A    between atoms: C_4  and  C_5
REMARK    5  A    between atoms: C_5  and  C_6
REMARK    6  A    between atoms: C_5  and  C_13
REMARK    7  A    between atoms: C_9  and  O_10
REMARK    8  A    between atoms: C_13  and  O_14
REMARK                            x       y       z     vdW  Elec       q    Type
REMARK                         _______ _______ _______ _____ _____    ______ ____
ROOT
ATOM      1  C   UNL     1      -7.971  -0.296 127.592  0.00  0.00    +0.000 C 
ENDROOT
BRANCH   1   2
ATOM      2  C   UNL     1      -8.079   0.534 126.312  0.00  0.00    +0.000 A 
ATOM      3  C   UNL     1      -9.306   0.651 125.635  0.00  0.00    +0.000 A 
ATOM      4  C   UNL     1      -9.475   1.675 124.691  0.00  0.00    +0.000 A 
ATOM      5  C   UNL     1      -8.406   2.489 124.327  0.00  0.00    +0.000 A 
ATOM      6  C   UNL     1      -7.162   2.309 124.898  0.00  0.00    +0.000 A 
ATOM      7  C   UNL     1      -7.044   1.384 125.907  0.00  0.00    +0.000 A 
BRANCH   5   8
ATOM      8  O   UNL     1      -8.510   3.539 123.476  0.00  0.00    +0.000 OA
ATOM      9  H   UNL     1      -7.825   3.446 122.793  0.00  0.00    +0.000 HD
ENDBRANCH   5   8
ENDBRANCH   1   2
BRANCH   1  10
ATOM     10  C   UNL     1      -7.176  -1.663 127.359  0.00  0.00    +0.000 C 
ATOM     11  C   UNL     1      -7.043  -2.659 128.535  0.00  0.00    +0.000 C 
ATOM     12  C   UNL     1      -8.375  -3.270 128.962  0.00  0.00    +0.000 C 
ATOM     13  C   UNL     1      -9.027  -4.014 127.808  0.00  0.00    +0.000 C 
ATOM     14  C   UNL     1      -9.027  -3.264 126.475  0.00  0.00    +0.000 C 
ATOM     15  C   UNL     1      -7.725  -2.497 126.177  0.00  0.00    +0.000 C 
BRANCH  10  16
ATOM     16  O   UNL     1      -5.822  -1.283 127.018  0.00  0.00    +0.000 OA
ATOM     17  H   UNL     1      -5.397  -2.067 126.622  0.00  0.00    +0.000 HD
ENDBRANCH  10  16
ENDBRANCH   1  10
BRANCH   1  18
ATOM     18  C   UNL     1      -7.436   0.531 128.810  0.00  0.00    +0.000 C 
BRANCH  18  20
ATOM     19  C   UNL     1      -8.347  -0.013 130.950  0.00  0.00    +0.000 C 
ATOM     20  N   UNL     1      -8.229   1.054 129.938  0.00  0.00    +0.000 NA
ATOM     21  C   UNL     1      -7.600   2.189 130.594  0.00  0.00    +0.000 C 
ENDBRANCH  18  20
ENDBRANCH   1  18
TORSDOF 6
ENDMDL
MODEL 7
REMARK VINA RESULT:      -5.3      1.856      3.677
REMARK  Name = Desvenlafaxine
REMARK  8 active torsions:
REMARK  status: ('A' for Active; 'I' for Inactive)
REMARK    1  A    between atoms: C_1  and  N_2
REMARK    2  A    between atoms: N_2  and  C_3
REMARK    3  A    between atoms: N_2  and  C_4
REMARK    4  A    between atoms: C_4  and  C_5
REMARK    5  A    between atoms: C_5  and  C_6
REMARK    6  A    between atoms: C_5  and  C_13
REMARK    7  A    between atoms: C_9  and  O_10
REMARK    8  A    between atoms: C_13  and  O_14
REMARK                            x       y       z     vdW  Elec       q    Type
REMARK                         _______ _______ _______ _____ _____    ______ ____
ROOT
ATOM      1  C   UNL     1      -7.714  -2.022 125.286  0.00  0.00    +0.000 C 
ENDROOT
BRANCH   1   2
ATOM      2  C   UNL     1      -7.540  -2.575 126.701  0.00  0.00    +0.000 A 
ATOM      3  C   UNL     1      -6.353  -2.343 127.421  0.00  0.00    +0.000 A 
ATOM      4  C   UNL     1      -6.343  -2.540 128.810  0.00  0.00    +0.000 A 
ATOM      5  C   UNL     1      -7.448  -3.082 129.459  0.00  0.00    +0.000 A 
ATOM      6  C   UNL     1      -8.580  -3.427 128.746  0.00  0.00    +0.000 A 
ATOM      7  C   UNL     1      -8.619  -3.115 127.409  0.00  0.00    +0.000 A 
BRANCH   5   8
ATOM      8  O   UNL     1      -7.537  -3.237 130.803  0.00  0.00    +0.000 OA
ATOM      9  H   UNL     1      -7.296  -2.395 131.223  0.00  0.00    +0.000 HD
ENDBRANCH   5   8
ENDBRANCH   1   2
BRANCH   1  10
ATOM     10  C   UNL     1      -7.384  -0.460 125.205  0.00  0.00    +0.000 C 
ATOM     11  C   UNL     1      -7.679   0.298 123.890  0.00  0.00    +0.000 C 
ATOM     12  C   UNL     1      -9.169   0.390 123.567  0.00  0.00    +0.000 C 
ATOM     13  C   UNL     1      -9.923   1.099 124.680  0.00  0.00    +0.000 C 
ATOM     14  C   UNL     1      -9.568   0.640 126.095  0.00  0.00    +0.000 C 
ATOM     15  C   UNL     1      -8.068   0.370 126.318  0.00  0.00    +0.000 C 
BRANCH  10  16
ATOM     16  O   UNL     1      -5.956  -0.344 125.407  0.00  0.00    +0.000 OA
ATOM     17  H   UNL     1      -5.525  -0.865 124.704  0.00  0.00    +0.000 HD
ENDBRANCH  10  16
ENDBRANCH   1  10
BRANCH   1  18
ATOM     18  C   UNL     1      -6.964  -2.870 124.204  0.00  0.00    +0.000 C 
BRANCH  18  20
ATOM     19  C   UNL     1      -4.830  -3.849 123.765  0.00  0.00    +0.000 C 
ATOM     20  N   UNL     1      -5.620  -2.609 123.654  0.00  0.00    +0.000 NA
ATOM     21  C   UNL     1      -5.646  -2.250 122.245  0.00  0.00    +0.000 C 
ENDBRANCH  18  20
ENDBRANCH   1  18
TORSDOF 6
ENDMDL
MODEL 8
REMARK VINA RESULT:      -5.2      8.008     10.295
REMARK  Name = Desvenlafaxine
REMARK  8 active torsions:
REMARK  status: ('A' for Active; 'I' for Inactive)
REMARK    1  A    between atoms: C_1  and  N_2
REMARK    2  A    between atoms: N_2  and  C_3
REMARK    3  A    between atoms: N_2  and  C_4
REMARK    4  A    between atoms: C_4  and  C_5
REMARK    5  A    between atoms: C_5  and  C_6
REMARK    6  A    between atoms: C_5  and  C_13
REMARK    7  A    between atoms: C_9  and  O_10
REMARK    8  A    between atoms: C_13  and  O_14
REMARK                            x       y       z     vdW  Elec       q    Type
REMARK                         _______ _______ _______ _____ _____    ______ ____
ROOT
ATOM      1  C   UNL     1      -9.078   5.305 131.425  0.00  0.00    +0.000 C 
ENDROOT
BRANCH   1   2
ATOM      2  C   UNL     1     -10.086   6.365 130.980  0.00  0.00    +0.000 A 
ATOM      3  C   UNL     1      -9.763   7.277 129.958  0.00  0.00    +0.000 A 
ATOM      4  C   UNL     1     -10.791   7.992 129.325  0.00  0.00    +0.000 A 
ATOM      5  C   UNL     1     -12.103   7.905 129.783  0.00  0.00    +0.000 A 
ATOM      6  C   UNL     1     -12.417   7.104 130.864  0.00  0.00    +0.000 A 
ATOM      7  C   UNL     1     -11.422   6.318 131.393  0.00  0.00    +0.000 A 
BRANCH   5   8
ATOM      8  O   UNL     1     -13.157   8.511 129.182  0.00  0.00    +0.000 OA
ATOM      9  H   UNL     1     -13.750   8.846 129.875  0.00  0.00    +0.000 HD
ENDBRANCH   5   8
ENDBRANCH   1   2
BRANCH   1  10
ATOM     10  C   UNL     1      -9.080   4.029 130.461  0.00  0.00    +0.000 C 
ATOM     11  C   UNL     1      -7.823   3.129 130.413  0.00  0.00    +0.000 C 
ATOM     12  C   UNL     1      -7.557   2.391 131.723  0.00  0.00    +0.000 C 
ATOM     13  C   UNL     1      -8.736   1.508 132.098  0.00  0.00    +0.000 C 
ATOM     14  C   UNL     1     -10.108   2.170 131.964  0.00  0.00    +0.000 C 
ATOM     15  C   UNL     1     -10.263   3.066 130.721  0.00  0.00    +0.000 C 
BRANCH  10  16
ATOM     16  O   UNL     1      -9.240   4.544 129.119  0.00  0.00    +0.000 OA
ATOM     17  H   UNL     1      -8.888   3.868 128.510  0.00  0.00    +0.000 HD
ENDBRANCH  10  16
ENDBRANCH   1  10
BRANCH   1  18
ATOM     18  C   UNL     1      -7.648   5.891 131.673  0.00  0.00    +0.000 C 
BRANCH  18  20
ATOM     19  C   UNL     1      -7.784   5.346 133.994  0.00  0.00    +0.000 C 
ATOM     20  N   UNL     1      -6.954   6.007 132.969  0.00  0.00    +0.000 NA
ATOM     21  C   UNL     1      -5.661   5.342 132.980  0.00  0.00    +0.000 C 
ENDBRANCH  18  20
ENDBRANCH   1  18
TORSDOF 6
ENDMDL
MODEL 9
REMARK VINA RESULT:      -5.0      1.718      3.734
REMARK  Name = Desvenlafaxine
REMARK  8 active torsions:
REMARK  status: ('A' for Active; 'I' for Inactive)
REMARK    1  A    between atoms: C_1  and  N_2
REMARK    2  A    between atoms: N_2  and  C_3
REMARK    3  A    between atoms: N_2  and  C_4
REMARK    4  A    between atoms: C_4  and  C_5
REMARK    5  A    between atoms: C_5  and  C_6
REMARK    6  A    between atoms: C_5  and  C_13
REMARK    7  A    between atoms: C_9  and  O_10
REMARK    8  A    between atoms: C_13  and  O_14
REMARK                            x       y       z     vdW  Elec       q    Type
REMARK                         _______ _______ _______ _____ _____    ______ ____
ROOT
ATOM      1  C   UNL     1      -7.649  -1.874 125.741  0.00  0.00    +0.000 C 
ENDROOT
BRANCH   1   2
ATOM      2  C   UNL     1      -7.328  -2.250 127.188  0.00  0.00    +0.000 A 
ATOM      3  C   UNL     1      -8.295  -2.872 127.999  0.00  0.00    +0.000 A 
ATOM      4  C   UNL     1      -7.891  -3.521 129.175  0.00  0.00    +0.000 A 
ATOM      5  C   UNL     1      -6.571  -3.446 129.611  0.00  0.00    +0.000 A 
ATOM      6  C   UNL     1      -5.633  -2.738 128.885  0.00  0.00    +0.000 A 
ATOM      7  C   UNL     1      -6.017  -2.212 127.676  0.00  0.00    +0.000 A 
BRANCH   5   8
ATOM      8  O   UNL     1      -6.093  -4.102 130.697  0.00  0.00    +0.000 OA
ATOM      9  H   UNL     1      -6.840  -4.532 131.145  0.00  0.00    +0.000 HD
ENDBRANCH   5   8
ENDBRANCH   1   2
BRANCH   1  10
ATOM     10  C   UNL     1      -8.484  -0.514 125.644  0.00  0.00    +0.000 C 
ATOM     11  C   UNL     1      -8.400   0.499 126.811  0.00  0.00    +0.000 C 
ATOM     12  C   UNL     1      -7.015   1.122 126.972  0.00  0.00    +0.000 C 
ATOM     13  C   UNL     1      -6.599   1.852 125.705  0.00  0.00    +0.000 C 
ATOM     14  C   UNL     1      -6.844   1.084 124.406  0.00  0.00    +0.000 C 
ATOM     15  C   UNL     1      -8.174   0.306 124.369  0.00  0.00    +0.000 C 
BRANCH  10  16
ATOM     16  O   UNL     1      -9.875  -0.904 125.569  0.00  0.00    +0.000 OA
ATOM     17  H   UNL     1     -10.367  -0.139 125.217  0.00  0.00    +0.000 HD
ENDBRANCH  10  16
ENDBRANCH   1  10
BRANCH   1  18
ATOM     18  C   UNL     1      -6.388  -1.893 124.813  0.00  0.00    +0.000 C 
BRANCH  18  20
ATOM     19  C   UNL     1      -6.113  -2.026 122.444  0.00  0.00    +0.000 C 
ATOM     20  N   UNL     1      -6.133  -2.815 123.690  0.00  0.00    +0.000 NA
ATOM     21  C   UNL     1      -4.845  -3.483 123.788  0.00  0.00    +0.000 C 
ENDBRANCH  18  20
ENDBRANCH   1  18
TORSDOF 6
ENDMDL
