MODEL 1
REMARK VINA RESULT:      -7.7      0.000      0.000
REMARK  Name = Deucravacitinib
REMARK  10 active torsions:
REMARK  status: ('A' for Active; 'I' for Inactive)
REMARK    1  A    between atoms: C_2  and  N_5
REMARK    2  A    between atoms: C_6  and  C_8
REMARK    3  A    between atoms: C_9  and  N_10
REMARK    4  A    between atoms: N_10  and  C_11
REMARK    5  A    between atoms: C_15  and  C_16
REMARK    6  A    between atoms: N_18  and  C_19
REMARK    7  A    between atoms: C_22  and  O_23
REMARK    8  A    between atoms: O_23  and  C_24
REMARK    9  A    between atoms: C_26  and  N_27
REMARK   10  A    between atoms: C_28  and  C_30
REMARK                            x       y       z     vdW  Elec       q    Type
REMARK                         _______ _______ _______ _____ _____    ______ ____
ROOT
ATOM      1  C   UNL     1      -6.771   0.753 125.027  0.00  0.00    +0.000 A 
ATOM      2  C   UNL     1      -6.493   2.085 125.409  0.00  0.00    +0.000 A 
ATOM      3  C   UNL     1      -6.638   3.079 124.463  0.00  0.00    +0.000 A 
ATOM      4  C   UNL     1      -6.992   2.667 123.161  0.00  0.00    +0.000 A 
ATOM      5  N   UNL     1      -7.206   1.382 122.844  0.00  0.00    +0.000 NA
ATOM      6  N   UNL     1      -7.111   0.423 123.782  0.00  0.00    +0.000 NA
ENDROOT
BRANCH   1   8
ATOM      7  N   UNL     1      -7.881  -1.093 126.464  0.00  0.00    +0.000 N 
ATOM      8  C   UNL     1      -6.678  -0.342 126.076  0.00  0.00    +0.000 C 
ATOM      9  O   UNL     1      -5.560  -0.611 126.618  0.00  0.00    +0.000 OA
ATOM     10  H   UNL     1      -8.748  -0.885 126.045  0.00  0.00    +0.000 HD
BRANCH   7  12
ATOM     11  H   UNL     1      -8.750  -2.294 127.932  0.00  0.00    +0.000 HD
ATOM     12  C   UNL     1      -7.791  -2.152 127.479  0.00  0.00    +0.000 C 
ATOM     13  H   UNL     1      -7.081  -1.870 128.228  0.00  0.00    +0.000 HD
ATOM     14  H   UNL     1      -7.477  -3.064 127.016  0.00  0.00    +0.000 HD
ENDBRANCH   7  12
ENDBRANCH   1   8
BRANCH   4  15
ATOM     15  N   UNL     1      -7.133   3.687 122.111  0.00  0.00    +0.000 N 
ATOM     16  C   UNL     1      -6.172   3.734 120.999  0.00  0.00    +0.000 C 
ATOM     17  O   UNL     1      -5.220   2.894 120.946  0.00  0.00    +0.000 OA
ATOM     18  H   UNL     1      -7.871   4.336 122.152  0.00  0.00    +0.000 HD
BRANCH  16  19
ATOM     19  C   UNL     1      -6.319   4.787 119.912  0.00  0.00    +0.000 C 
ATOM     20  C   UNL     1      -6.053   5.366 118.521  0.00  0.00    +0.000 C 
ATOM     21  C   UNL     1      -7.310   4.531 118.775  0.00  0.00    +0.000 C 
ENDBRANCH  16  19
ENDBRANCH   4  15
BRANCH   2  22
ATOM     22  N   UNL     1      -6.063   2.403 126.778  0.00  0.00    +0.000 N 
ATOM     23  H   UNL     1      -6.659   2.211 127.539  0.00  0.00    +0.000 HD
BRANCH  22  24
ATOM     24  C   UNL     1      -4.745   3.009 127.013  0.00  0.00    +0.000 A 
ATOM     25  C   UNL     1      -3.569   2.526 126.463  0.00  0.00    +0.000 A 
ATOM     26  C   UNL     1      -2.404   3.174 126.940  0.00  0.00    +0.000 A 
ATOM     27  C   UNL     1      -2.396   4.344 127.552  0.00  0.00    +0.000 A 
ATOM     28  C   UNL     1      -3.601   4.798 128.013  0.00  0.00    +0.000 A 
ATOM     29  C   UNL     1      -4.769   4.146 127.698  0.00  0.00    +0.000 A 
BRANCH  28  30
ATOM     30  C   UNL     1      -3.650   6.042 128.885  0.00  0.00    +0.000 A 
ATOM     31  N   UNL     1      -3.217   5.958 130.134  0.00  0.00    +0.000 NA
ATOM     32  N   UNL     1      -3.312   7.256 130.557  0.00  0.00    +0.000 N 
ATOM     33  C   UNL     1      -2.989   7.562 131.958  0.00  0.00    +0.000 C 
ATOM     34  C   UNL     1      -3.789   8.044 129.568  0.00  0.00    +0.000 A 
ATOM     35  N   UNL     1      -4.006   7.301 128.483  0.00  0.00    +0.000 NA
ENDBRANCH  28  30
BRANCH  29  36
ATOM     36  O   UNL     1      -6.013   4.693 128.109  0.00  0.00    +0.000 OA
ATOM     37  C   UNL     1      -6.490   4.462 129.427  0.00  0.00    +0.000 C 
ENDBRANCH  29  36
ENDBRANCH  22  24
ENDBRANCH   2  22
TORSDOF 8
ENDMDL
MODEL 2
REMARK VINA RESULT:      -7.7      3.996      6.754
REMARK  Name = Deucravacitinib
REMARK  10 active torsions:
REMARK  status: ('A' for Active; 'I' for Inactive)
REMARK    1  A    between atoms: C_2  and  N_5
REMARK    2  A    between atoms: C_6  and  C_8
REMARK    3  A    between atoms: C_9  and  N_10
REMARK    4  A    between atoms: N_10  and  C_11
REMARK    5  A    between atoms: C_15  and  C_16
REMARK    6  A    between atoms: N_18  and  C_19
REMARK    7  A    between atoms: C_22  and  O_23
REMARK    8  A    between atoms: O_23  and  C_24
REMARK    9  A    between atoms: C_26  and  N_27
REMARK   10  A    between atoms: C_28  and  C_30
REMARK                            x       y       z     vdW  Elec       q    Type
REMARK                         _______ _______ _______ _____ _____    ______ ____
ROOT
ATOM      1  C   UNL     1      -4.942   4.961 128.034  0.00  0.00    +0.000 A 
ATOM      2  C   UNL     1      -6.017   4.174 128.504  0.00  0.00    +0.000 A 
ATOM      3  C   UNL     1      -6.674   3.362 127.603  0.00  0.00    +0.000 A 
ATOM      4  C   UNL     1      -6.254   3.437 126.259  0.00  0.00    +0.000 A 
ATOM      5  N   UNL     1      -5.251   4.232 125.860  0.00  0.00    +0.000 NA
ATOM      6  N   UNL     1      -4.582   4.985 126.751  0.00  0.00    +0.000 NA
ENDROOT
BRANCH   1   8
ATOM      7  N   UNL     1      -2.784   5.457 129.377  0.00  0.00    +0.000 N 
ATOM      8  C   UNL     1      -4.168   5.810 129.028  0.00  0.00    +0.000 C 
ATOM      9  O   UNL     1      -4.717   6.828 129.557  0.00  0.00    +0.000 OA
ATOM     10  H   UNL     1      -2.359   4.669 128.967  0.00  0.00    +0.000 HD
BRANCH   7  12
ATOM     11  H   UNL     1      -1.304   6.859 129.818  0.00  0.00    +0.000 HD
ATOM     12  C   UNL     1      -2.036   6.279 130.339  0.00  0.00    +0.000 C 
ATOM     13  H   UNL     1      -1.549   5.643 131.049  0.00  0.00    +0.000 HD
ATOM     14  H   UNL     1      -2.711   6.932 130.851  0.00  0.00    +0.000 HD
ENDBRANCH   7  12
ENDBRANCH   1   8
BRANCH   4  15
ATOM     15  N   UNL     1      -6.941   2.609 125.256  0.00  0.00    +0.000 N 
ATOM     16  C   UNL     1      -8.266   3.007 124.758  0.00  0.00    +0.000 C 
ATOM     17  O   UNL     1      -8.817   4.066 125.195  0.00  0.00    +0.000 OA
ATOM     18  H   UNL     1      -6.513   1.790 124.917  0.00  0.00    +0.000 HD
BRANCH  16  19
ATOM     19  C   UNL     1      -8.975   2.153 123.720  0.00  0.00    +0.000 C 
ATOM     20  C   UNL     1      -9.370   0.819 123.084  0.00  0.00    +0.000 C 
ATOM     21  C   UNL     1     -10.297   1.483 124.105  0.00  0.00    +0.000 C 
ENDBRANCH  16  19
ENDBRANCH   4  15
BRANCH   2  22
ATOM     22  N   UNL     1      -6.423   4.218 129.916  0.00  0.00    +0.000 N 
ATOM     23  H   UNL     1      -5.797   4.554 130.599  0.00  0.00    +0.000 HD
BRANCH  22  24
ATOM     24  C   UNL     1      -7.763   3.762 130.311  0.00  0.00    +0.000 A 
ATOM     25  C   UNL     1      -8.032   2.491 130.791  0.00  0.00    +0.000 A 
ATOM     26  C   UNL     1      -9.411   2.225 130.968  0.00  0.00    +0.000 A 
ATOM     27  C   UNL     1     -10.349   3.151 131.038  0.00  0.00    +0.000 A 
ATOM     28  C   UNL     1     -10.001   4.403 130.612  0.00  0.00    +0.000 A 
ATOM     29  C   UNL     1      -8.699   4.704 130.295  0.00  0.00    +0.000 A 
BRANCH  28  30
ATOM     30  C   UNL     1     -11.070   5.476 130.487  0.00  0.00    +0.000 A 
ATOM     31  N   UNL     1     -11.704   5.610 129.332  0.00  0.00    +0.000 NA
ATOM     32  N   UNL     1     -12.635   6.569 129.625  0.00  0.00    +0.000 N 
ATOM     33  C   UNL     1     -13.501   7.059 128.544  0.00  0.00    +0.000 C 
ATOM     34  C   UNL     1     -12.520   6.963 130.913  0.00  0.00    +0.000 A 
ATOM     35  N   UNL     1     -11.536   6.278 131.495  0.00  0.00    +0.000 NA
ENDBRANCH  28  30
BRANCH  29  36
ATOM     36  O   UNL     1      -8.349   6.037 129.948  0.00  0.00    +0.000 OA
ATOM     37  C   UNL     1      -7.951   6.953 130.958  0.00  0.00    +0.000 C 
ENDBRANCH  29  36
ENDBRANCH  22  24
ENDBRANCH   2  22
TORSDOF 8
ENDMDL
MODEL 3
REMARK VINA RESULT:      -7.5      4.411      7.016
REMARK  Name = Deucravacitinib
REMARK  10 active torsions:
REMARK  status: ('A' for Active; 'I' for Inactive)
REMARK    1  A    between atoms: C_2  and  N_5
REMARK    2  A    between atoms: C_6  and  C_8
REMARK    3  A    between atoms: C_9  and  N_10
REMARK    4  A    between atoms: N_10  and  C_11
REMARK    5  A    between atoms: C_15  and  C_16
REMARK    6  A    between atoms: N_18  and  C_19
REMARK    7  A    between atoms: C_22  and  O_23
REMARK    8  A    between atoms: O_23  and  C_24
REMARK    9  A    between atoms: C_26  and  N_27
REMARK   10  A    between atoms: C_28  and  C_30
REMARK                            x       y       z     vdW  Elec       q    Type
REMARK                         _______ _______ _______ _____ _____    ______ ____
ROOT
ATOM      1  C   UNL     1      -9.416   2.972 131.197  0.00  0.00    +0.000 A 
ATOM      2  C   UNL     1      -8.744   4.201 131.379  0.00  0.00    +0.000 A 
ATOM      3  C   UNL     1      -9.419   5.365 131.073  0.00  0.00    +0.000 A 
ATOM      4  C   UNL     1     -10.715   5.222 130.535  0.00  0.00    +0.000 A 
ATOM      5  N   UNL     1     -11.290   4.026 130.347  0.00  0.00    +0.000 NA
ATOM      6  N   UNL     1     -10.647   2.898 130.693  0.00  0.00    +0.000 NA
ENDROOT
BRANCH   1   8
ATOM      7  N   UNL     1      -8.469   0.639 130.588  0.00  0.00    +0.000 N 
ATOM      8  C   UNL     1      -8.708   1.686 131.592  0.00  0.00    +0.000 C 
ATOM      9  O   UNL     1      -8.320   1.517 132.791  0.00  0.00    +0.000 OA
ATOM     10  H   UNL     1      -8.770   0.770 129.660  0.00  0.00    +0.000 HD
BRANCH   7  12
ATOM     11  H   UNL     1      -7.031  -0.833 130.246  0.00  0.00    +0.000 HD
ATOM     12  C   UNL     1      -7.785  -0.604 130.971  0.00  0.00    +0.000 C 
ATOM     13  H   UNL     1      -8.494  -1.404 131.013  0.00  0.00    +0.000 HD
ATOM     14  H   UNL     1      -7.330  -0.480 131.931  0.00  0.00    +0.000 HD
ENDBRANCH   7  12
ENDBRANCH   1   8
BRANCH   4  15
ATOM     15  N   UNL     1     -11.466   6.433 130.168  0.00  0.00    +0.000 N 
ATOM     16  C   UNL     1     -11.320   7.008 128.823  0.00  0.00    +0.000 C 
ATOM     17  O   UNL     1     -10.546   6.459 127.978  0.00  0.00    +0.000 OA
ATOM     18  H   UNL     1     -12.066   6.857 130.823  0.00  0.00    +0.000 HD
BRANCH  16  19
ATOM     19  C   UNL     1     -12.097   8.258 128.443  0.00  0.00    +0.000 C 
ATOM     20  C   UNL     1     -13.382   9.062 128.239  0.00  0.00    +0.000 C 
ATOM     21  C   UNL     1     -12.620   9.161 129.562  0.00  0.00    +0.000 C 
ENDBRANCH  16  19
ENDBRANCH   4  15
BRANCH   2  22
ATOM     22  N   UNL     1      -7.364   4.240 131.883  0.00  0.00    +0.000 N 
ATOM     23  H   UNL     1      -7.101   3.672 132.644  0.00  0.00    +0.000 HD
BRANCH  22  24
ATOM     24  C   UNL     1      -6.376   5.125 131.252  0.00  0.00    +0.000 A 
ATOM     25  C   UNL     1      -5.998   6.351 131.774  0.00  0.00    +0.000 A 
ATOM     26  C   UNL     1      -5.144   7.098 130.927  0.00  0.00    +0.000 A 
ATOM     27  C   UNL     1      -4.460   6.590 129.918  0.00  0.00    +0.000 A 
ATOM     28  C   UNL     1      -4.838   5.346 129.492  0.00  0.00    +0.000 A 
ATOM     29  C   UNL     1      -5.762   4.610 130.193  0.00  0.00    +0.000 A 
BRANCH  28  30
ATOM     30  C   UNL     1      -4.227   4.770 128.225  0.00  0.00    +0.000 A 
ATOM     31  N   UNL     1      -3.042   4.181 128.303  0.00  0.00    +0.000 NA
ATOM     32  N   UNL     1      -2.873   3.709 127.030  0.00  0.00    +0.000 N 
ATOM     33  C   UNL     1      -1.606   3.048 126.691  0.00  0.00    +0.000 C 
ATOM     34  C   UNL     1      -3.937   4.029 126.260  0.00  0.00    +0.000 A 
ATOM     35  N   UNL     1      -4.824   4.699 126.996  0.00  0.00    +0.000 NA
ENDBRANCH  28  30
BRANCH  29  36
ATOM     36  O   UNL     1      -6.064   3.284 129.782  0.00  0.00    +0.000 OA
ATOM     37  C   UNL     1      -5.267   2.200 130.237  0.00  0.00    +0.000 C 
ENDBRANCH  29  36
ENDBRANCH  22  24
ENDBRANCH   2  22
TORSDOF 8
ENDMDL
MODEL 4
REMARK VINA RESULT:      -7.4      2.604      7.704
REMARK  Name = Deucravacitinib
REMARK  10 active torsions:
REMARK  status: ('A' for Active; 'I' for Inactive)
REMARK    1  A    between atoms: C_2  and  N_5
REMARK    2  A    between atoms: C_6  and  C_8
REMARK    3  A    between atoms: C_9  and  N_10
REMARK    4  A    between atoms: N_10  and  C_11
REMARK    5  A    between atoms: C_15  and  C_16
REMARK    6  A    between atoms: N_18  and  C_19
REMARK    7  A    between atoms: C_22  and  O_23
REMARK    8  A    between atoms: O_23  and  C_24
REMARK    9  A    between atoms: C_26  and  N_27
REMARK   10  A    between atoms: C_28  and  C_30
REMARK                            x       y       z     vdW  Elec       q    Type
REMARK                         _______ _______ _______ _____ _____    ______ ____
ROOT
ATOM      1  C   UNL     1      -6.980   3.381 123.197  0.00  0.00    +0.000 A 
ATOM      2  C   UNL     1      -6.932   2.492 124.294  0.00  0.00    +0.000 A 
ATOM      3  C   UNL     1      -5.937   2.668 125.233  0.00  0.00    +0.000 A 
ATOM      4  C   UNL     1      -5.002   3.693 124.981  0.00  0.00    +0.000 A 
ATOM      5  N   UNL     1      -5.073   4.484 123.901  0.00  0.00    +0.000 NA
ATOM      6  N   UNL     1      -6.073   4.340 123.014  0.00  0.00    +0.000 NA
ENDROOT
BRANCH   1   8
ATOM      7  N   UNL     1      -8.060   3.979 120.920  0.00  0.00    +0.000 N 
ATOM      8  C   UNL     1      -8.109   3.239 122.189  0.00  0.00    +0.000 C 
ATOM      9  O   UNL     1      -9.095   2.478 122.443  0.00  0.00    +0.000 OA
ATOM     10  H   UNL     1      -7.296   4.569 120.724  0.00  0.00    +0.000 HD
BRANCH   7  12
ATOM     11  H   UNL     1      -8.742   3.718 118.966  0.00  0.00    +0.000 HD
ATOM     12  C   UNL     1      -9.152   3.842 119.946  0.00  0.00    +0.000 C 
ATOM     13  H   UNL     1      -9.764   4.719 119.970  0.00  0.00    +0.000 HD
ATOM     14  H   UNL     1      -9.746   2.987 120.195  0.00  0.00    +0.000 HD
ENDBRANCH   7  12
ENDBRANCH   1   8
BRANCH   4  15
ATOM     15  N   UNL     1      -3.908   3.904 125.941  0.00  0.00    +0.000 N 
ATOM     16  C   UNL     1      -4.066   4.876 127.033  0.00  0.00    +0.000 C 
ATOM     17  O   UNL     1      -5.147   5.533 127.147  0.00  0.00    +0.000 OA
ATOM     18  H   UNL     1      -3.071   3.394 125.852  0.00  0.00    +0.000 HD
BRANCH  16  19
ATOM     19  C   UNL     1      -2.935   5.092 128.026  0.00  0.00    +0.000 C 
ATOM     20  C   UNL     1      -2.223   5.855 129.145  0.00  0.00    +0.000 C 
ATOM     21  C   UNL     1      -3.157   4.692 129.486  0.00  0.00    +0.000 C 
ENDBRANCH  16  19
ENDBRANCH   4  15
BRANCH   2  22
ATOM     22  N   UNL     1      -7.917   1.409 124.431  0.00  0.00    +0.000 N 
ATOM     23  H   UNL     1      -8.874   1.622 124.523  0.00  0.00    +0.000 HD
BRANCH  22  24
ATOM     24  C   UNL     1      -7.473   0.008 124.430  0.00  0.00    +0.000 A 
ATOM     25  C   UNL     1      -6.752  -0.569 123.398  0.00  0.00    +0.000 A 
ATOM     26  C   UNL     1      -6.560  -1.965 123.543  0.00  0.00    +0.000 A 
ATOM     27  C   UNL     1      -6.704  -2.626 124.676  0.00  0.00    +0.000 A 
ATOM     28  C   UNL     1      -7.366  -1.976 125.680  0.00  0.00    +0.000 A 
ATOM     29  C   UNL     1      -7.703  -0.649 125.561  0.00  0.00    +0.000 A 
BRANCH  28  30
ATOM     30  C   UNL     1      -7.734  -2.730 126.948  0.00  0.00    +0.000 A 
ATOM     31  N   UNL     1      -6.907  -2.676 127.982  0.00  0.00    +0.000 NA
ATOM     32  N   UNL     1      -7.601  -3.363 128.940  0.00  0.00    +0.000 N 
ATOM     33  C   UNL     1      -6.958  -3.593 130.241  0.00  0.00    +0.000 C 
ATOM     34  C   UNL     1      -8.786  -3.792 128.451  0.00  0.00    +0.000 A 
ATOM     35  N   UNL     1      -8.906  -3.396 127.184  0.00  0.00    +0.000 NA
ENDBRANCH  28  30
BRANCH  29  36
ATOM     36  O   UNL     1      -8.305   0.026 126.656  0.00  0.00    +0.000 OA
ATOM     37  C   UNL     1      -7.491   0.652 127.637  0.00  0.00    +0.000 C 
ENDBRANCH  29  36
ENDBRANCH  22  24
ENDBRANCH   2  22
TORSDOF 8
ENDMDL
MODEL 5
REMARK VINA RESULT:      -7.3      4.981      9.205
REMARK  Name = Deucravacitinib
REMARK  10 active torsions:
REMARK  status: ('A' for Active; 'I' for Inactive)
REMARK    1  A    between atoms: C_2  and  N_5
REMARK    2  A    between atoms: C_6  and  C_8
REMARK    3  A    between atoms: C_9  and  N_10
REMARK    4  A    between atoms: N_10  and  C_11
REMARK    5  A    between atoms: C_15  and  C_16
REMARK    6  A    between atoms: N_18  and  C_19
REMARK    7  A    between atoms: C_22  and  O_23
REMARK    8  A    between atoms: O_23  and  C_24
REMARK    9  A    between atoms: C_26  and  N_27
REMARK   10  A    between atoms: C_28  and  C_30
REMARK                            x       y       z     vdW  Elec       q    Type
REMARK                         _______ _______ _______ _____ _____    ______ ____
ROOT
ATOM      1  C   UNL     1      -7.302  -0.562 131.794  0.00  0.00    +0.000 A 
ATOM      2  C   UNL     1      -7.401  -0.194 130.434  0.00  0.00    +0.000 A 
ATOM      3  C   UNL     1      -8.112   0.944 130.116  0.00  0.00    +0.000 A 
ATOM      4  C   UNL     1      -8.743   1.616 131.184  0.00  0.00    +0.000 A 
ATOM      5  N   UNL     1      -8.648   1.199 132.454  0.00  0.00    +0.000 NA
ATOM      6  N   UNL     1      -7.913   0.117 132.764  0.00  0.00    +0.000 NA
ENDROOT
BRANCH   1   8
ATOM      7  N   UNL     1      -7.088  -2.911 132.864  0.00  0.00    +0.000 N 
ATOM      8  C   UNL     1      -6.468  -1.777 132.164  0.00  0.00    +0.000 C 
ATOM      9  O   UNL     1      -5.232  -1.814 131.867  0.00  0.00    +0.000 OA
ATOM     10  H   UNL     1      -8.046  -2.883 133.094  0.00  0.00    +0.000 HD
BRANCH   7  12
ATOM     11  H   UNL     1      -6.651  -4.945 132.703  0.00  0.00    +0.000 HD
ATOM     12  C   UNL     1      -6.281  -4.086 133.222  0.00  0.00    +0.000 C 
ATOM     13  H   UNL     1      -6.342  -4.253 134.278  0.00  0.00    +0.000 HD
ATOM     14  H   UNL     1      -5.261  -3.915 132.947  0.00  0.00    +0.000 HD
ENDBRANCH   7  12
ENDBRANCH   1   8
BRANCH   4  15
ATOM     15  N   UNL     1      -9.535   2.820 130.892  0.00  0.00    +0.000 N 
ATOM     16  C   UNL     1      -8.907   4.148 130.969  0.00  0.00    +0.000 C 
ATOM     17  O   UNL     1      -7.681   4.254 131.287  0.00  0.00    +0.000 OA
ATOM     18  H   UNL     1     -10.484   2.738 130.645  0.00  0.00    +0.000 HD
BRANCH  16  19
ATOM     19  C   UNL     1      -9.725   5.393 130.667  0.00  0.00    +0.000 C 
ATOM     20  C   UNL     1     -10.621   6.570 131.056  0.00  0.00    +0.000 C 
ATOM     21  C   UNL     1      -9.106   6.762 130.956  0.00  0.00    +0.000 C 
ENDBRANCH  16  19
ENDBRANCH   4  15
BRANCH   2  22
ATOM     22  N   UNL     1      -6.762  -1.002 129.385  0.00  0.00    +0.000 N 
ATOM     23  H   UNL     1      -5.793  -0.925 129.226  0.00  0.00    +0.000 HD
BRANCH  22  24
ATOM     24  C   UNL     1      -7.568  -1.925 128.574  0.00  0.00    +0.000 A 
ATOM     25  C   UNL     1      -8.218  -3.034 129.091  0.00  0.00    +0.000 A 
ATOM     26  C   UNL     1      -8.812  -3.861 128.106  0.00  0.00    +0.000 A 
ATOM     27  C   UNL     1      -9.068  -3.483 126.867  0.00  0.00    +0.000 A 
ATOM     28  C   UNL     1      -8.448  -2.342 126.439  0.00  0.00    +0.000 A 
ATOM     29  C   UNL     1      -7.740  -1.552 127.312  0.00  0.00    +0.000 A 
BRANCH  28  30
ATOM     30  C   UNL     1      -8.543  -1.942 124.975  0.00  0.00    +0.000 A 
ATOM     31  N   UNL     1      -9.420  -1.012 124.627  0.00  0.00    +0.000 NA
ATOM     32  N   UNL     1      -9.150  -0.846 123.297  0.00  0.00    +0.000 N 
ATOM     33  C   UNL     1      -9.994   0.070 122.518  0.00  0.00    +0.000 C 
ATOM     34  C   UNL     1      -8.147  -1.666 122.911  0.00  0.00    +0.000 A 
ATOM     35  N   UNL     1      -7.730  -2.373 123.962  0.00  0.00    +0.000 NA
ENDBRANCH  28  30
BRANCH  29  36
ATOM     36  O   UNL     1      -7.188  -0.324 126.860  0.00  0.00    +0.000 OA
ATOM     37  C   UNL     1      -5.882  -0.295 126.302  0.00  0.00    +0.000 C 
ENDBRANCH  29  36
ENDBRANCH  22  24
ENDBRANCH   2  22
TORSDOF 8
ENDMDL
MODEL 6
REMARK VINA RESULT:      -7.3      5.508      9.165
REMARK  Name = Deucravacitinib
REMARK  10 active torsions:
REMARK  status: ('A' for Active; 'I' for Inactive)
REMARK    1  A    between atoms: C_2  and  N_5
REMARK    2  A    between atoms: C_6  and  C_8
REMARK    3  A    between atoms: C_9  and  N_10
REMARK    4  A    between atoms: N_10  and  C_11
REMARK    5  A    between atoms: C_15  and  C_16
REMARK    6  A    between atoms: N_18  and  C_19
REMARK    7  A    between atoms: C_22  and  O_23
REMARK    8  A    between atoms: O_23  and  C_24
REMARK    9  A    between atoms: C_26  and  N_27
REMARK   10  A    between atoms: C_28  and  C_30
REMARK                            x       y       z     vdW  Elec       q    Type
REMARK                         _______ _______ _______ _____ _____    ______ ____
ROOT
ATOM      1  C   UNL     1      -7.640   0.927 132.140  0.00  0.00    +0.000 A 
ATOM      2  C   UNL     1      -7.847   1.082 130.751  0.00  0.00    +0.000 A 
ATOM      3  C   UNL     1      -8.843   1.938 130.331  0.00  0.00    +0.000 A 
ATOM      4  C   UNL     1      -9.624   2.544 131.338  0.00  0.00    +0.000 A 
ATOM      5  N   UNL     1      -9.408   2.330 132.644  0.00  0.00    +0.000 NA
ATOM      6  N   UNL     1      -8.404   1.533 133.048  0.00  0.00    +0.000 NA
ENDROOT
BRANCH   1   8
ATOM      7  N   UNL     1      -6.791  -1.149 133.434  0.00  0.00    +0.000 N 
ATOM      8  C   UNL     1      -6.504   0.037 132.615  0.00  0.00    +0.000 C 
ATOM      9  O   UNL     1      -5.303   0.318 132.304  0.00  0.00    +0.000 OA
ATOM     10  H   UNL     1      -7.720  -1.367 133.676  0.00  0.00    +0.000 HD
BRANCH   7  12
ATOM     11  H   UNL     1      -4.966  -2.108 133.114  0.00  0.00    +0.000 HD
ATOM     12  C   UNL     1      -5.692  -2.009 133.894  0.00  0.00    +0.000 C 
ATOM     13  H   UNL     1      -6.076  -2.975 134.149  0.00  0.00    +0.000 HD
ATOM     14  H   UNL     1      -5.232  -1.571 134.756  0.00  0.00    +0.000 HD
ENDBRANCH   7  12
ENDBRANCH   1   8
BRANCH   4  15
ATOM     15  N   UNL     1     -10.716   3.445 130.940  0.00  0.00    +0.000 N 
ATOM     16  C   UNL     1     -10.462   4.886 130.792  0.00  0.00    +0.000 C 
ATOM     17  O   UNL     1      -9.299   5.351 131.009  0.00  0.00    +0.000 OA
ATOM     18  H   UNL     1     -11.615   3.084 130.771  0.00  0.00    +0.000 HD
BRANCH  16  19
ATOM     19  C   UNL     1     -11.590   5.818 130.380  0.00  0.00    +0.000 C 
ATOM     20  C   UNL     1     -12.607   6.932 130.634  0.00  0.00    +0.000 C 
ATOM     21  C   UNL     1     -11.247   7.263 130.015  0.00  0.00    +0.000 C 
ENDBRANCH  16  19
ENDBRANCH   4  15
BRANCH   2  22
ATOM     22  N   UNL     1      -7.021   0.350 129.779  0.00  0.00    +0.000 N 
ATOM     23  H   UNL     1      -6.132   0.695 129.530  0.00  0.00    +0.000 HD
BRANCH  22  24
ATOM     24  C   UNL     1      -7.521  -0.894 129.179  0.00  0.00    +0.000 A 
ATOM     25  C   UNL     1      -7.919  -1.997 129.917  0.00  0.00    +0.000 A 
ATOM     26  C   UNL     1      -8.225  -3.134 129.130  0.00  0.00    +0.000 A 
ATOM     27  C   UNL     1      -8.475  -3.102 127.833  0.00  0.00    +0.000 A 
ATOM     28  C   UNL     1      -8.120  -1.957 127.174  0.00  0.00    +0.000 A 
ATOM     29  C   UNL     1      -7.688  -0.850 127.862  0.00  0.00    +0.000 A 
BRANCH  28  30
ATOM     30  C   UNL     1      -8.205  -1.910 125.657  0.00  0.00    +0.000 A 
ATOM     31  N   UNL     1      -7.079  -1.885 124.959  0.00  0.00    +0.000 NA
ATOM     32  N   UNL     1      -7.539  -1.952 123.672  0.00  0.00    +0.000 N 
ATOM     33  C   UNL     1      -6.565  -1.865 122.575  0.00  0.00    +0.000 C 
ATOM     34  C   UNL     1      -8.889  -2.011 123.653  0.00  0.00    +0.000 A 
ATOM     35  N   UNL     1      -9.345  -1.996 124.906  0.00  0.00    +0.000 NA
ENDBRANCH  28  30
BRANCH  29  36
ATOM     36  O   UNL     1      -7.418   0.355 127.160  0.00  0.00    +0.000 OA
ATOM     37  C   UNL     1      -8.483   1.221 126.799  0.00  0.00    +0.000 C 
ENDBRANCH  29  36
ENDBRANCH  22  24
ENDBRANCH   2  22
TORSDOF 8
ENDMDL
MODEL 7
REMARK VINA RESULT:      -7.2      6.766      8.880
REMARK  Name = Deucravacitinib
REMARK  10 active torsions:
REMARK  status: ('A' for Active; 'I' for Inactive)
REMARK    1  A    between atoms: C_2  and  N_5
REMARK    2  A    between atoms: C_6  and  C_8
REMARK    3  A    between atoms: C_9  and  N_10
REMARK    4  A    between atoms: N_10  and  C_11
REMARK    5  A    between atoms: C_15  and  C_16
REMARK    6  A    between atoms: N_18  and  C_19
REMARK    7  A    between atoms: C_22  and  O_23
REMARK    8  A    between atoms: O_23  and  C_24
REMARK    9  A    between atoms: C_26  and  N_27
REMARK   10  A    between atoms: C_28  and  C_30
REMARK                            x       y       z     vdW  Elec       q    Type
REMARK                         _______ _______ _______ _____ _____    ______ ____
ROOT
ATOM      1  C   UNL     1      -6.950   6.182 131.719  0.00  0.00    +0.000 A 
ATOM      2  C   UNL     1      -8.139   5.516 132.094  0.00  0.00    +0.000 A 
ATOM      3  C   UNL     1      -9.319   5.900 131.493  0.00  0.00    +0.000 A 
ATOM      4  C   UNL     1      -9.248   6.982 130.591  0.00  0.00    +0.000 A 
ATOM      5  N   UNL     1      -8.096   7.604 130.300  0.00  0.00    +0.000 NA
ATOM      6  N   UNL     1      -6.941   7.194 130.852  0.00  0.00    +0.000 NA
ENDROOT
BRANCH   1   8
ATOM      7  N   UNL     1      -4.735   4.851 131.559  0.00  0.00    +0.000 N 
ATOM      8  C   UNL     1      -5.634   5.725 132.325  0.00  0.00    +0.000 C 
ATOM      9  O   UNL     1      -5.309   6.100 133.496  0.00  0.00    +0.000 OA
ATOM     10  H   UNL     1      -4.986   4.560 130.652  0.00  0.00    +0.000 HD
BRANCH   7  12
ATOM     11  H   UNL     1      -3.431   4.683 133.180  0.00  0.00    +0.000 HD
ATOM     12  C   UNL     1      -3.462   4.409 132.146  0.00  0.00    +0.000 C 
ATOM     13  H   UNL     1      -2.649   4.875 131.628  0.00  0.00    +0.000 HD
ATOM     14  H   UNL     1      -3.377   3.346 132.056  0.00  0.00    +0.000 HD
ENDBRANCH   7  12
ENDBRANCH   1   8
BRANCH   4  15
ATOM     15  N   UNL     1     -10.485   7.446 129.944  0.00  0.00    +0.000 N 
ATOM     16  C   UNL     1     -10.759   7.089 128.544  0.00  0.00    +0.000 C 
ATOM     17  O   UNL     1      -9.927   6.382 127.894  0.00  0.00    +0.000 OA
ATOM     18  H   UNL     1     -11.129   7.993 130.448  0.00  0.00    +0.000 HD
BRANCH  16  19
ATOM     19  C   UNL     1     -12.037   7.567 127.875  0.00  0.00    +0.000 C 
ATOM     20  C   UNL     1     -13.558   7.686 127.755  0.00  0.00    +0.000 C 
ATOM     21  C   UNL     1     -12.758   8.783 128.460  0.00  0.00    +0.000 C 
ENDBRANCH  16  19
ENDBRANCH   4  15
BRANCH   2  22
ATOM     22  N   UNL     1      -8.117   4.443 133.098  0.00  0.00    +0.000 N 
ATOM     23  H   UNL     1      -7.881   4.647 134.033  0.00  0.00    +0.000 HD
BRANCH  22  24
ATOM     24  C   UNL     1      -8.448   3.065 132.709  0.00  0.00    +0.000 A 
ATOM     25  C   UNL     1      -9.636   2.704 132.093  0.00  0.00    +0.000 A 
ATOM     26  C   UNL     1      -9.802   1.307 131.942  0.00  0.00    +0.000 A 
ATOM     27  C   UNL     1      -8.823   0.423 132.021  0.00  0.00    +0.000 A 
ATOM     28  C   UNL     1      -7.653   0.860 132.577  0.00  0.00    +0.000 A 
ATOM     29  C   UNL     1      -7.464   2.188 132.873  0.00  0.00    +0.000 A 
BRANCH  28  30
ATOM     30  C   UNL     1      -6.545  -0.137 132.871  0.00  0.00    +0.000 A 
ATOM     31  N   UNL     1      -6.617  -0.858 133.980  0.00  0.00    +0.000 NA
ATOM     32  N   UNL     1      -5.539  -1.690 133.852  0.00  0.00    +0.000 N 
ATOM     33  C   UNL     1      -5.228  -2.609 134.955  0.00  0.00    +0.000 C 
ATOM     34  C   UNL     1      -4.880  -1.439 132.699  0.00  0.00    +0.000 A 
ATOM     35  N   UNL     1      -5.502  -0.459 132.044  0.00  0.00    +0.000 NA
ENDBRANCH  28  30
BRANCH  29  36
ATOM     36  O   UNL     1      -6.204   2.628 133.360  0.00  0.00    +0.000 OA
ATOM     37  C   UNL     1      -5.969   2.697 134.759  0.00  0.00    +0.000 C 
ENDBRANCH  29  36
ENDBRANCH  22  24
ENDBRANCH   2  22
TORSDOF 8
ENDMDL
MODEL 8
REMARK VINA RESULT:      -7.2      5.228      8.738
REMARK  Name = Deucravacitinib
REMARK  10 active torsions:
REMARK  status: ('A' for Active; 'I' for Inactive)
REMARK    1  A    between atoms: C_2  and  N_5
REMARK    2  A    between atoms: C_6  and  C_8
REMARK    3  A    between atoms: C_9  and  N_10
REMARK    4  A    between atoms: N_10  and  C_11
REMARK    5  A    between atoms: C_15  and  C_16
REMARK    6  A    between atoms: N_18  and  C_19
REMARK    7  A    between atoms: C_22  and  O_23
REMARK    8  A    between atoms: O_23  and  C_24
REMARK    9  A    between atoms: C_26  and  N_27
REMARK   10  A    between atoms: C_28  and  C_30
REMARK                            x       y       z     vdW  Elec       q    Type
REMARK                         _______ _______ _______ _____ _____    ______ ____
ROOT
ATOM      1  C   UNL     1      -6.795   5.334 130.147  0.00  0.00    +0.000 A 
ATOM      2  C   UNL     1      -7.905   4.558 129.744  0.00  0.00    +0.000 A 
ATOM      3  C   UNL     1      -9.149   5.153 129.739  0.00  0.00    +0.000 A 
ATOM      4  C   UNL     1      -9.218   6.482 130.206  0.00  0.00    +0.000 A 
ATOM      5  N   UNL     1      -8.135   7.160 130.614  0.00  0.00    +0.000 NA
ATOM      6  N   UNL     1      -6.918   6.591 130.571  0.00  0.00    +0.000 NA
ENDROOT
BRANCH   1   8
ATOM      7  N   UNL     1      -4.383   5.273 129.207  0.00  0.00    +0.000 N 
ATOM      8  C   UNL     1      -5.410   4.711 130.096  0.00  0.00    +0.000 C 
ATOM      9  O   UNL     1      -5.138   3.703 130.822  0.00  0.00    +0.000 OA
ATOM     10  H   UNL     1      -4.593   6.053 128.644  0.00  0.00    +0.000 HD
BRANCH   7  12
ATOM     11  H   UNL     1      -2.925   3.995 129.978  0.00  0.00    +0.000 HD
ATOM     12  C   UNL     1      -3.043   4.669 129.156  0.00  0.00    +0.000 C 
ATOM     13  H   UNL     1      -2.303   5.439 129.217  0.00  0.00    +0.000 HD
ATOM     14  H   UNL     1      -2.927   4.135 128.236  0.00  0.00    +0.000 HD
ENDBRANCH   7  12
ENDBRANCH   1   8
BRANCH   4  15
ATOM     15  N   UNL     1     -10.527   7.152 130.244  0.00  0.00    +0.000 N 
ATOM     16  C   UNL     1     -10.919   8.059 129.156  0.00  0.00    +0.000 C 
ATOM     17  O   UNL     1     -10.128   8.265 128.183  0.00  0.00    +0.000 OA
ATOM     18  H   UNL     1     -11.139   6.991 130.997  0.00  0.00    +0.000 HD
BRANCH  16  19
ATOM     19  C   UNL     1     -12.273   8.750 129.195  0.00  0.00    +0.000 C 
ATOM     20  C   UNL     1     -13.344   9.695 128.646  0.00  0.00    +0.000 C 
ATOM     21  C   UNL     1     -13.399   8.202 128.315  0.00  0.00    +0.000 C 
ENDBRANCH  16  19
ENDBRANCH   4  15
BRANCH   2  22
ATOM     22  N   UNL     1      -7.737   3.155 129.339  0.00  0.00    +0.000 N 
ATOM     23  H   UNL     1      -7.292   2.938 128.488  0.00  0.00    +0.000 HD
BRANCH  22  24
ATOM     24  C   UNL     1      -8.233   2.076 130.205  0.00  0.00    +0.000 A 
ATOM     25  C   UNL     1      -9.154   2.268 131.222  0.00  0.00    +0.000 A 
ATOM     26  C   UNL     1      -9.375   1.120 132.020  0.00  0.00    +0.000 A 
ATOM     27  C   UNL     1      -9.056  -0.112 131.664  0.00  0.00    +0.000 A 
ATOM     28  C   UNL     1      -8.195  -0.236 130.609  0.00  0.00    +0.000 A 
ATOM     29  C   UNL     1      -7.829   0.858 129.863  0.00  0.00    +0.000 A 
BRANCH  28  30
ATOM     30  C   UNL     1      -7.636  -1.605 130.256  0.00  0.00    +0.000 A 
ATOM     31  N   UNL     1      -6.650  -2.097 130.991  0.00  0.00    +0.000 NA
ATOM     32  N   UNL     1      -6.491  -3.346 130.457  0.00  0.00    +0.000 N 
ATOM     33  C   UNL     1      -5.405  -4.194 130.968  0.00  0.00    +0.000 C 
ATOM     34  C   UNL     1      -7.366  -3.546 129.447  0.00  0.00    +0.000 A 
ATOM     35  N   UNL     1      -8.119  -2.456 129.298  0.00  0.00    +0.000 NA
ENDBRANCH  28  30
BRANCH  29  36
ATOM     36  O   UNL     1      -7.011   0.685 128.715  0.00  0.00    +0.000 OA
ATOM     37  C   UNL     1      -5.597   0.713 128.841  0.00  0.00    +0.000 C 
ENDBRANCH  29  36
ENDBRANCH  22  24
ENDBRANCH   2  22
TORSDOF 8
ENDMDL
MODEL 9
REMARK VINA RESULT:      -7.2      4.279      8.989
REMARK  Name = Deucravacitinib
REMARK  10 active torsions:
REMARK  status: ('A' for Active; 'I' for Inactive)
REMARK    1  A    between atoms: C_2  and  N_5
REMARK    2  A    between atoms: C_6  and  C_8
REMARK    3  A    between atoms: C_9  and  N_10
REMARK    4  A    between atoms: N_10  and  C_11
REMARK    5  A    between atoms: C_15  and  C_16
REMARK    6  A    between atoms: N_18  and  C_19
REMARK    7  A    between atoms: C_22  and  O_23
REMARK    8  A    between atoms: O_23  and  C_24
REMARK    9  A    between atoms: C_26  and  N_27
REMARK   10  A    between atoms: C_28  and  C_30
REMARK                            x       y       z     vdW  Elec       q    Type
REMARK                         _______ _______ _______ _____ _____    ______ ____
ROOT
ATOM      1  C   UNL     1      -8.111  -2.714 127.176  0.00  0.00    +0.000 A 
ATOM      2  C   UNL     1      -6.758  -2.307 127.200  0.00  0.00    +0.000 A 
ATOM      3  C   UNL     1      -6.040  -2.497 128.362  0.00  0.00    +0.000 A 
ATOM      4  C   UNL     1      -6.745  -3.026 129.463  0.00  0.00    +0.000 A 
ATOM      5  N   UNL     1      -8.042  -3.359 129.396  0.00  0.00    +0.000 NA
ATOM      6  N   UNL     1      -8.724  -3.218 128.246  0.00  0.00    +0.000 NA
ENDROOT
BRANCH   1   8
ATOM      7  N   UNL     1      -8.657  -3.504 124.772  0.00  0.00    +0.000 N 
ATOM      8  C   UNL     1      -8.895  -2.571 125.882  0.00  0.00    +0.000 C 
ATOM      9  O   UNL     1      -9.757  -1.644 125.760  0.00  0.00    +0.000 OA
ATOM     10  H   UNL     1      -7.990  -4.221 124.866  0.00  0.00    +0.000 HD
BRANCH   7  12
ATOM     11  H   UNL     1      -8.763  -3.024 122.744  0.00  0.00    +0.000 HD
ATOM     12  C   UNL     1      -9.415  -3.365 123.520  0.00  0.00    +0.000 C 
ATOM     13  H   UNL     1     -10.206  -2.657 123.658  0.00  0.00    +0.000 HD
ATOM     14  H   UNL     1      -9.830  -4.313 123.247  0.00  0.00    +0.000 HD
ENDBRANCH   7  12
ENDBRANCH   1   8
BRANCH   4  15
ATOM     15  N   UNL     1      -6.030  -3.222 130.733  0.00  0.00    +0.000 N 
ATOM     16  C   UNL     1      -5.578  -4.567 131.122  0.00  0.00    +0.000 C 
ATOM     17  O   UNL     1      -5.806  -5.558 130.360  0.00  0.00    +0.000 OA
ATOM     18  H   UNL     1      -5.852  -2.454 131.321  0.00  0.00    +0.000 HD
BRANCH  16  19
ATOM     19  C   UNL     1      -4.837  -4.769 132.434  0.00  0.00    +0.000 C 
ATOM     20  C   UNL     1      -4.398  -4.347 133.837  0.00  0.00    +0.000 C 
ATOM     21  C   UNL     1      -5.631  -5.235 133.656  0.00  0.00    +0.000 C 
ENDBRANCH  16  19
ENDBRANCH   4  15
BRANCH   2  22
ATOM     22  N   UNL     1      -6.132  -1.701 126.016  0.00  0.00    +0.000 N 
ATOM     23  H   UNL     1      -5.821  -2.272 125.276  0.00  0.00    +0.000 HD
BRANCH  22  24
ATOM     24  C   UNL     1      -5.969  -0.242 125.937  0.00  0.00    +0.000 A 
ATOM     25  C   UNL     1      -5.162   0.489 126.794  0.00  0.00    +0.000 A 
ATOM     26  C   UNL     1      -5.271   1.890 126.628  0.00  0.00    +0.000 A 
ATOM     27  C   UNL     1      -5.779   2.481 125.561  0.00  0.00    +0.000 A 
ATOM     28  C   UNL     1      -6.509   1.689 124.717  0.00  0.00    +0.000 A 
ATOM     29  C   UNL     1      -6.557   0.328 124.892  0.00  0.00    +0.000 A 
BRANCH  28  30
ATOM     30  C   UNL     1      -7.276   2.325 123.570  0.00  0.00    +0.000 A 
ATOM     31  N   UNL     1      -6.594   2.844 122.560  0.00  0.00    +0.000 NA
ATOM     32  N   UNL     1      -7.591   3.213 121.700  0.00  0.00    +0.000 N 
ATOM     33  C   UNL     1      -7.226   3.920 120.464  0.00  0.00    +0.000 C 
ATOM     34  C   UNL     1      -8.802   2.910 122.219  0.00  0.00    +0.000 A 
ATOM     35  N   UNL     1      -8.636   2.332 123.409  0.00  0.00    +0.000 NA
ENDBRANCH  28  30
BRANCH  29  36
ATOM     36  O   UNL     1      -7.244  -0.479 123.945  0.00  0.00    +0.000 OA
ATOM     37  C   UNL     1      -6.526  -1.107 122.894  0.00  0.00    +0.000 C 
ENDBRANCH  29  36
ENDBRANCH  22  24
ENDBRANCH   2  22
TORSDOF 8
ENDMDL
