MODEL 1
REMARK VINA RESULT:      -6.3      0.000      0.000
REMARK  Name = Deutetrabenazine
REMARK  8 active torsions:
REMARK  status: ('A' for Active; 'I' for Inactive)
REMARK    1  A    between atoms: C_2  and  O_5
REMARK    2  A    between atoms: O_5  and  C_6
REMARK    3  A    between atoms: C_11  and  O_12
REMARK    4  A    between atoms: O_12  and  C_13
REMARK    5  A    between atoms: C_21  and  C_22
REMARK    6  A    between atoms: C_22  and  C_23
REMARK    7  A    between atoms: C_23  and  C_24
REMARK    8  A    between atoms: C_23  and  C_25
REMARK                            x       y       z     vdW  Elec       q    Type
REMARK                         _______ _______ _______ _____ _____    ______ ____
ROOT
ATOM      1  C   UNL     1      -9.128   1.778 131.281  0.00  0.00    +0.000 A 
ATOM      2  C   UNL     1      -8.788   0.443 131.394  0.00  0.00    +0.000 A 
ATOM      3  C   UNL     1      -8.209  -0.233 130.327  0.00  0.00    +0.000 A 
ATOM      4  C   UNL     1      -7.955   0.444 129.152  0.00  0.00    +0.000 A 
ATOM      5  C   UNL     1      -8.290   1.784 129.035  0.00  0.00    +0.000 A 
ATOM      6  C   UNL     1      -8.876   2.456 130.092  0.00  0.00    +0.000 A 
ATOM      7  C   UNL     1      -7.306  -0.237 127.977  0.00  0.00    +0.000 C 
ATOM      8  C   UNL     1      -7.843   0.281 126.662  0.00  0.00    +0.000 C 
ATOM      9  C   UNL     1      -8.822  -0.694 126.050  0.00  0.00    +0.000 C 
ATOM     10  O   UNL     1      -9.958  -0.335 125.610  0.00  0.00    +0.000 OA
ATOM     11  C   UNL     1      -8.360  -2.100 125.999  0.00  0.00    +0.000 C 
ATOM     12  C   UNL     1      -7.710  -2.575 127.243  0.00  0.00    +0.000 C 
ATOM     13  N   UNL     1      -7.311  -1.674 128.157  0.00  0.00    +0.000 NA
ATOM     14  C   UNL     1      -6.871  -2.174 129.480  0.00  0.00    +0.000 C 
ATOM     15  C   UNL     1      -7.888  -1.692 130.514  0.00  0.00    +0.000 C 
ENDROOT
BRANCH   1  16
ATOM     16  O   UNL     1      -9.732   2.451 132.376  0.00  0.00    +0.000 OA
BRANCH  16  18
ATOM     17  H   UNL     1      -7.927   3.158 133.021  0.00  0.00    +0.000 HD
ATOM     18  C   UNL     1      -8.922   3.024 133.391  0.00  0.00    +0.000 C 
ATOM     19  H   UNL     1      -8.901   2.375 134.241  0.00  0.00    +0.000 HD
ATOM     20  H   UNL     1      -9.326   3.973 133.676  0.00  0.00    +0.000 HD
ENDBRANCH  16  18
ENDBRANCH   1  16
BRANCH   6  21
ATOM     21  O   UNL     1      -9.222   3.828 129.964  0.00  0.00    +0.000 OA
BRANCH  21  22
ATOM     22  C   UNL     1      -8.217   4.826 130.077  0.00  0.00    +0.000 C 
ATOM     23  H   UNL     1      -7.766   4.770 131.045  0.00  0.00    +0.000 HD
ATOM     24  H   UNL     1      -7.472   4.669 129.326  0.00  0.00    +0.000 HD
ATOM     25  H   UNL     1      -8.659   5.792 129.945  0.00  0.00    +0.000 HD
ENDBRANCH  21  22
ENDBRANCH   6  21
BRANCH  11  26
ATOM     26  C   UNL     1      -7.362  -2.233 124.860  0.00  0.00    +0.000 C 
BRANCH  26  27
ATOM     27  C   UNL     1      -8.028  -2.925 123.682  0.00  0.00    +0.000 C 
ATOM     28  C   UNL     1      -9.368  -3.493 124.119  0.00  0.00    +0.000 C 
ATOM     29  C   UNL     1      -8.245  -1.920 122.562  0.00  0.00    +0.000 C 
ENDBRANCH  26  27
ENDBRANCH  11  26
TORSDOF 6
ENDMDL
MODEL 2
REMARK VINA RESULT:      -6.3      6.831      8.307
REMARK  Name = Deutetrabenazine
REMARK  8 active torsions:
REMARK  status: ('A' for Active; 'I' for Inactive)
REMARK    1  A    between atoms: C_2  and  O_5
REMARK    2  A    between atoms: O_5  and  C_6
REMARK    3  A    between atoms: C_11  and  O_12
REMARK    4  A    between atoms: O_12  and  C_13
REMARK    5  A    between atoms: C_21  and  C_22
REMARK    6  A    between atoms: C_22  and  C_23
REMARK    7  A    between atoms: C_23  and  C_24
REMARK    8  A    between atoms: C_23  and  C_25
REMARK                            x       y       z     vdW  Elec       q    Type
REMARK                         _______ _______ _______ _____ _____    ______ ____
ROOT
ATOM      1  C   UNL     1     -11.139   6.128 129.762  0.00  0.00    +0.000 A 
ATOM      2  C   UNL     1     -10.780   5.076 130.584  0.00  0.00    +0.000 A 
ATOM      3  C   UNL     1      -9.565   5.087 131.257  0.00  0.00    +0.000 A 
ATOM      4  C   UNL     1      -8.720   6.167 131.116  0.00  0.00    +0.000 A 
ATOM      5  C   UNL     1      -9.076   7.226 130.295  0.00  0.00    +0.000 A 
ATOM      6  C   UNL     1     -10.281   7.213 129.616  0.00  0.00    +0.000 A 
ATOM      7  C   UNL     1      -7.404   6.238 131.843  0.00  0.00    +0.000 C 
ATOM      8  C   UNL     1      -6.342   6.926 131.015  0.00  0.00    +0.000 C 
ATOM      9  C   UNL     1      -5.385   5.923 130.412  0.00  0.00    +0.000 C 
ATOM     10  O   UNL     1      -5.061   5.944 129.184  0.00  0.00    +0.000 OA
ATOM     11  C   UNL     1      -4.853   4.915 131.356  0.00  0.00    +0.000 C 
ATOM     12  C   UNL     1      -5.868   4.332 132.264  0.00  0.00    +0.000 C 
ATOM     13  N   UNL     1      -7.058   4.943 132.393  0.00  0.00    +0.000 NA
ATOM     14  C   UNL     1      -8.131   4.231 133.124  0.00  0.00    +0.000 C 
ATOM     15  C   UNL     1      -9.230   3.896 132.117  0.00  0.00    +0.000 C 
ENDROOT
BRANCH   1  16
ATOM     16  O   UNL     1     -12.379   6.095 129.070  0.00  0.00    +0.000 OA
BRANCH  16  18
ATOM     17  H   UNL     1     -13.780   6.780 130.390  0.00  0.00    +0.000 HD
ATOM     18  C   UNL     1     -13.408   7.011 129.414  0.00  0.00    +0.000 C 
ATOM     19  H   UNL     1     -14.204   6.938 128.703  0.00  0.00    +0.000 HD
ATOM     20  H   UNL     1     -13.015   8.007 129.409  0.00  0.00    +0.000 HD
ENDBRANCH  16  18
ENDBRANCH   1  16
BRANCH   6  21
ATOM     21  O   UNL     1     -10.638   8.299 128.773  0.00  0.00    +0.000 OA
BRANCH  21  22
ATOM     22  C   UNL     1     -10.606   8.143 127.361  0.00  0.00    +0.000 C 
ATOM     23  H   UNL     1     -10.636   7.102 127.117  0.00  0.00    +0.000 HD
ATOM     24  H   UNL     1     -11.452   8.636 126.929  0.00  0.00    +0.000 HD
ATOM     25  H   UNL     1      -9.706   8.575 126.976  0.00  0.00    +0.000 HD
ENDBRANCH  21  22
ENDBRANCH   6  21
BRANCH  11  26
ATOM     26  C   UNL     1      -3.780   5.577 132.205  0.00  0.00    +0.000 C 
BRANCH  26  27
ATOM     27  C   UNL     1      -2.409   5.241 131.639  0.00  0.00    +0.000 C 
ATOM     28  C   UNL     1      -1.715   6.520 131.202  0.00  0.00    +0.000 C 
ATOM     29  C   UNL     1      -1.576   4.552 132.708  0.00  0.00    +0.000 C 
ENDBRANCH  26  27
ENDBRANCH  11  26
TORSDOF 6
ENDMDL
MODEL 3
REMARK VINA RESULT:      -6.3      3.770      5.332
REMARK  Name = Deutetrabenazine
REMARK  8 active torsions:
REMARK  status: ('A' for Active; 'I' for Inactive)
REMARK    1  A    between atoms: C_2  and  O_5
REMARK    2  A    between atoms: O_5  and  C_6
REMARK    3  A    between atoms: C_11  and  O_12
REMARK    4  A    between atoms: O_12  and  C_13
REMARK    5  A    between atoms: C_21  and  C_22
REMARK    6  A    between atoms: C_22  and  C_23
REMARK    7  A    between atoms: C_23  and  C_24
REMARK    8  A    between atoms: C_23  and  C_25
REMARK                            x       y       z     vdW  Elec       q    Type
REMARK                         _______ _______ _______ _____ _____    ______ ____
ROOT
ATOM      1  C   UNL     1      -6.719  -3.248 129.395  0.00  0.00    +0.000 A 
ATOM      2  C   UNL     1      -7.838  -3.306 128.586  0.00  0.00    +0.000 A 
ATOM      3  C   UNL     1      -7.829  -2.728 127.322  0.00  0.00    +0.000 A 
ATOM      4  C   UNL     1      -6.683  -2.109 126.867  0.00  0.00    +0.000 A 
ATOM      5  C   UNL     1      -5.557  -2.052 127.672  0.00  0.00    +0.000 A 
ATOM      6  C   UNL     1      -5.567  -2.617 128.935  0.00  0.00    +0.000 A 
ATOM      7  C   UNL     1      -6.615  -1.491 125.496  0.00  0.00    +0.000 C 
ATOM      8  C   UNL     1      -5.757  -0.247 125.484  0.00  0.00    +0.000 C 
ATOM      9  C   UNL     1      -6.607   1.002 125.458  0.00  0.00    +0.000 C 
ATOM     10  O   UNL     1      -6.409   1.978 126.248  0.00  0.00    +0.000 OA
ATOM     11  C   UNL     1      -7.688   1.007 124.446  0.00  0.00    +0.000 C 
ATOM     12  C   UNL     1      -8.449  -0.261 124.359  0.00  0.00    +0.000 C 
ATOM     13  N   UNL     1      -7.942  -1.369 124.928  0.00  0.00    +0.000 NA
ATOM     14  C   UNL     1      -8.813  -2.562 125.025  0.00  0.00    +0.000 C 
ATOM     15  C   UNL     1      -9.092  -2.808 126.506  0.00  0.00    +0.000 C 
ENDROOT
BRANCH   1  16
ATOM     16  O   UNL     1      -6.749  -3.831 130.689  0.00  0.00    +0.000 OA
BRANCH  16  18
ATOM     17  H   UNL     1      -8.103  -2.567 131.552  0.00  0.00    +0.000 HD
ATOM     18  C   UNL     1      -7.190  -3.065 131.802  0.00  0.00    +0.000 C 
ATOM     19  H   UNL     1      -6.446  -2.339 132.053  0.00  0.00    +0.000 HD
ATOM     20  H   UNL     1      -7.354  -3.713 132.637  0.00  0.00    +0.000 HD
ENDBRANCH  16  18
ENDBRANCH   1  16
BRANCH   6  21
ATOM     21  O   UNL     1      -4.410  -2.551 129.757  0.00  0.00    +0.000 OA
BRANCH  21  22
ATOM     22  C   UNL     1      -3.345  -3.469 129.559  0.00  0.00    +0.000 C 
ATOM     23  H   UNL     1      -2.754  -3.528 130.448  0.00  0.00    +0.000 HD
ATOM     24  H   UNL     1      -3.745  -4.435 129.332  0.00  0.00    +0.000 HD
ATOM     25  H   UNL     1      -2.735  -3.136 128.745  0.00  0.00    +0.000 HD
ENDBRANCH  21  22
ENDBRANCH   6  21
BRANCH  11  26
ATOM     26  C   UNL     1      -7.066   1.282 123.087  0.00  0.00    +0.000 C 
BRANCH  26  27
ATOM     27  C   UNL     1      -7.206   2.760 122.756  0.00  0.00    +0.000 C 
ATOM     28  C   UNL     1      -6.148   3.154 121.740  0.00  0.00    +0.000 C 
ATOM     29  C   UNL     1      -8.587   3.019 122.178  0.00  0.00    +0.000 C 
ENDBRANCH  26  27
ENDBRANCH  11  26
TORSDOF 6
ENDMDL
MODEL 4
REMARK VINA RESULT:      -6.2      2.282      3.574
REMARK  Name = Deutetrabenazine
REMARK  8 active torsions:
REMARK  status: ('A' for Active; 'I' for Inactive)
REMARK    1  A    between atoms: C_2  and  O_5
REMARK    2  A    between atoms: O_5  and  C_6
REMARK    3  A    between atoms: C_11  and  O_12
REMARK    4  A    between atoms: O_12  and  C_13
REMARK    5  A    between atoms: C_21  and  C_22
REMARK    6  A    between atoms: C_22  and  C_23
REMARK    7  A    between atoms: C_23  and  C_24
REMARK    8  A    between atoms: C_23  and  C_25
REMARK                            x       y       z     vdW  Elec       q    Type
REMARK                         _______ _______ _______ _____ _____    ______ ____
ROOT
ATOM      1  C   UNL     1      -8.093   0.895 131.826  0.00  0.00    +0.000 A 
ATOM      2  C   UNL     1      -8.070   1.613 130.645  0.00  0.00    +0.000 A 
ATOM      3  C   UNL     1      -7.986   0.960 129.422  0.00  0.00    +0.000 A 
ATOM      4  C   UNL     1      -7.945  -0.419 129.389  0.00  0.00    +0.000 A 
ATOM      5  C   UNL     1      -7.971  -1.143 130.570  0.00  0.00    +0.000 A 
ATOM      6  C   UNL     1      -8.044  -0.495 131.790  0.00  0.00    +0.000 A 
ATOM      7  C   UNL     1      -7.879  -1.173 128.088  0.00  0.00    +0.000 C 
ATOM      8  C   UNL     1      -7.043  -2.427 128.209  0.00  0.00    +0.000 C 
ATOM      9  C   UNL     1      -5.677  -2.234 127.590  0.00  0.00    +0.000 C 
ATOM     10  O   UNL     1      -4.605  -2.558 128.190  0.00  0.00    +0.000 OA
ATOM     11  C   UNL     1      -5.680  -1.641 126.233  0.00  0.00    +0.000 C 
ATOM     12  C   UNL     1      -6.601  -0.491 126.072  0.00  0.00    +0.000 C 
ATOM     13  N   UNL     1      -7.550  -0.278 126.998  0.00  0.00    +0.000 NA
ATOM     14  C   UNL     1      -8.308   0.992 126.938  0.00  0.00    +0.000 C 
ATOM     15  C   UNL     1      -7.941   1.807 128.177  0.00  0.00    +0.000 C 
ENDROOT
BRANCH   1  16
ATOM     16  O   UNL     1      -8.165   1.578 133.069  0.00  0.00    +0.000 OA
BRANCH  16  18
ATOM     17  H   UNL     1      -8.786   3.391 132.360  0.00  0.00    +0.000 HD
ATOM     18  C   UNL     1      -8.967   2.744 133.193  0.00  0.00    +0.000 C 
ATOM     19  H   UNL     1      -8.719   3.253 134.100  0.00  0.00    +0.000 HD
ATOM     20  H   UNL     1     -10.000   2.465 133.210  0.00  0.00    +0.000 HD
ENDBRANCH  16  18
ENDBRANCH   1  16
BRANCH   6  21
ATOM     21  O   UNL     1      -8.067  -1.243 132.997  0.00  0.00    +0.000 OA
BRANCH  21  22
ATOM     22  C   UNL     1      -7.602  -2.585 133.010  0.00  0.00    +0.000 C 
ATOM     23  H   UNL     1      -7.307  -2.852 134.003  0.00  0.00    +0.000 HD
ATOM     24  H   UNL     1      -8.385  -3.237 132.684  0.00  0.00    +0.000 HD
ATOM     25  H   UNL     1      -6.764  -2.678 132.351  0.00  0.00    +0.000 HD
ENDBRANCH  21  22
ENDBRANCH   6  21
BRANCH  11  26
ATOM     26  C   UNL     1      -6.087  -2.719 125.242  0.00  0.00    +0.000 C 
BRANCH  26  27
ATOM     27  C   UNL     1      -5.204  -2.630 124.008  0.00  0.00    +0.000 C 
ATOM     28  C   UNL     1      -4.589  -3.991 123.726  0.00  0.00    +0.000 C 
ATOM     29  C   UNL     1      -6.042  -2.196 122.817  0.00  0.00    +0.000 C 
ENDBRANCH  26  27
ENDBRANCH  11  26
TORSDOF 6
ENDMDL
MODEL 5
REMARK VINA RESULT:      -6.2      7.090      8.450
REMARK  Name = Deutetrabenazine
REMARK  8 active torsions:
REMARK  status: ('A' for Active; 'I' for Inactive)
REMARK    1  A    between atoms: C_2  and  O_5
REMARK    2  A    between atoms: O_5  and  C_6
REMARK    3  A    between atoms: C_11  and  O_12
REMARK    4  A    between atoms: O_12  and  C_13
REMARK    5  A    between atoms: C_21  and  C_22
REMARK    6  A    between atoms: C_22  and  C_23
REMARK    7  A    between atoms: C_23  and  C_24
REMARK    8  A    between atoms: C_23  and  C_25
REMARK                            x       y       z     vdW  Elec       q    Type
REMARK                         _______ _______ _______ _____ _____    ______ ____
ROOT
ATOM      1  C   UNL     1      -4.681   5.900 132.233  0.00  0.00    +0.000 A 
ATOM      2  C   UNL     1      -5.692   5.882 133.175  0.00  0.00    +0.000 A 
ATOM      3  C   UNL     1      -7.010   5.659 132.796  0.00  0.00    +0.000 A 
ATOM      4  C   UNL     1      -7.305   5.435 131.467  0.00  0.00    +0.000 A 
ATOM      5  C   UNL     1      -6.294   5.447 130.519  0.00  0.00    +0.000 A 
ATOM      6  C   UNL     1      -4.983   5.680 130.893  0.00  0.00    +0.000 A 
ATOM      7  C   UNL     1      -8.713   5.164 131.009  0.00  0.00    +0.000 C 
ATOM      8  C   UNL     1      -8.982   5.757 129.645  0.00  0.00    +0.000 C 
ATOM      9  C   UNL     1      -9.795   7.028 129.753  0.00  0.00    +0.000 C 
ATOM     10  O   UNL     1      -9.473   8.096 129.147  0.00  0.00    +0.000 OA
ATOM     11  C   UNL     1     -10.994   6.935 130.618  0.00  0.00    +0.000 C 
ATOM     12  C   UNL     1     -10.767   6.234 131.903  0.00  0.00    +0.000 C 
ATOM     13  N   UNL     1      -9.659   5.490 132.056  0.00  0.00    +0.000 NA
ATOM     14  C   UNL     1      -9.342   4.984 133.411  0.00  0.00    +0.000 C 
ATOM     15  C   UNL     1      -8.062   5.678 133.873  0.00  0.00    +0.000 C 
ENDROOT
BRANCH   1  16
ATOM     16  O   UNL     1      -3.341   6.143 132.636  0.00  0.00    +0.000 OA
BRANCH  16  18
ATOM     17  H   UNL     1      -3.788   7.769 133.789  0.00  0.00    +0.000 HD
ATOM     18  C   UNL     1      -2.983   7.402 133.187  0.00  0.00    +0.000 C 
ATOM     19  H   UNL     1      -2.785   8.095 132.397  0.00  0.00    +0.000 HD
ATOM     20  H   UNL     1      -2.108   7.290 133.792  0.00  0.00    +0.000 HD
ENDBRANCH  16  18
ENDBRANCH   1  16
BRANCH   6  21
ATOM     21  O   UNL     1      -3.953   5.696 129.915  0.00  0.00    +0.000 OA
BRANCH  21  22
ATOM     22  C   UNL     1      -3.765   6.844 129.100  0.00  0.00    +0.000 C 
ATOM     23  H   UNL     1      -2.721   7.064 129.029  0.00  0.00    +0.000 HD
ATOM     24  H   UNL     1      -4.158   6.656 128.123  0.00  0.00    +0.000 HD
ATOM     25  H   UNL     1      -4.277   7.677 129.536  0.00  0.00    +0.000 HD
ENDBRANCH  21  22
ENDBRANCH   6  21
BRANCH  11  26
ATOM     26  C   UNL     1     -12.076   6.191 129.853  0.00  0.00    +0.000 C 
BRANCH  26  27
ATOM     27  C   UNL     1     -13.220   7.142 129.542  0.00  0.00    +0.000 C 
ATOM     28  C   UNL     1     -12.815   8.560 129.909  0.00  0.00    +0.000 C 
ATOM     29  C   UNL     1     -13.544   7.075 128.058  0.00  0.00    +0.000 C 
ENDBRANCH  26  27
ENDBRANCH  11  26
TORSDOF 6
ENDMDL
MODEL 6
REMARK VINA RESULT:      -6.1      4.560      7.324
REMARK  Name = Deutetrabenazine
REMARK  8 active torsions:
REMARK  status: ('A' for Active; 'I' for Inactive)
REMARK    1  A    between atoms: C_2  and  O_5
REMARK    2  A    between atoms: O_5  and  C_6
REMARK    3  A    between atoms: C_11  and  O_12
REMARK    4  A    between atoms: O_12  and  C_13
REMARK    5  A    between atoms: C_21  and  C_22
REMARK    6  A    between atoms: C_22  and  C_23
REMARK    7  A    between atoms: C_23  and  C_24
REMARK    8  A    between atoms: C_23  and  C_25
REMARK                            x       y       z     vdW  Elec       q    Type
REMARK                         _______ _______ _______ _____ _____    ______ ____
ROOT
ATOM      1  C   UNL     1     -11.945   8.176 129.220  0.00  0.00    +0.000 A 
ATOM      2  C   UNL     1     -11.998   7.645 130.495  0.00  0.00    +0.000 A 
ATOM      3  C   UNL     1     -10.993   6.802 130.953  0.00  0.00    +0.000 A 
ATOM      4  C   UNL     1      -9.924   6.510 130.131  0.00  0.00    +0.000 A 
ATOM      5  C   UNL     1      -9.864   7.043 128.853  0.00  0.00    +0.000 A 
ATOM      6  C   UNL     1     -10.869   7.874 128.391  0.00  0.00    +0.000 A 
ATOM      7  C   UNL     1      -8.799   5.622 130.590  0.00  0.00    +0.000 C 
ATOM      8  C   UNL     1      -8.252   4.780 129.460  0.00  0.00    +0.000 C 
ATOM      9  C   UNL     1      -8.748   3.355 129.552  0.00  0.00    +0.000 C 
ATOM     10  O   UNL     1      -9.241   2.739 128.557  0.00  0.00    +0.000 OA
ATOM     11  C   UNL     1      -8.616   2.729 130.887  0.00  0.00    +0.000 C 
ATOM     12  C   UNL     1      -9.025   3.600 132.014  0.00  0.00    +0.000 C 
ATOM     13  N   UNL     1      -9.168   4.919 131.802  0.00  0.00    +0.000 NA
ATOM     14  C   UNL     1      -9.789   5.733 132.872  0.00  0.00    +0.000 C 
ATOM     15  C   UNL     1     -11.130   6.240 132.344  0.00  0.00    +0.000 C 
ENDROOT
BRANCH   1  16
ATOM     16  O   UNL     1     -12.987   9.024 128.762  0.00  0.00    +0.000 OA
BRANCH  16  18
ATOM     17  H   UNL     1     -13.948  10.824 128.871  0.00  0.00    +0.000 HD
ATOM     18  C   UNL     1     -13.279  10.229 129.456  0.00  0.00    +0.000 C 
ATOM     19  H   UNL     1     -12.373  10.772 129.624  0.00  0.00    +0.000 HD
ATOM     20  H   UNL     1     -13.736   9.997 130.395  0.00  0.00    +0.000 HD
ENDBRANCH  16  18
ENDBRANCH   1  16
BRANCH   6  21
ATOM     21  O   UNL     1     -10.803   8.413 127.079  0.00  0.00    +0.000 OA
BRANCH  21  22
ATOM     22  C   UNL     1     -11.177   7.616 125.964  0.00  0.00    +0.000 C 
ATOM     23  H   UNL     1     -10.299   7.286 125.450  0.00  0.00    +0.000 HD
ATOM     24  H   UNL     1     -11.732   6.767 126.304  0.00  0.00    +0.000 HD
ATOM     25  H   UNL     1     -11.784   8.196 125.300  0.00  0.00    +0.000 HD
ENDBRANCH  21  22
ENDBRANCH   6  21
BRANCH  11  26
ATOM     26  C   UNL     1      -7.160   2.341 131.090  0.00  0.00    +0.000 C 
BRANCH  26  27
ATOM     27  C   UNL     1      -6.981   0.866 130.770  0.00  0.00    +0.000 C 
ATOM     28  C   UNL     1      -5.845   0.300 131.607  0.00  0.00    +0.000 C 
ATOM     29  C   UNL     1      -8.266   0.119 131.089  0.00  0.00    +0.000 C 
ENDBRANCH  26  27
ENDBRANCH  11  26
TORSDOF 6
ENDMDL
MODEL 7
REMARK VINA RESULT:      -6.1      3.345      6.151
REMARK  Name = Deutetrabenazine
REMARK  8 active torsions:
REMARK  status: ('A' for Active; 'I' for Inactive)
REMARK    1  A    between atoms: C_2  and  O_5
REMARK    2  A    between atoms: O_5  and  C_6
REMARK    3  A    between atoms: C_11  and  O_12
REMARK    4  A    between atoms: O_12  and  C_13
REMARK    5  A    between atoms: C_21  and  C_22
REMARK    6  A    between atoms: C_22  and  C_23
REMARK    7  A    between atoms: C_23  and  C_24
REMARK    8  A    between atoms: C_23  and  C_25
REMARK                            x       y       z     vdW  Elec       q    Type
REMARK                         _______ _______ _______ _____ _____    ______ ____
ROOT
ATOM      1  C   UNL     1      -7.781   2.426 123.390  0.00  0.00    +0.000 A 
ATOM      2  C   UNL     1      -7.253   1.207 123.009  0.00  0.00    +0.000 A 
ATOM      3  C   UNL     1      -7.190   0.150 123.908  0.00  0.00    +0.000 A 
ATOM      4  C   UNL     1      -7.678   0.318 125.188  0.00  0.00    +0.000 A 
ATOM      5  C   UNL     1      -8.212   1.537 125.574  0.00  0.00    +0.000 A 
ATOM      6  C   UNL     1      -8.266   2.594 124.684  0.00  0.00    +0.000 A 
ATOM      7  C   UNL     1      -7.656  -0.804 126.192  0.00  0.00    +0.000 C 
ATOM      8  C   UNL     1      -7.409  -0.296 127.594  0.00  0.00    +0.000 C 
ATOM      9  C   UNL     1      -5.982  -0.552 128.024  0.00  0.00    +0.000 C 
ATOM     10  O   UNL     1      -5.257   0.349 128.550  0.00  0.00    +0.000 OA
ATOM     11  C   UNL     1      -5.492  -1.928 127.787  0.00  0.00    +0.000 C 
ATOM     12  C   UNL     1      -5.847  -2.483 126.460  0.00  0.00    +0.000 C 
ATOM     13  N   UNL     1      -6.802  -1.879 125.732  0.00  0.00    +0.000 NA
ATOM     14  C   UNL     1      -6.984  -2.311 124.328  0.00  0.00    +0.000 C 
ATOM     15  C   UNL     1      -6.580  -1.142 123.432  0.00  0.00    +0.000 C 
ENDROOT
BRANCH   1  16
ATOM     16  O   UNL     1      -7.824   3.500 122.462  0.00  0.00    +0.000 OA
BRANCH  16  18
ATOM     17  H   UNL     1      -9.667   3.166 121.646  0.00  0.00    +0.000 HD
ATOM     18  C   UNL     1      -8.679   3.426 121.330  0.00  0.00    +0.000 C 
ATOM     19  H   UNL     1      -8.313   2.682 120.655  0.00  0.00    +0.000 HD
ATOM     20  H   UNL     1      -8.701   4.376 120.838  0.00  0.00    +0.000 HD
ENDBRANCH  16  18
ENDBRANCH   1  16
BRANCH   6  21
ATOM     21  O   UNL     1      -8.810   3.842 125.087  0.00  0.00    +0.000 OA
BRANCH  21  22
ATOM     22  C   UNL     1      -8.009   4.765 125.812  0.00  0.00    +0.000 C 
ATOM     23  H   UNL     1      -7.192   4.247 126.267  0.00  0.00    +0.000 HD
ATOM     24  H   UNL     1      -7.631   5.510 125.144  0.00  0.00    +0.000 HD
ATOM     25  H   UNL     1      -8.603   5.233 126.569  0.00  0.00    +0.000 HD
ENDBRANCH  21  22
ENDBRANCH   6  21
BRANCH  11  26
ATOM     26  C   UNL     1      -6.081  -2.835 128.855  0.00  0.00    +0.000 C 
BRANCH  26  27
ATOM     27  C   UNL     1      -5.029  -3.114 129.917  0.00  0.00    +0.000 C 
ATOM     28  C   UNL     1      -5.386  -4.390 130.661  0.00  0.00    +0.000 C 
ATOM     29  C   UNL     1      -3.671  -3.277 129.254  0.00  0.00    +0.000 C 
ENDBRANCH  26  27
ENDBRANCH  11  26
TORSDOF 6
ENDMDL
MODEL 8
REMARK VINA RESULT:      -5.9      3.987      5.348
REMARK  Name = Deutetrabenazine
REMARK  8 active torsions:
REMARK  status: ('A' for Active; 'I' for Inactive)
REMARK    1  A    between atoms: C_2  and  O_5
REMARK    2  A    between atoms: O_5  and  C_6
REMARK    3  A    between atoms: C_11  and  O_12
REMARK    4  A    between atoms: O_12  and  C_13
REMARK    5  A    between atoms: C_21  and  C_22
REMARK    6  A    between atoms: C_22  and  C_23
REMARK    7  A    between atoms: C_23  and  C_24
REMARK    8  A    between atoms: C_23  and  C_25
REMARK                            x       y       z     vdW  Elec       q    Type
REMARK                         _______ _______ _______ _____ _____    ______ ____
ROOT
ATOM      1  C   UNL     1      -3.566   3.854 127.246  0.00  0.00    +0.000 A 
ATOM      2  C   UNL     1      -4.068   4.075 125.977  0.00  0.00    +0.000 A 
ATOM      3  C   UNL     1      -5.190   3.389 125.529  0.00  0.00    +0.000 A 
ATOM      4  C   UNL     1      -5.818   2.493 126.369  0.00  0.00    +0.000 A 
ATOM      5  C   UNL     1      -5.321   2.270 127.644  0.00  0.00    +0.000 A 
ATOM      6  C   UNL     1      -4.198   2.944 128.088  0.00  0.00    +0.000 A 
ATOM      7  C   UNL     1      -7.050   1.744 125.940  0.00  0.00    +0.000 C 
ATOM      8  C   UNL     1      -7.087   0.347 126.517  0.00  0.00    +0.000 C 
ATOM      9  C   UNL     1      -6.707  -0.683 125.477  0.00  0.00    +0.000 C 
ATOM     10  O   UNL     1      -5.853  -1.596 125.702  0.00  0.00    +0.000 OA
ATOM     11  C   UNL     1      -7.404  -0.550 124.177  0.00  0.00    +0.000 C 
ATOM     12  C   UNL     1      -7.490   0.840 123.670  0.00  0.00    +0.000 C 
ATOM     13  N   UNL     1      -7.242   1.859 124.509  0.00  0.00    +0.000 NA
ATOM     14  C   UNL     1      -7.114   3.218 123.935  0.00  0.00    +0.000 C 
ATOM     15  C   UNL     1      -5.666   3.663 124.127  0.00  0.00    +0.000 C 
ENDROOT
BRANCH   1  16
ATOM     16  O   UNL     1      -2.410   4.552 127.683  0.00  0.00    +0.000 OA
BRANCH  16  18
ATOM     17  H   UNL     1      -3.178   6.434 127.471  0.00  0.00    +0.000 HD
ATOM     18  C   UNL     1      -2.518   5.899 128.121  0.00  0.00    +0.000 C 
ATOM     19  H   UNL     1      -1.552   6.359 128.106  0.00  0.00    +0.000 HD
ATOM     20  H   UNL     1      -2.907   5.919 129.118  0.00  0.00    +0.000 HD
ENDBRANCH  16  18
ENDBRANCH   1  16
BRANCH   6  21
ATOM     21  O   UNL     1      -3.691   2.707 129.394  0.00  0.00    +0.000 OA
BRANCH  21  22
ATOM     22  C   UNL     1      -4.207   3.437 130.498  0.00  0.00    +0.000 C 
ATOM     23  H   UNL     1      -3.879   4.453 130.439  0.00  0.00    +0.000 HD
ATOM     24  H   UNL     1      -5.276   3.405 130.479  0.00  0.00    +0.000 HD
ATOM     25  H   UNL     1      -3.853   3.000 131.409  0.00  0.00    +0.000 HD
ENDBRANCH  21  22
ENDBRANCH   6  21
BRANCH  11  26
ATOM     26  C   UNL     1      -8.817  -1.086 124.337  0.00  0.00    +0.000 C 
BRANCH  26  27
ATOM     27  C   UNL     1      -8.770  -2.599 124.482  0.00  0.00    +0.000 C 
ATOM     28  C   UNL     1      -9.419  -3.002 125.796  0.00  0.00    +0.000 C 
ATOM     29  C   UNL     1      -9.521  -3.241 123.328  0.00  0.00    +0.000 C 
ENDBRANCH  26  27
ENDBRANCH  11  26
TORSDOF 6
ENDMDL
MODEL 9
REMARK VINA RESULT:      -5.9      4.215      7.139
REMARK  Name = Deutetrabenazine
REMARK  8 active torsions:
REMARK  status: ('A' for Active; 'I' for Inactive)
REMARK    1  A    between atoms: C_2  and  O_5
REMARK    2  A    between atoms: O_5  and  C_6
REMARK    3  A    between atoms: C_11  and  O_12
REMARK    4  A    between atoms: O_12  and  C_13
REMARK    5  A    between atoms: C_21  and  C_22
REMARK    6  A    between atoms: C_22  and  C_23
REMARK    7  A    between atoms: C_23  and  C_24
REMARK    8  A    between atoms: C_23  and  C_25
REMARK                            x       y       z     vdW  Elec       q    Type
REMARK                         _______ _______ _______ _____ _____    ______ ____
ROOT
ATOM      1  C   UNL     1      -8.111  -2.302 124.855  0.00  0.00    +0.000 A 
ATOM      2  C   UNL     1      -8.712  -3.038 125.858  0.00  0.00    +0.000 A 
ATOM      3  C   UNL     1      -8.216  -3.004 127.155  0.00  0.00    +0.000 A 
ATOM      4  C   UNL     1      -7.125  -2.212 127.445  0.00  0.00    +0.000 A 
ATOM      5  C   UNL     1      -6.521  -1.468 126.444  0.00  0.00    +0.000 A 
ATOM      6  C   UNL     1      -7.006  -1.508 125.149  0.00  0.00    +0.000 A 
ATOM      7  C   UNL     1      -6.566  -2.121 128.839  0.00  0.00    +0.000 C 
ATOM      8  C   UNL     1      -5.062  -1.970 128.832  0.00  0.00    +0.000 C 
ATOM      9  C   UNL     1      -4.381  -3.273 129.181  0.00  0.00    +0.000 C 
ATOM     10  O   UNL     1      -3.423  -3.747 128.494  0.00  0.00    +0.000 OA
ATOM     11  C   UNL     1      -4.911  -3.958 130.382  0.00  0.00    +0.000 C 
ATOM     12  C   UNL     1      -6.390  -3.992 130.463  0.00  0.00    +0.000 C 
ATOM     13  N   UNL     1      -7.107  -3.175 129.672  0.00  0.00    +0.000 NA
ATOM     14  C   UNL     1      -8.572  -3.381 129.606  0.00  0.00    +0.000 C 
ATOM     15  C   UNL     1      -8.906  -3.851 128.192  0.00  0.00    +0.000 C 
ENDROOT
BRANCH   1  16
ATOM     16  O   UNL     1      -8.621  -2.359 123.531  0.00  0.00    +0.000 OA
BRANCH  16  18
ATOM     17  H   UNL     1     -10.314  -3.397 124.012  0.00  0.00    +0.000 HD
ATOM     18  C   UNL     1      -9.626  -3.306 123.198  0.00  0.00    +0.000 C 
ATOM     19  H   UNL     1      -9.173  -4.256 123.007  0.00  0.00    +0.000 HD
ATOM     20  H   UNL     1     -10.149  -2.977 122.324  0.00  0.00    +0.000 HD
ENDBRANCH  16  18
ENDBRANCH   1  16
BRANCH   6  21
ATOM     21  O   UNL     1      -6.379  -0.747 124.126  0.00  0.00    +0.000 OA
BRANCH  21  22
ATOM     22  C   UNL     1      -6.819   0.576 123.855  0.00  0.00    +0.000 C 
ATOM     23  H   UNL     1      -6.360   0.927 122.955  0.00  0.00    +0.000 HD
ATOM     24  H   UNL     1      -7.883   0.580 123.737  0.00  0.00    +0.000 HD
ATOM     25  H   UNL     1      -6.548   1.215 124.669  0.00  0.00    +0.000 HD
ENDBRANCH  21  22
ENDBRANCH   6  21
BRANCH  11  26
ATOM     26  C   UNL     1      -4.384  -3.238 131.613  0.00  0.00    +0.000 C 
BRANCH  26  27
ATOM     27  C   UNL     1      -3.691  -4.238 132.525  0.00  0.00    +0.000 C 
ATOM     28  C   UNL     1      -3.050  -3.501 133.689  0.00  0.00    +0.000 C 
ATOM     29  C   UNL     1      -4.712  -5.231 133.054  0.00  0.00    +0.000 C 
ENDBRANCH  26  27
ENDBRANCH  11  26
TORSDOF 6
ENDMDL
