MODEL 1
REMARK VINA RESULT:     -10.3      0.000      0.000
REMARK  Name = Dexamethasone metasulfobenzoate
REMARK  12 active torsions:
REMARK  status: ('A' for Active; 'I' for Inactive)
REMARK    1  A    between atoms: C_4  and  C_5
REMARK    2  A    between atoms: C_6  and  O_7
REMARK    3  A    between atoms: C_6  and  C_8
REMARK    4  A    between atoms: C_8  and  C_10
REMARK    5  A    between atoms: C_10  and  O_11
REMARK    6  A    between atoms: O_11  and  C_12
REMARK    7  A    between atoms: C_12  and  C_14
REMARK    8  A    between atoms: C_18  and  S_20
REMARK    9  A    between atoms: S_20  and  O_21
REMARK   10  A    between atoms: C_24  and  C_25
REMARK   11  A    between atoms: C_27  and  O_28
REMARK   12  A    between atoms: C_41  and  C_42
REMARK                            x       y       z     vdW  Elec       q    Type
REMARK                         _______ _______ _______ _____ _____    ______ ____
ROOT
ATOM      1  C   UNL     1      -7.511  -3.129 130.258  0.00  0.00    +0.000 C 
ATOM      2  C   UNL     1      -6.474  -4.047 129.887  0.00  0.00    +0.000 C 
ATOM      3  C   UNL     1      -5.904  -2.639 129.678  0.00  0.00    +0.000 C 
ATOM      4  C   UNL     1      -4.502  -2.568 128.447  0.00  0.00    +0.000 C 
ATOM      5  C   UNL     1      -7.113  -1.156 130.527  0.00  0.00    +0.000 C 
ATOM      6  C   UNL     1      -6.288  -2.002 131.138  0.00  0.00    +0.000 C 
ATOM      7  C   UNL     1      -6.048  -2.367 132.548  0.00  0.00    +0.000 C 
ATOM      8  C   UNL     1      -5.266  -0.778 130.131  0.00  0.00    +0.000 C 
ATOM      9  C   UNL     1      -6.182  -0.397 128.550  0.00  0.00    +0.000 C 
ATOM     10  C   UNL     1      -7.243  -1.612 127.780  0.00  0.00    +0.000 C 
ATOM     11  F   UNL     1      -6.511  -2.800 127.824  0.00  0.00    +0.000 F 
ATOM     12  C   UNL     1      -8.295  -2.390 128.774  0.00  0.00    +0.000 C 
ATOM     13  C   UNL     1      -8.809  -3.635 128.021  0.00  0.00    +0.000 C 
ATOM     14  C   UNL     1      -9.216  -3.302 126.622  0.00  0.00    +0.000 C 
ATOM     15  C   UNL     1      -7.959  -3.083 125.841  0.00  0.00    +0.000 C 
ATOM     16  C   UNL     1      -7.690  -3.634 124.630  0.00  0.00    +0.000 C 
ATOM     17  C   UNL     1      -8.792  -3.000 123.944  0.00  0.00    +0.000 C 
ATOM     18  O   UNL     1      -9.851  -3.550 123.722  0.00  0.00    +0.000 OA
ATOM     19  C   UNL     1      -8.353  -1.565 123.766  0.00  0.00    +0.000 C 
ATOM     20  C   UNL     1      -7.711  -0.930 124.836  0.00  0.00    +0.000 C 
ATOM     21  C   UNL     1      -7.215  -1.794 126.107  0.00  0.00    +0.000 C 
ATOM     22  C   UNL     1      -5.725  -2.396 125.870  0.00  0.00    +0.000 C 
ENDROOT
BRANCH   5  23
ATOM     23  O   UNL     1      -8.429  -1.467 131.266  0.00  0.00    +0.000 OA
ATOM     24  H   UNL     1      -8.989  -0.718 131.502  0.00  0.00    +0.000 HD
ENDBRANCH   5  23
BRANCH   5  25
ATOM     25  C   UNL     1      -6.889   0.319 131.681  0.00  0.00    +0.000 C 
ATOM     26  O   UNL     1      -7.851   0.817 132.290  0.00  0.00    +0.000 OA
BRANCH  25  27
ATOM     27  C   UNL     1      -5.505   1.179 131.959  0.00  0.00    +0.000 C 
BRANCH  27  28
ATOM     28  O   UNL     1      -5.844   2.680 131.858  0.00  0.00    +0.000 OA
BRANCH  28  29
ATOM     29  C   UNL     1      -5.909   3.351 130.664  0.00  0.00    +0.000 C 
ATOM     30  O   UNL     1      -5.217   3.086 129.689  0.00  0.00    +0.000 OA
BRANCH  29  31
ATOM     31  C   UNL     1      -6.899   4.515 130.597  0.00  0.00    +0.000 A 
ATOM     32  C   UNL     1      -6.486   5.818 130.969  0.00  0.00    +0.000 A 
ATOM     33  C   UNL     1      -7.414   6.866 131.163  0.00  0.00    +0.000 A 
ATOM     34  C   UNL     1      -8.768   6.661 130.906  0.00  0.00    +0.000 A 
ATOM     35  C   UNL     1      -9.189   5.382 130.525  0.00  0.00    +0.000 A 
ATOM     36  C   UNL     1      -8.269   4.316 130.370  0.00  0.00    +0.000 A 
BRANCH  35  37
ATOM     37  S   UNL     1     -10.936   5.088 130.287  0.00  0.00    +0.000 S 
ATOM     38  O   UNL     1     -11.381   5.980 129.238  0.00  0.00    +0.000 OA
ATOM     39  O   UNL     1     -11.138   3.659 130.220  0.00  0.00    +0.000 OA
BRANCH  37  40
ATOM     40  O   UNL     1     -11.616   5.604 131.662  0.00  0.00    +0.000 OA
ATOM     41  H   UNL     1     -11.479   4.961 132.385  0.00  0.00    +0.000 HD
ENDBRANCH  37  40
ENDBRANCH  35  37
ENDBRANCH  29  31
ENDBRANCH  28  29
ENDBRANCH  27  28
ENDBRANCH  25  27
ENDBRANCH   5  25
BRANCH   9  42
ATOM     42  O   UNL     1      -6.937   0.804 128.815  0.00  0.00    +0.000 OA
ATOM     43  H   UNL     1      -7.214   0.823 129.743  0.00  0.00    +0.000 HD
ENDBRANCH   9  42
TORSDOF 9
ENDMDL
MODEL 2
REMARK VINA RESULT:     -10.3      4.193      9.447
REMARK  Name = Dexamethasone metasulfobenzoate
REMARK  12 active torsions:
REMARK  status: ('A' for Active; 'I' for Inactive)
REMARK    1  A    between atoms: C_4  and  C_5
REMARK    2  A    between atoms: C_6  and  O_7
REMARK    3  A    between atoms: C_6  and  C_8
REMARK    4  A    between atoms: C_8  and  C_10
REMARK    5  A    between atoms: C_10  and  O_11
REMARK    6  A    between atoms: O_11  and  C_12
REMARK    7  A    between atoms: C_12  and  C_14
REMARK    8  A    between atoms: C_18  and  S_20
REMARK    9  A    between atoms: S_20  and  O_21
REMARK   10  A    between atoms: C_24  and  C_25
REMARK   11  A    between atoms: C_27  and  O_28
REMARK   12  A    between atoms: C_41  and  C_42
REMARK                            x       y       z     vdW  Elec       q    Type
REMARK                         _______ _______ _______ _____ _____    ______ ____
ROOT
ATOM      1  C   UNL     1      -3.700   4.356 127.227  0.00  0.00    +0.000 C 
ATOM      2  C   UNL     1      -2.775   3.322 127.590  0.00  0.00    +0.000 C 
ATOM      3  C   UNL     1      -4.089   3.006 128.317  0.00  0.00    +0.000 C 
ATOM      4  C   UNL     1      -3.872   1.951 129.842  0.00  0.00    +0.000 C 
ATOM      5  C   UNL     1      -5.683   4.168 127.619  0.00  0.00    +0.000 C 
ATOM      6  C   UNL     1      -5.107   3.120 127.038  0.00  0.00    +0.000 C 
ATOM      7  C   UNL     1      -5.191   2.513 125.695  0.00  0.00    +0.000 C 
ATOM      8  C   UNL     1      -6.034   2.530 128.571  0.00  0.00    +0.000 C 
ATOM      9  C   UNL     1      -5.874   3.830 129.899  0.00  0.00    +0.000 C 
ATOM     10  C   UNL     1      -4.426   4.873 130.006  0.00  0.00    +0.000 C 
ATOM     11  F   UNL     1      -3.350   4.001 129.832  0.00  0.00    +0.000 F 
ATOM     12  C   UNL     1      -3.918   5.554 128.598  0.00  0.00    +0.000 C 
ATOM     13  C   UNL     1      -2.478   6.060 128.822  0.00  0.00    +0.000 C 
ATOM     14  C   UNL     1      -2.356   6.822 130.103  0.00  0.00    +0.000 C 
ATOM     15  C   UNL     1      -2.407   5.822 131.214  0.00  0.00    +0.000 C 
ATOM     16  C   UNL     1      -1.538   5.771 132.255  0.00  0.00    +0.000 C 
ATOM     17  C   UNL     1      -1.874   7.077 132.776  0.00  0.00    +0.000 C 
ATOM     18  O   UNL     1      -1.223   8.076 132.555  0.00  0.00    +0.000 OA
ATOM     19  C   UNL     1      -3.215   6.883 133.446  0.00  0.00    +0.000 C 
ATOM     20  C   UNL     1      -4.175   6.099 132.795  0.00  0.00    +0.000 C 
ATOM     21  C   UNL     1      -3.757   5.211 131.513  0.00  0.00    +0.000 C 
ATOM     22  C   UNL     1      -3.201   3.752 131.956  0.00  0.00    +0.000 C 
ENDROOT
BRANCH   5  23
ATOM     23  O   UNL     1      -5.530   5.223 126.507  0.00  0.00    +0.000 OA
ATOM     24  H   UNL     1      -4.671   5.656 126.426  0.00  0.00    +0.000 HD
ENDBRANCH   5  23
BRANCH   5  25
ATOM     25  C   UNL     1      -7.445   3.877 127.011  0.00  0.00    +0.000 C 
ATOM     26  O   UNL     1      -8.193   4.826 126.715  0.00  0.00    +0.000 OA
BRANCH  25  27
ATOM     27  C   UNL     1      -8.243   2.435 126.887  0.00  0.00    +0.000 C 
BRANCH  27  28
ATOM     28  O   UNL     1      -9.163   2.501 125.652  0.00  0.00    +0.000 OA
BRANCH  28  29
ATOM     29  C   UNL     1      -8.721   2.244 124.379  0.00  0.00    +0.000 C 
ATOM     30  O   UNL     1      -8.788   3.045 123.455  0.00  0.00    +0.000 OA
BRANCH  29  31
ATOM     31  C   UNL     1      -8.143   0.849 124.133  0.00  0.00    +0.000 A 
ATOM     32  C   UNL     1      -7.033   0.686 123.269  0.00  0.00    +0.000 A 
ATOM     33  C   UNL     1      -6.623  -0.589 122.818  0.00  0.00    +0.000 A 
ATOM     34  C   UNL     1      -7.257  -1.738 123.286  0.00  0.00    +0.000 A 
ATOM     35  C   UNL     1      -8.348  -1.592 124.151  0.00  0.00    +0.000 A 
ATOM     36  C   UNL     1      -8.790  -0.314 124.574  0.00  0.00    +0.000 A 
BRANCH  35  37
ATOM     37  S   UNL     1      -9.227  -3.056 124.679  0.00  0.00    +0.000 S 
ATOM     38  O   UNL     1      -8.249  -4.111 124.826  0.00  0.00    +0.000 OA
ATOM     39  O   UNL     1     -10.115  -2.673 125.753  0.00  0.00    +0.000 OA
BRANCH  37  40
ATOM     40  O   UNL     1     -10.151  -3.444 123.409  0.00  0.00    +0.000 OA
ATOM     41  H   UNL     1      -9.709  -4.107 122.842  0.00  0.00    +0.000 HD
ENDBRANCH  37  40
ENDBRANCH  35  37
ENDBRANCH  29  31
ENDBRANCH  28  29
ENDBRANCH  27  28
ENDBRANCH  25  27
ENDBRANCH   5  25
BRANCH   9  42
ATOM     42  O   UNL     1      -7.054   4.654 129.785  0.00  0.00    +0.000 OA
ATOM     43  H   UNL     1      -7.496   4.721 130.643  0.00  0.00    +0.000 HD
ENDBRANCH   9  42
TORSDOF 9
ENDMDL
MODEL 3
REMARK VINA RESULT:     -10.3      2.822      3.675
REMARK  Name = Dexamethasone metasulfobenzoate
REMARK  12 active torsions:
REMARK  status: ('A' for Active; 'I' for Inactive)
REMARK    1  A    between atoms: C_4  and  C_5
REMARK    2  A    between atoms: C_6  and  O_7
REMARK    3  A    between atoms: C_6  and  C_8
REMARK    4  A    between atoms: C_8  and  C_10
REMARK    5  A    between atoms: C_10  and  O_11
REMARK    6  A    between atoms: O_11  and  C_12
REMARK    7  A    between atoms: C_12  and  C_14
REMARK    8  A    between atoms: C_18  and  S_20
REMARK    9  A    between atoms: S_20  and  O_21
REMARK   10  A    between atoms: C_24  and  C_25
REMARK   11  A    between atoms: C_27  and  O_28
REMARK   12  A    between atoms: C_41  and  C_42
REMARK                            x       y       z     vdW  Elec       q    Type
REMARK                         _______ _______ _______ _____ _____    ______ ____
ROOT
ATOM      1  C   UNL     1      -7.305  -3.297 130.461  0.00  0.00    +0.000 C 
ATOM      2  C   UNL     1      -6.300  -4.217 130.013  0.00  0.00    +0.000 C 
ATOM      3  C   UNL     1      -5.699  -2.813 129.871  0.00  0.00    +0.000 C 
ATOM      4  C   UNL     1      -4.324  -2.707 128.612  0.00  0.00    +0.000 C 
ATOM      5  C   UNL     1      -6.849  -1.353 130.832  0.00  0.00    +0.000 C 
ATOM      6  C   UNL     1      -6.033  -2.252 131.373  0.00  0.00    +0.000 C 
ATOM      7  C   UNL     1      -5.771  -2.704 132.755  0.00  0.00    +0.000 C 
ATOM      8  C   UNL     1      -5.003  -0.998 130.414  0.00  0.00    +0.000 C 
ATOM      9  C   UNL     1      -5.944  -0.505 128.880  0.00  0.00    +0.000 C 
ATOM     10  C   UNL     1      -7.053  -1.647 128.067  0.00  0.00    +0.000 C 
ATOM     11  F   UNL     1      -6.351  -2.853 128.026  0.00  0.00    +0.000 F 
ATOM     12  C   UNL     1      -8.103  -2.455 129.041  0.00  0.00    +0.000 C 
ATOM     13  C   UNL     1      -8.665  -3.641 128.231  0.00  0.00    +0.000 C 
ATOM     14  C   UNL     1      -9.095  -3.219 126.863  0.00  0.00    +0.000 C 
ATOM     15  C   UNL     1      -7.851  -2.985 126.065  0.00  0.00    +0.000 C 
ATOM     16  C   UNL     1      -7.624  -3.472 124.819  0.00  0.00    +0.000 C 
ATOM     17  C   UNL     1      -8.725  -2.774 124.197  0.00  0.00    +0.000 C 
ATOM     18  O   UNL     1      -9.802  -3.284 123.970  0.00  0.00    +0.000 OA
ATOM     19  C   UNL     1      -8.253  -1.341 124.090  0.00  0.00    +0.000 C 
ATOM     20  C   UNL     1      -7.570  -0.785 125.179  0.00  0.00    +0.000 C 
ATOM     21  C   UNL     1      -7.068  -1.733 126.386  0.00  0.00    +0.000 C 
ATOM     22  C   UNL     1      -5.600  -2.356 126.080  0.00  0.00    +0.000 C 
ENDROOT
BRANCH   5  23
ATOM     23  O   UNL     1      -8.156  -1.674 131.583  0.00  0.00    +0.000 OA
ATOM     24  H   UNL     1      -8.705  -0.926 131.850  0.00  0.00    +0.000 HD
ENDBRANCH   5  23
BRANCH   5  25
ATOM     25  C   UNL     1      -6.561   0.048 132.062  0.00  0.00    +0.000 C 
ATOM     26  O   UNL     1      -7.459   0.427 132.834  0.00  0.00    +0.000 OA
BRANCH  25  27
ATOM     27  C   UNL     1      -5.210   0.985 132.222  0.00  0.00    +0.000 C 
BRANCH  27  28
ATOM     28  O   UNL     1      -5.432   2.287 131.427  0.00  0.00    +0.000 OA
BRANCH  28  29
ATOM     29  C   UNL     1      -4.746   3.446 131.688  0.00  0.00    +0.000 C 
ATOM     30  O   UNL     1      -4.843   4.081 132.730  0.00  0.00    +0.000 OA
BRANCH  29  31
ATOM     31  C   UNL     1      -3.837   3.959 130.569  0.00  0.00    +0.000 A 
ATOM     32  C   UNL     1      -3.227   5.232 130.680  0.00  0.00    +0.000 A 
ATOM     33  C   UNL     1      -2.589   5.851 129.582  0.00  0.00    +0.000 A 
ATOM     34  C   UNL     1      -2.470   5.176 128.368  0.00  0.00    +0.000 A 
ATOM     35  C   UNL     1      -3.058   3.912 128.247  0.00  0.00    +0.000 A 
ATOM     36  C   UNL     1      -3.735   3.304 129.333  0.00  0.00    +0.000 A 
BRANCH  35  37
ATOM     37  S   UNL     1      -2.993   3.083 126.665  0.00  0.00    +0.000 S 
ATOM     38  O   UNL     1      -3.723   3.903 125.723  0.00  0.00    +0.000 OA
ATOM     39  O   UNL     1      -1.625   2.677 126.435  0.00  0.00    +0.000 OA
BRANCH  37  40
ATOM     40  O   UNL     1      -3.862   1.735 126.887  0.00  0.00    +0.000 OA
ATOM     41  H   UNL     1      -4.624   1.704 126.276  0.00  0.00    +0.000 HD
ENDBRANCH  37  40
ENDBRANCH  35  37
ENDBRANCH  29  31
ENDBRANCH  28  29
ENDBRANCH  27  28
ENDBRANCH  25  27
ENDBRANCH   5  25
BRANCH   9  42
ATOM     42  O   UNL     1      -6.661   0.698 129.231  0.00  0.00    +0.000 OA
ATOM     43  H   UNL     1      -7.554   0.474 129.532  0.00  0.00    +0.000 HD
ENDBRANCH   9  42
TORSDOF 9
ENDMDL
MODEL 4
REMARK VINA RESULT:     -10.2      2.568      3.769
REMARK  Name = Dexamethasone metasulfobenzoate
REMARK  12 active torsions:
REMARK  status: ('A' for Active; 'I' for Inactive)
REMARK    1  A    between atoms: C_4  and  C_5
REMARK    2  A    between atoms: C_6  and  O_7
REMARK    3  A    between atoms: C_6  and  C_8
REMARK    4  A    between atoms: C_8  and  C_10
REMARK    5  A    between atoms: C_10  and  O_11
REMARK    6  A    between atoms: O_11  and  C_12
REMARK    7  A    between atoms: C_12  and  C_14
REMARK    8  A    between atoms: C_18  and  S_20
REMARK    9  A    between atoms: S_20  and  O_21
REMARK   10  A    between atoms: C_24  and  C_25
REMARK   11  A    between atoms: C_27  and  O_28
REMARK   12  A    between atoms: C_41  and  C_42
REMARK                            x       y       z     vdW  Elec       q    Type
REMARK                         _______ _______ _______ _____ _____    ______ ____
ROOT
ATOM      1  C   UNL     1      -6.625   0.122 129.125  0.00  0.00    +0.000 C 
ATOM      2  C   UNL     1      -5.376   0.016 128.429  0.00  0.00    +0.000 C 
ATOM      3  C   UNL     1      -5.740   1.506 128.445  0.00  0.00    +0.000 C 
ATOM      4  C   UNL     1      -4.942   2.492 127.075  0.00  0.00    +0.000 C 
ATOM      5  C   UNL     1      -7.323   1.924 129.748  0.00  0.00    +0.000 C 
ATOM      6  C   UNL     1      -6.054   1.661 130.046  0.00  0.00    +0.000 C 
ATOM      7  C   UNL     1      -5.331   1.371 131.300  0.00  0.00    +0.000 C 
ATOM      8  C   UNL     1      -6.141   3.339 129.190  0.00  0.00    +0.000 C 
ATOM      9  C   UNL     1      -7.456   3.265 127.868  0.00  0.00    +0.000 C 
ATOM     10  C   UNL     1      -7.823   1.739 127.011  0.00  0.00    +0.000 C 
ATOM     11  F   UNL     1      -6.573   1.198 126.701  0.00  0.00    +0.000 F 
ATOM     12  C   UNL     1      -8.008   0.405 127.954  0.00  0.00    +0.000 C 
ATOM     13  C   UNL     1      -7.914  -0.829 127.033  0.00  0.00    +0.000 C 
ATOM     14  C   UNL     1      -8.752  -0.664 125.806  0.00  0.00    +0.000 C 
ATOM     15  C   UNL     1      -8.046   0.317 124.923  0.00  0.00    +0.000 C 
ATOM     16  C   UNL     1      -7.812   0.141 123.598  0.00  0.00    +0.000 C 
ATOM     17  C   UNL     1      -9.205   0.079 123.220  0.00  0.00    +0.000 C 
ATOM     18  O   UNL     1      -9.806  -0.959 123.035  0.00  0.00    +0.000 OA
ATOM     19  C   UNL     1      -9.682   1.512 123.291  0.00  0.00    +0.000 C 
ATOM     20  C   UNL     1      -9.263   2.297 124.372  0.00  0.00    +0.000 C 
ATOM     21  C   UNL     1      -8.092   1.766 125.350  0.00  0.00    +0.000 C 
ATOM     22  C   UNL     1      -6.623   2.165 124.788  0.00  0.00    +0.000 C 
ENDROOT
BRANCH   5  23
ATOM     23  O   UNL     1      -8.036   0.840 130.579  0.00  0.00    +0.000 OA
ATOM     24  H   UNL     1      -8.470   1.123 131.393  0.00  0.00    +0.000 HD
ENDBRANCH   5  23
BRANCH   5  25
ATOM     25  C   UNL     1      -7.682   3.140 131.145  0.00  0.00    +0.000 C 
ATOM     26  O   UNL     1      -8.792   3.174 131.706  0.00  0.00    +0.000 OA
BRANCH  25  27
ATOM     27  C   UNL     1      -6.690   4.326 131.727  0.00  0.00    +0.000 C 
BRANCH  27  28
ATOM     28  O   UNL     1      -7.560   5.548 132.082  0.00  0.00    +0.000 OA
BRANCH  28  29
ATOM     29  C   UNL     1      -7.900   6.512 131.167  0.00  0.00    +0.000 C 
ATOM     30  O   UNL     1      -7.088   7.161 130.520  0.00  0.00    +0.000 OA
BRANCH  29  31
ATOM     31  C   UNL     1      -9.396   6.782 130.995  0.00  0.00    +0.000 A 
ATOM     32  C   UNL     1     -10.311   6.349 131.986  0.00  0.00    +0.000 A 
ATOM     33  C   UNL     1     -11.706   6.349 131.761  0.00  0.00    +0.000 A 
ATOM     34  C   UNL     1     -12.226   6.864 130.575  0.00  0.00    +0.000 A 
ATOM     35  C   UNL     1     -11.334   7.307 129.592  0.00  0.00    +0.000 A 
ATOM     36  C   UNL     1      -9.932   7.269 129.795  0.00  0.00    +0.000 A 
BRANCH  35  37
ATOM     37  S   UNL     1     -11.990   7.878 128.031  0.00  0.00    +0.000 S 
ATOM     38  O   UNL     1     -12.163   6.714 127.189  0.00  0.00    +0.000 OA
ATOM     39  O   UNL     1     -13.073   8.791 128.315  0.00  0.00    +0.000 OA
BRANCH  37  40
ATOM     40  O   UNL     1     -10.786   8.748 127.388  0.00  0.00    +0.000 OA
ATOM     41  H   UNL     1     -10.942   8.915 126.438  0.00  0.00    +0.000 HD
ENDBRANCH  37  40
ENDBRANCH  35  37
ENDBRANCH  29  31
ENDBRANCH  28  29
ENDBRANCH  27  28
ENDBRANCH  25  27
ENDBRANCH   5  25
BRANCH   9  42
ATOM     42  O   UNL     1      -8.658   3.774 128.483  0.00  0.00    +0.000 OA
ATOM     43  H   UNL     1      -8.566   4.722 128.655  0.00  0.00    +0.000 HD
ENDBRANCH   9  42
TORSDOF 9
ENDMDL
MODEL 5
REMARK VINA RESULT:     -10.2      2.463      3.117
REMARK  Name = Dexamethasone metasulfobenzoate
REMARK  12 active torsions:
REMARK  status: ('A' for Active; 'I' for Inactive)
REMARK    1  A    between atoms: C_4  and  C_5
REMARK    2  A    between atoms: C_6  and  O_7
REMARK    3  A    between atoms: C_6  and  C_8
REMARK    4  A    between atoms: C_8  and  C_10
REMARK    5  A    between atoms: C_10  and  O_11
REMARK    6  A    between atoms: O_11  and  C_12
REMARK    7  A    between atoms: C_12  and  C_14
REMARK    8  A    between atoms: C_18  and  S_20
REMARK    9  A    between atoms: S_20  and  O_21
REMARK   10  A    between atoms: C_24  and  C_25
REMARK   11  A    between atoms: C_27  and  O_28
REMARK   12  A    between atoms: C_41  and  C_42
REMARK                            x       y       z     vdW  Elec       q    Type
REMARK                         _______ _______ _______ _____ _____    ______ ____
ROOT
ATOM      1  C   UNL     1      -7.438  -3.074 130.176  0.00  0.00    +0.000 C 
ATOM      2  C   UNL     1      -6.461  -4.061 129.818  0.00  0.00    +0.000 C 
ATOM      3  C   UNL     1      -5.814  -2.694 129.561  0.00  0.00    +0.000 C 
ATOM      4  C   UNL     1      -4.429  -2.739 128.310  0.00  0.00    +0.000 C 
ATOM      5  C   UNL     1      -6.922  -1.121 130.384  0.00  0.00    +0.000 C 
ATOM      6  C   UNL     1      -6.138  -1.996 131.007  0.00  0.00    +0.000 C 
ATOM      7  C   UNL     1      -5.900  -2.335 132.425  0.00  0.00    +0.000 C 
ATOM      8  C   UNL     1      -5.063  -0.861 129.953  0.00  0.00    +0.000 C 
ATOM      9  C   UNL     1      -5.979  -0.472 128.374  0.00  0.00    +0.000 C 
ATOM     10  C   UNL     1      -7.120  -1.644 127.653  0.00  0.00    +0.000 C 
ATOM     11  F   UNL     1      -6.456  -2.871 127.721  0.00  0.00    +0.000 F 
ATOM     12  C   UNL     1      -8.200  -2.332 128.683  0.00  0.00    +0.000 C 
ATOM     13  C   UNL     1      -8.796  -3.565 127.973  0.00  0.00    +0.000 C 
ATOM     14  C   UNL     1      -9.204  -3.249 126.570  0.00  0.00    +0.000 C 
ATOM     15  C   UNL     1      -7.948  -3.124 125.766  0.00  0.00    +0.000 C 
ATOM     16  C   UNL     1      -7.729  -3.723 124.568  0.00  0.00    +0.000 C 
ATOM     17  C   UNL     1      -8.804  -3.046 123.879  0.00  0.00    +0.000 C 
ATOM     18  O   UNL     1      -9.895  -3.539 123.687  0.00  0.00    +0.000 OA
ATOM     19  C   UNL     1      -8.285  -1.644 123.654  0.00  0.00    +0.000 C 
ATOM     20  C   UNL     1      -7.592  -1.018 124.697  0.00  0.00    +0.000 C 
ATOM     21  C   UNL     1      -7.127  -1.874 125.985  0.00  0.00    +0.000 C 
ATOM     22  C   UNL     1      -5.678  -2.567 125.746  0.00  0.00    +0.000 C 
ENDROOT
BRANCH   5  23
ATOM     23  O   UNL     1      -8.243  -1.334 131.149  0.00  0.00    +0.000 OA
ATOM     24  H   UNL     1      -9.038  -1.485 130.622  0.00  0.00    +0.000 HD
ENDBRANCH   5  23
BRANCH   5  25
ATOM     25  C   UNL     1      -6.597   0.371 131.492  0.00  0.00    +0.000 C 
ATOM     26  O   UNL     1      -7.485   0.840 132.224  0.00  0.00    +0.000 OA
BRANCH  25  27
ATOM     27  C   UNL     1      -5.219   1.279 131.578  0.00  0.00    +0.000 C 
BRANCH  27  28
ATOM     28  O   UNL     1      -5.415   2.532 130.702  0.00  0.00    +0.000 OA
BRANCH  28  29
ATOM     29  C   UNL     1      -4.368   3.228 130.152  0.00  0.00    +0.000 C 
ATOM     30  O   UNL     1      -3.492   3.779 130.806  0.00  0.00    +0.000 OA
BRANCH  29  31
ATOM     31  C   UNL     1      -4.349   3.323 128.625  0.00  0.00    +0.000 A 
ATOM     32  C   UNL     1      -3.126   3.190 127.923  0.00  0.00    +0.000 A 
ATOM     33  C   UNL     1      -3.015   3.514 126.553  0.00  0.00    +0.000 A 
ATOM     34  C   UNL     1      -4.142   3.896 125.828  0.00  0.00    +0.000 A 
ATOM     35  C   UNL     1      -5.361   4.019 126.505  0.00  0.00    +0.000 A 
ATOM     36  C   UNL     1      -5.469   3.736 127.889  0.00  0.00    +0.000 A 
BRANCH  35  37
ATOM     37  S   UNL     1      -6.790   4.601 125.604  0.00  0.00    +0.000 S 
ATOM     38  O   UNL     1      -7.011   3.679 124.512  0.00  0.00    +0.000 OA
ATOM     39  O   UNL     1      -7.820   4.917 126.567  0.00  0.00    +0.000 OA
BRANCH  37  40
ATOM     40  O   UNL     1      -6.303   5.998 124.947  0.00  0.00    +0.000 OA
ATOM     41  H   UNL     1      -6.949   6.321 124.289  0.00  0.00    +0.000 HD
ENDBRANCH  37  40
ENDBRANCH  35  37
ENDBRANCH  29  31
ENDBRANCH  28  29
ENDBRANCH  27  28
ENDBRANCH  25  27
ENDBRANCH   5  25
BRANCH   9  42
ATOM     42  O   UNL     1      -6.660   0.778 128.615  0.00  0.00    +0.000 OA
ATOM     43  H   UNL     1      -6.460   1.405 127.905  0.00  0.00    +0.000 HD
ENDBRANCH   9  42
TORSDOF 9
ENDMDL
MODEL 6
REMARK VINA RESULT:     -10.1      2.190      3.247
REMARK  Name = Dexamethasone metasulfobenzoate
REMARK  12 active torsions:
REMARK  status: ('A' for Active; 'I' for Inactive)
REMARK    1  A    between atoms: C_4  and  C_5
REMARK    2  A    between atoms: C_6  and  O_7
REMARK    3  A    between atoms: C_6  and  C_8
REMARK    4  A    between atoms: C_8  and  C_10
REMARK    5  A    between atoms: C_10  and  O_11
REMARK    6  A    between atoms: O_11  and  C_12
REMARK    7  A    between atoms: C_12  and  C_14
REMARK    8  A    between atoms: C_18  and  S_20
REMARK    9  A    between atoms: S_20  and  O_21
REMARK   10  A    between atoms: C_24  and  C_25
REMARK   11  A    between atoms: C_27  and  O_28
REMARK   12  A    between atoms: C_41  and  C_42
REMARK                            x       y       z     vdW  Elec       q    Type
REMARK                         _______ _______ _______ _____ _____    ______ ____
ROOT
ATOM      1  C   UNL     1      -7.256  -0.968 130.861  0.00  0.00    +0.000 C 
ATOM      2  C   UNL     1      -5.843  -1.118 130.670  0.00  0.00    +0.000 C 
ATOM      3  C   UNL     1      -6.213   0.266 130.120  0.00  0.00    +0.000 C 
ATOM      4  C   UNL     1      -5.010   0.919 128.850  0.00  0.00    +0.000 C 
ATOM      5  C   UNL     1      -8.152   0.842 130.654  0.00  0.00    +0.000 C 
ATOM      6  C   UNL     1      -7.057   0.822 131.409  0.00  0.00    +0.000 C 
ATOM      7  C   UNL     1      -6.801   0.978 132.855  0.00  0.00    +0.000 C 
ATOM      8  C   UNL     1      -6.872   2.174 130.108  0.00  0.00    +0.000 C 
ATOM      9  C   UNL     1      -7.654   1.583 128.520  0.00  0.00    +0.000 C 
ATOM     10  C   UNL     1      -7.684  -0.153 128.092  0.00  0.00    +0.000 C 
ATOM     11  F   UNL     1      -6.396  -0.609 128.378  0.00  0.00    +0.000 F 
ATOM     12  C   UNL     1      -8.160  -1.184 129.281  0.00  0.00    +0.000 C 
ATOM     13  C   UNL     1      -7.738  -2.606 128.855  0.00  0.00    +0.000 C 
ATOM     14  C   UNL     1      -8.109  -2.887 127.434  0.00  0.00    +0.000 C 
ATOM     15  C   UNL     1      -7.159  -2.115 126.573  0.00  0.00    +0.000 C 
ATOM     16  C   UNL     1      -6.484  -2.623 125.512  0.00  0.00    +0.000 C 
ATOM     17  C   UNL     1      -7.663  -2.950 124.743  0.00  0.00    +0.000 C 
ATOM     18  O   UNL     1      -8.149  -4.060 124.697  0.00  0.00    +0.000 OA
ATOM     19  C   UNL     1      -8.157  -1.619 124.223  0.00  0.00    +0.000 C 
ATOM     20  C   UNL     1      -8.144  -0.521 125.092  0.00  0.00    +0.000 C 
ATOM     21  C   UNL     1      -7.370  -0.620 126.506  0.00  0.00    +0.000 C 
ATOM     22  C   UNL     1      -5.803  -0.224 126.354  0.00  0.00    +0.000 C 
ENDROOT
BRANCH   5  23
ATOM     23  O   UNL     1      -9.089  -0.044 131.497  0.00  0.00    +0.000 OA
ATOM     24  H   UNL     1      -9.631  -0.688 131.024  0.00  0.00    +0.000 HD
ENDBRANCH   5  23
BRANCH   5  25
ATOM     25  C   UNL     1      -8.984   2.348 131.428  0.00  0.00    +0.000 C 
ATOM     26  O   UNL     1     -10.218   2.503 131.379  0.00  0.00    +0.000 OA
BRANCH  25  27
ATOM     27  C   UNL     1      -8.254   3.645 132.145  0.00  0.00    +0.000 C 
BRANCH  27  28
ATOM     28  O   UNL     1      -8.652   4.913 131.363  0.00  0.00    +0.000 OA
BRANCH  28  29
ATOM     29  C   UNL     1      -9.470   5.883 131.884  0.00  0.00    +0.000 C 
ATOM     30  O   UNL     1      -9.447   6.245 133.053  0.00  0.00    +0.000 OA
BRANCH  29  31
ATOM     31  C   UNL     1     -10.480   6.505 130.917  0.00  0.00    +0.000 A 
ATOM     32  C   UNL     1     -11.803   6.768 131.347  0.00  0.00    +0.000 A 
ATOM     33  C   UNL     1     -12.829   7.104 130.437  0.00  0.00    +0.000 A 
ATOM     34  C   UNL     1     -12.540   7.270 129.083  0.00  0.00    +0.000 A 
ATOM     35  C   UNL     1     -11.234   7.026 128.645  0.00  0.00    +0.000 A 
ATOM     36  C   UNL     1     -10.210   6.648 129.548  0.00  0.00    +0.000 A 
BRANCH  35  37
ATOM     37  S   UNL     1     -10.878   7.143 126.897  0.00  0.00    +0.000 S 
ATOM     38  O   UNL     1     -10.883   8.549 126.554  0.00  0.00    +0.000 OA
ATOM     39  O   UNL     1      -9.748   6.286 126.619  0.00  0.00    +0.000 OA
BRANCH  37  40
ATOM     40  O   UNL     1     -12.170   6.480 126.184  0.00  0.00    +0.000 OA
ATOM     41  H   UNL     1     -11.999   5.549 125.941  0.00  0.00    +0.000 HD
ENDBRANCH  37  40
ENDBRANCH  35  37
ENDBRANCH  29  31
ENDBRANCH  28  29
ENDBRANCH  27  28
ENDBRANCH  25  27
ENDBRANCH   5  25
BRANCH   9  42
ATOM     42  O   UNL     1      -9.002   2.099 128.533  0.00  0.00    +0.000 OA
ATOM     43  H   UNL     1      -8.987   3.066 128.476  0.00  0.00    +0.000 HD
ENDBRANCH   9  42
TORSDOF 9
ENDMDL
MODEL 7
REMARK VINA RESULT:     -10.1      5.325      8.058
REMARK  Name = Dexamethasone metasulfobenzoate
REMARK  12 active torsions:
REMARK  status: ('A' for Active; 'I' for Inactive)
REMARK    1  A    between atoms: C_4  and  C_5
REMARK    2  A    between atoms: C_6  and  O_7
REMARK    3  A    between atoms: C_6  and  C_8
REMARK    4  A    between atoms: C_8  and  C_10
REMARK    5  A    between atoms: C_10  and  O_11
REMARK    6  A    between atoms: O_11  and  C_12
REMARK    7  A    between atoms: C_12  and  C_14
REMARK    8  A    between atoms: C_18  and  S_20
REMARK    9  A    between atoms: S_20  and  O_21
REMARK   10  A    between atoms: C_24  and  C_25
REMARK   11  A    between atoms: C_27  and  O_28
REMARK   12  A    between atoms: C_41  and  C_42
REMARK                            x       y       z     vdW  Elec       q    Type
REMARK                         _______ _______ _______ _____ _____    ______ ____
ROOT
ATOM      1  C   UNL     1      -6.767   4.376 133.535  0.00  0.00    +0.000 C 
ATOM      2  C   UNL     1      -7.306   3.112 133.127  0.00  0.00    +0.000 C 
ATOM      3  C   UNL     1      -6.569   3.684 131.909  0.00  0.00    +0.000 C 
ATOM      4  C   UNL     1      -7.173   3.009 130.276  0.00  0.00    +0.000 C 
ATOM      5  C   UNL     1      -5.382   5.336 132.401  0.00  0.00    +0.000 C 
ATOM      6  C   UNL     1      -5.146   4.048 132.635  0.00  0.00    +0.000 C 
ATOM      7  C   UNL     1      -4.153   3.315 133.445  0.00  0.00    +0.000 C 
ATOM      8  C   UNL     1      -5.038   4.357 130.778  0.00  0.00    +0.000 C 
ATOM      9  C   UNL     1      -6.326   5.622 130.310  0.00  0.00    +0.000 C 
ATOM     10  C   UNL     1      -7.867   5.752 131.208  0.00  0.00    +0.000 C 
ATOM     11  F   UNL     1      -8.295   4.432 131.368  0.00  0.00    +0.000 F 
ATOM     12  C   UNL     1      -7.750   5.763 132.848  0.00  0.00    +0.000 C 
ATOM     13  C   UNL     1      -9.157   5.477 133.413  0.00  0.00    +0.000 C 
ATOM     14  C   UNL     1     -10.201   6.306 132.736  0.00  0.00    +0.000 C 
ATOM     15  C   UNL     1     -10.398   5.731 131.369  0.00  0.00    +0.000 C 
ATOM     16  C   UNL     1     -11.602   5.449 130.811  0.00  0.00    +0.000 C 
ATOM     17  C   UNL     1     -12.082   6.812 130.826  0.00  0.00    +0.000 C 
ATOM     18  O   UNL     1     -12.820   7.255 131.682  0.00  0.00    +0.000 OA
ATOM     19  C   UNL     1     -11.338   7.489 129.698  0.00  0.00    +0.000 C 
ATOM     20  C   UNL     1      -9.976   7.207 129.539  0.00  0.00    +0.000 C 
ATOM     21  C   UNL     1      -9.302   5.991 130.362  0.00  0.00    +0.000 C 
ATOM     22  C   UNL     1      -9.450   4.583 129.568  0.00  0.00    +0.000 C 
ENDROOT
BRANCH   5  23
ATOM     23  O   UNL     1      -5.282   5.903 133.831  0.00  0.00    +0.000 OA
ATOM     24  H   UNL     1      -5.977   6.510 134.113  0.00  0.00    +0.000 HD
ENDBRANCH   5  23
BRANCH   5  25
ATOM     25  C   UNL     1      -3.599   5.890 132.127  0.00  0.00    +0.000 C 
ATOM     26  O   UNL     1      -3.035   6.670 132.914  0.00  0.00    +0.000 OA
BRANCH  25  27
ATOM     27  C   UNL     1      -2.621   5.536 130.843  0.00  0.00    +0.000 C 
BRANCH  27  28
ATOM     28  O   UNL     1      -2.707   6.703 129.838  0.00  0.00    +0.000 OA
BRANCH  28  29
ATOM     29  C   UNL     1      -2.475   6.548 128.495  0.00  0.00    +0.000 C 
ATOM     30  O   UNL     1      -1.835   7.338 127.814  0.00  0.00    +0.000 OA
BRANCH  29  31
ATOM     31  C   UNL     1      -3.098   5.314 127.840  0.00  0.00    +0.000 A 
ATOM     32  C   UNL     1      -2.311   4.158 127.617  0.00  0.00    +0.000 A 
ATOM     33  C   UNL     1      -2.762   3.096 126.802  0.00  0.00    +0.000 A 
ATOM     34  C   UNL     1      -4.046   3.123 126.259  0.00  0.00    +0.000 A 
ATOM     35  C   UNL     1      -4.840   4.254 126.482  0.00  0.00    +0.000 A 
ATOM     36  C   UNL     1      -4.377   5.341 127.264  0.00  0.00    +0.000 A 
BRANCH  35  37
ATOM     37  S   UNL     1      -6.449   4.339 125.709  0.00  0.00    +0.000 S 
ATOM     38  O   UNL     1      -6.681   3.065 125.064  0.00  0.00    +0.000 OA
ATOM     39  O   UNL     1      -7.372   4.894 126.673  0.00  0.00    +0.000 OA
BRANCH  37  40
ATOM     40  O   UNL     1      -6.268   5.435 124.532  0.00  0.00    +0.000 OA
ATOM     41  H   UNL     1      -7.033   6.041 124.496  0.00  0.00    +0.000 HD
ENDBRANCH  37  40
ENDBRANCH  35  37
ENDBRANCH  29  31
ENDBRANCH  28  29
ENDBRANCH  27  28
ENDBRANCH  25  27
ENDBRANCH   5  25
BRANCH   9  42
ATOM     42  O   UNL     1      -5.649   6.897 130.328  0.00  0.00    +0.000 OA
ATOM     43  H   UNL     1      -6.070   7.486 130.970  0.00  0.00    +0.000 HD
ENDBRANCH   9  42
TORSDOF 9
ENDMDL
MODEL 8
REMARK VINA RESULT:     -10.0      2.681      3.759
REMARK  Name = Dexamethasone metasulfobenzoate
REMARK  12 active torsions:
REMARK  status: ('A' for Active; 'I' for Inactive)
REMARK    1  A    between atoms: C_4  and  C_5
REMARK    2  A    between atoms: C_6  and  O_7
REMARK    3  A    between atoms: C_6  and  C_8
REMARK    4  A    between atoms: C_8  and  C_10
REMARK    5  A    between atoms: C_10  and  O_11
REMARK    6  A    between atoms: O_11  and  C_12
REMARK    7  A    between atoms: C_12  and  C_14
REMARK    8  A    between atoms: C_18  and  S_20
REMARK    9  A    between atoms: S_20  and  O_21
REMARK   10  A    between atoms: C_24  and  C_25
REMARK   11  A    between atoms: C_27  and  O_28
REMARK   12  A    between atoms: C_41  and  C_42
REMARK                            x       y       z     vdW  Elec       q    Type
REMARK                         _______ _______ _______ _____ _____    ______ ____
ROOT
ATOM      1  C   UNL     1      -8.109   1.923 128.445  0.00  0.00    +0.000 C 
ATOM      2  C   UNL     1      -7.952   0.720 129.209  0.00  0.00    +0.000 C 
ATOM      3  C   UNL     1      -6.570   1.053 128.632  0.00  0.00    +0.000 C 
ATOM      4  C   UNL     1      -5.438  -0.425 128.489  0.00  0.00    +0.000 C 
ATOM      5  C   UNL     1      -6.492   2.975 127.811  0.00  0.00    +0.000 C 
ATOM      6  C   UNL     1      -6.486   2.623 129.093  0.00  0.00    +0.000 C 
ATOM      7  C   UNL     1      -6.620   3.362 130.364  0.00  0.00    +0.000 C 
ATOM      8  C   UNL     1      -4.862   2.077 128.305  0.00  0.00    +0.000 C 
ATOM      9  C   UNL     1      -5.206   1.516 126.560  0.00  0.00    +0.000 C 
ATOM     10  C   UNL     1      -6.774   0.780 126.115  0.00  0.00    +0.000 C 
ATOM     11  F   UNL     1      -7.043  -0.126 127.143  0.00  0.00    +0.000 F 
ATOM     12  C   UNL     1      -8.118   1.563 126.647  0.00  0.00    +0.000 C 
ATOM     13  C   UNL     1      -9.305   0.586 126.516  0.00  0.00    +0.000 C 
ATOM     14  C   UNL     1      -9.317  -0.089 125.182  0.00  0.00    +0.000 C 
ATOM     15  C   UNL     1      -8.210  -1.096 125.191  0.00  0.00    +0.000 C 
ATOM     16  C   UNL     1      -8.331  -2.389 124.797  0.00  0.00    +0.000 C 
ATOM     17  C   UNL     1      -8.682  -2.081 123.429  0.00  0.00    +0.000 C 
ATOM     18  O   UNL     1      -9.821  -2.068 123.014  0.00  0.00    +0.000 OA
ATOM     19  C   UNL     1      -7.379  -1.654 122.791  0.00  0.00    +0.000 C 
ATOM     20  C   UNL     1      -6.525  -0.819 123.521  0.00  0.00    +0.000 C 
ATOM     21  C   UNL     1      -6.802  -0.554 125.090  0.00  0.00    +0.000 C 
ATOM     22  C   UNL     1      -6.105  -1.691 126.016  0.00  0.00    +0.000 C 
ENDROOT
BRANCH   5  23
ATOM     23  O   UNL     1      -7.702   3.929 127.789  0.00  0.00    +0.000 OA
ATOM     24  H   UNL     1      -8.353   3.831 128.495  0.00  0.00    +0.000 HD
ENDBRANCH   5  23
BRANCH   5  25
ATOM     25  C   UNL     1      -5.380   4.493 127.944  0.00  0.00    +0.000 C 
ATOM     26  O   UNL     1      -5.272   5.302 127.005  0.00  0.00    +0.000 OA
BRANCH  25  27
ATOM     27  C   UNL     1      -4.373   4.897 129.190  0.00  0.00    +0.000 C 
BRANCH  27  28
ATOM     28  O   UNL     1      -4.575   6.393 129.505  0.00  0.00    +0.000 OA
BRANCH  28  29
ATOM     29  C   UNL     1      -4.765   6.868 130.778  0.00  0.00    +0.000 C 
ATOM     30  O   UNL     1      -3.879   7.355 131.468  0.00  0.00    +0.000 OA
BRANCH  29  31
ATOM     31  C   UNL     1      -6.181   6.735 131.343  0.00  0.00    +0.000 A 
ATOM     32  C   UNL     1      -6.382   6.149 132.616  0.00  0.00    +0.000 A 
ATOM     33  C   UNL     1      -7.668   5.779 133.070  0.00  0.00    +0.000 A 
ATOM     34  C   UNL     1      -8.794   6.064 132.300  0.00  0.00    +0.000 A 
ATOM     35  C   UNL     1      -8.611   6.655 131.044  0.00  0.00    +0.000 A 
ATOM     36  C   UNL     1      -7.321   6.989 130.566  0.00  0.00    +0.000 A 
BRANCH  35  37
ATOM     37  S   UNL     1     -10.042   6.935 130.010  0.00  0.00    +0.000 S 
ATOM     38  O   UNL     1     -11.203   6.916 130.873  0.00  0.00    +0.000 OA
ATOM     39  O   UNL     1      -9.746   8.051 129.141  0.00  0.00    +0.000 OA
BRANCH  37  40
ATOM     40  O   UNL     1     -10.126   5.612 129.081  0.00  0.00    +0.000 OA
ATOM     41  H   UNL     1     -10.208   4.805 129.626  0.00  0.00    +0.000 HD
ENDBRANCH  37  40
ENDBRANCH  35  37
ENDBRANCH  29  31
ENDBRANCH  28  29
ENDBRANCH  27  28
ENDBRANCH  25  27
ENDBRANCH   5  25
BRANCH   9  42
ATOM     42  O   UNL     1      -4.959   2.666 125.723  0.00  0.00    +0.000 OA
ATOM     43  H   UNL     1      -4.149   3.114 126.007  0.00  0.00    +0.000 HD
ENDBRANCH   9  42
TORSDOF 9
ENDMDL
MODEL 9
REMARK VINA RESULT:      -9.9      3.078      4.485
REMARK  Name = Dexamethasone metasulfobenzoate
REMARK  12 active torsions:
REMARK  status: ('A' for Active; 'I' for Inactive)
REMARK    1  A    between atoms: C_4  and  C_5
REMARK    2  A    between atoms: C_6  and  O_7
REMARK    3  A    between atoms: C_6  and  C_8
REMARK    4  A    between atoms: C_8  and  C_10
REMARK    5  A    between atoms: C_10  and  O_11
REMARK    6  A    between atoms: O_11  and  C_12
REMARK    7  A    between atoms: C_12  and  C_14
REMARK    8  A    between atoms: C_18  and  S_20
REMARK    9  A    between atoms: S_20  and  O_21
REMARK   10  A    between atoms: C_24  and  C_25
REMARK   11  A    between atoms: C_27  and  O_28
REMARK   12  A    between atoms: C_41  and  C_42
REMARK                            x       y       z     vdW  Elec       q    Type
REMARK                         _______ _______ _______ _____ _____    ______ ____
ROOT
ATOM      1  C   UNL     1      -4.923   1.623 127.472  0.00  0.00    +0.000 C 
ATOM      2  C   UNL     1      -4.326   2.097 126.258  0.00  0.00    +0.000 C 
ATOM      3  C   UNL     1      -5.781   2.582 126.245  0.00  0.00    +0.000 C 
ATOM      4  C   UNL     1      -6.443   2.933 124.535  0.00  0.00    +0.000 C 
ATOM      5  C   UNL     1      -6.719   2.334 128.099  0.00  0.00    +0.000 C 
ATOM      6  C   UNL     1      -5.827   3.252 127.740  0.00  0.00    +0.000 C 
ATOM      7  C   UNL     1      -5.034   4.259 128.473  0.00  0.00    +0.000 C 
ATOM      8  C   UNL     1      -7.439   3.580 126.819  0.00  0.00    +0.000 C 
ATOM      9  C   UNL     1      -8.218   1.942 126.382  0.00  0.00    +0.000 C 
ATOM     10  C   UNL     1      -7.217   0.496 126.063  0.00  0.00    +0.000 C 
ATOM     11  F   UNL     1      -6.188   0.954 125.239  0.00  0.00    +0.000 F 
ATOM     12  C   UNL     1      -6.020   0.189 127.148  0.00  0.00    +0.000 C 
ATOM     13  C   UNL     1      -5.054  -0.821 126.496  0.00  0.00    +0.000 C 
ATOM     14  C   UNL     1      -5.790  -1.957 125.862  0.00  0.00    +0.000 C 
ATOM     15  C   UNL     1      -6.420  -1.426 124.613  0.00  0.00    +0.000 C 
ATOM     16  C   UNL     1      -6.354  -2.022 123.395  0.00  0.00    +0.000 C 
ATOM     17  C   UNL     1      -7.040  -3.229 123.797  0.00  0.00    +0.000 C 
ATOM     18  O   UNL     1      -6.471  -4.258 124.097  0.00  0.00    +0.000 OA
ATOM     19  C   UNL     1      -8.493  -2.824 123.896  0.00  0.00    +0.000 C 
ATOM     20  C   UNL     1      -8.799  -1.591 124.485  0.00  0.00    +0.000 C 
ATOM     21  C   UNL     1      -7.623  -0.528 124.790  0.00  0.00    +0.000 C 
ATOM     22  C   UNL     1      -7.331   0.420 123.505  0.00  0.00    +0.000 C 
ENDROOT
BRANCH   5  23
ATOM     23  O   UNL     1      -6.012   1.721 129.323  0.00  0.00    +0.000 OA
ATOM     24  H   UNL     1      -5.193   2.140 129.615  0.00  0.00    +0.000 HD
ENDBRANCH   5  23
BRANCH   5  25
ATOM     25  C   UNL     1      -7.727   3.391 129.293  0.00  0.00    +0.000 C 
ATOM     26  O   UNL     1      -7.972   3.008 130.450  0.00  0.00    +0.000 OA
BRANCH  25  27
ATOM     27  C   UNL     1      -8.474   4.832 128.978  0.00  0.00    +0.000 C 
BRANCH  27  28
ATOM     28  O   UNL     1      -7.802   5.919 129.840  0.00  0.00    +0.000 OA
BRANCH  28  29
ATOM     29  C   UNL     1      -8.343   6.381 131.013  0.00  0.00    +0.000 C 
ATOM     30  O   UNL     1      -7.739   6.425 132.077  0.00  0.00    +0.000 OA
BRANCH  29  31
ATOM     31  C   UNL     1      -9.804   6.831 130.950  0.00  0.00    +0.000 A 
ATOM     32  C   UNL     1     -10.716   6.413 131.949  0.00  0.00    +0.000 A 
ATOM     33  C   UNL     1     -12.111   6.590 131.805  0.00  0.00    +0.000 A 
ATOM     34  C   UNL     1     -12.622   7.268 130.700  0.00  0.00    +0.000 A 
ATOM     35  C   UNL     1     -11.730   7.698 129.710  0.00  0.00    +0.000 A 
ATOM     36  C   UNL     1     -10.335   7.485 129.829  0.00  0.00    +0.000 A 
BRANCH  35  37
ATOM     37  S   UNL     1     -12.387   8.482 128.244  0.00  0.00    +0.000 S 
ATOM     38  O   UNL     1     -11.292   8.625 127.310  0.00  0.00    +0.000 OA
ATOM     39  O   UNL     1     -13.615   7.805 127.895  0.00  0.00    +0.000 OA
BRANCH  37  40
ATOM     40  O   UNL     1     -12.783   9.973 128.734  0.00  0.00    +0.000 OA
ATOM     41  H   UNL     1     -13.388  10.403 128.098  0.00  0.00    +0.000 HD
ENDBRANCH  37  40
ENDBRANCH  35  37
ENDBRANCH  29  31
ENDBRANCH  28  29
ENDBRANCH  27  28
ENDBRANCH  25  27
ENDBRANCH   5  25
BRANCH   9  42
ATOM     42  O   UNL     1      -9.152   1.657 127.446  0.00  0.00    +0.000 OA
ATOM     43  H   UNL     1      -9.522   0.770 127.333  0.00  0.00    +0.000 HD
ENDBRANCH   9  42
TORSDOF 9
ENDMDL
