MODEL 1
REMARK VINA RESULT:      -9.0      0.000      0.000
REMARK  Name = Dexamethasone acetate
REMARK  10 active torsions:
REMARK  status: ('A' for Active; 'I' for Inactive)
REMARK    1  A    between atoms: C_4  and  C_5
REMARK    2  A    between atoms: C_6  and  O_7
REMARK    3  A    between atoms: C_6  and  C_8
REMARK    4  A    between atoms: C_8  and  C_10
REMARK    5  A    between atoms: C_10  and  O_11
REMARK    6  A    between atoms: O_11  and  C_12
REMARK    7  A    between atoms: C_12  and  C_13
REMARK    8  A    between atoms: C_15  and  C_16
REMARK    9  A    between atoms: C_18  and  O_19
REMARK   10  A    between atoms: C_32  and  C_33
REMARK                            x       y       z     vdW  Elec       q    Type
REMARK                         _______ _______ _______ _____ _____    ______ ____
ROOT
ATOM      1  C   UNL     1      -5.727  -1.478 125.279  0.00  0.00    +0.000 C 
ATOM      2  C   UNL     1      -6.151  -2.811 124.962  0.00  0.00    +0.000 C 
ATOM      3  C   UNL     1      -7.423  -2.012 125.272  0.00  0.00    +0.000 C 
ATOM      4  C   UNL     1      -8.863  -3.065 125.816  0.00  0.00    +0.000 C 
ATOM      5  C   UNL     1      -7.058   0.043 125.381  0.00  0.00    +0.000 C 
ATOM      6  C   UNL     1      -7.143  -0.723 124.297  0.00  0.00    +0.000 C 
ATOM      7  C   UNL     1      -6.839  -0.523 122.867  0.00  0.00    +0.000 C 
ATOM      8  C   UNL     1      -8.853  -0.596 125.084  0.00  0.00    +0.000 C 
ATOM      9  C   UNL     1      -8.654  -0.566 126.939  0.00  0.00    +0.000 C 
ATOM     10  C   UNL     1      -7.298  -1.414 127.739  0.00  0.00    +0.000 C 
ATOM     11  F   UNL     1      -7.240  -2.658 127.110  0.00  0.00    +0.000 F 
ATOM     12  C   UNL     1      -5.807  -1.173 127.086  0.00  0.00    +0.000 C 
ATOM     13  C   UNL     1      -4.876  -2.270 127.645  0.00  0.00    +0.000 C 
ATOM     14  C   UNL     1      -5.025  -2.418 129.124  0.00  0.00    +0.000 C 
ATOM     15  C   UNL     1      -6.332  -3.103 129.366  0.00  0.00    +0.000 C 
ATOM     16  C   UNL     1      -6.511  -4.168 130.187  0.00  0.00    +0.000 C 
ATOM     17  C   UNL     1      -6.107  -3.481 131.393  0.00  0.00    +0.000 C 
ATOM     18  O   UNL     1      -4.996  -3.563 131.872  0.00  0.00    +0.000 OA
ATOM     19  C   UNL     1      -7.280  -2.590 131.733  0.00  0.00    +0.000 C 
ATOM     20  C   UNL     1      -7.916  -1.904 130.692  0.00  0.00    +0.000 C 
ATOM     21  C   UNL     1      -7.580  -2.274 129.157  0.00  0.00    +0.000 C 
ATOM     22  C   UNL     1      -8.516  -3.487 128.621  0.00  0.00    +0.000 C 
ENDROOT
BRANCH   5  23
ATOM     23  O   UNL     1      -5.662   0.663 125.176  0.00  0.00    +0.000 OA
ATOM     24  H   UNL     1      -5.453   1.463 125.674  0.00  0.00    +0.000 HD
ENDBRANCH   5  23
BRANCH   5  25
ATOM     25  C   UNL     1      -7.780   1.616 124.654  0.00  0.00    +0.000 C 
ATOM     26  O   UNL     1      -7.467   2.740 125.083  0.00  0.00    +0.000 OA
BRANCH  25  27
ATOM     27  C   UNL     1      -8.940   1.710 123.486  0.00  0.00    +0.000 C 
BRANCH  27  28
ATOM     28  O   UNL     1      -8.844   3.065 122.822  0.00  0.00    +0.000 OA
BRANCH  28  29
ATOM     29  C   UNL     1      -8.273   3.453 121.648  0.00  0.00    +0.000 C 
ATOM     30  C   UNL     1      -6.779   3.443 121.527  0.00  0.00    +0.000 C 
ATOM     31  O   UNL     1      -8.951   3.820 120.688  0.00  0.00    +0.000 OA
ENDBRANCH  28  29
ENDBRANCH  27  28
ENDBRANCH  25  27
ENDBRANCH   5  25
BRANCH   9  32
ATOM     32  O   UNL     1      -8.631   0.830 127.309  0.00  0.00    +0.000 OA
ATOM     33  H   UNL     1      -8.173   0.938 128.153  0.00  0.00    +0.000 HD
ENDBRANCH   9  32
TORSDOF 6
ENDMDL
MODEL 2
REMARK VINA RESULT:      -8.7      4.634      6.473
REMARK  Name = Dexamethasone acetate
REMARK  10 active torsions:
REMARK  status: ('A' for Active; 'I' for Inactive)
REMARK    1  A    between atoms: C_4  and  C_5
REMARK    2  A    between atoms: C_6  and  O_7
REMARK    3  A    between atoms: C_6  and  C_8
REMARK    4  A    between atoms: C_8  and  C_10
REMARK    5  A    between atoms: C_10  and  O_11
REMARK    6  A    between atoms: O_11  and  C_12
REMARK    7  A    between atoms: C_12  and  C_13
REMARK    8  A    between atoms: C_15  and  C_16
REMARK    9  A    between atoms: C_18  and  O_19
REMARK   10  A    between atoms: C_32  and  C_33
REMARK                            x       y       z     vdW  Elec       q    Type
REMARK                         _______ _______ _______ _____ _____    ______ ____
ROOT
ATOM      1  C   UNL     1      -8.857   2.014 132.601  0.00  0.00    +0.000 C 
ATOM      2  C   UNL     1      -7.585   2.135 133.253  0.00  0.00    +0.000 C 
ATOM      3  C   UNL     1      -7.461   2.880 131.919  0.00  0.00    +0.000 C 
ATOM      4  C   UNL     1      -5.709   3.033 131.298  0.00  0.00    +0.000 C 
ATOM      5  C   UNL     1      -9.314   3.152 130.990  0.00  0.00    +0.000 C 
ATOM      6  C   UNL     1      -8.809   3.807 132.032  0.00  0.00    +0.000 C 
ATOM      7  C   UNL     1      -9.359   4.761 133.014  0.00  0.00    +0.000 C 
ATOM      8  C   UNL     1      -7.822   4.264 130.491  0.00  0.00    +0.000 C 
ATOM      9  C   UNL     1      -7.680   2.755 129.404  0.00  0.00    +0.000 C 
ATOM     10  C   UNL     1      -7.645   1.110 130.104  0.00  0.00    +0.000 C 
ATOM     11  F   UNL     1      -6.767   1.204 131.184  0.00  0.00    +0.000 F 
ATOM     12  C   UNL     1      -8.786   0.783 131.243  0.00  0.00    +0.000 C 
ATOM     13  C   UNL     1      -8.345  -0.497 131.984  0.00  0.00    +0.000 C 
ATOM     14  C   UNL     1      -7.918  -1.566 131.031  0.00  0.00    +0.000 C 
ATOM     15  C   UNL     1      -6.584  -1.161 130.489  0.00  0.00    +0.000 C 
ATOM     16  C   UNL     1      -5.498  -1.971 130.415  0.00  0.00    +0.000 C 
ATOM     17  C   UNL     1      -6.102  -2.930 129.518  0.00  0.00    +0.000 C 
ATOM     18  O   UNL     1      -6.596  -3.974 129.886  0.00  0.00    +0.000 OA
ATOM     19  C   UNL     1      -6.104  -2.242 128.172  0.00  0.00    +0.000 C 
ATOM     20  C   UNL     1      -6.454  -0.888 128.120  0.00  0.00    +0.000 C 
ATOM     21  C   UNL     1      -6.576  -0.032 129.483  0.00  0.00    +0.000 C 
ATOM     22  C   UNL     1      -5.143   0.592 129.922  0.00  0.00    +0.000 C 
ENDROOT
BRANCH   5  23
ATOM     23  O   UNL     1     -10.641   2.648 131.593  0.00  0.00    +0.000 OA
ATOM     24  H   UNL     1     -10.726   2.663 132.555  0.00  0.00    +0.000 HD
ENDBRANCH   5  23
BRANCH   5  25
ATOM     25  C   UNL     1     -10.285   4.567 130.228  0.00  0.00    +0.000 C 
ATOM     26  O   UNL     1     -11.484   4.447 129.920  0.00  0.00    +0.000 OA
BRANCH  25  27
ATOM     27  C   UNL     1      -9.687   6.039 129.794  0.00  0.00    +0.000 C 
BRANCH  27  28
ATOM     28  O   UNL     1      -9.773   6.167 128.290  0.00  0.00    +0.000 OA
BRANCH  28  29
ATOM     29  C   UNL     1     -10.425   7.065 127.500  0.00  0.00    +0.000 C 
ATOM     30  C   UNL     1     -10.688   8.443 128.027  0.00  0.00    +0.000 C 
ATOM     31  O   UNL     1     -10.814   6.771 126.369  0.00  0.00    +0.000 OA
ENDBRANCH  28  29
ENDBRANCH  27  28
ENDBRANCH  25  27
ENDBRANCH   5  25
BRANCH   9  32
ATOM     32  O   UNL     1      -8.766   2.850 128.456  0.00  0.00    +0.000 OA
ATOM     33  H   UNL     1      -9.494   2.277 128.734  0.00  0.00    +0.000 HD
ENDBRANCH   9  32
TORSDOF 6
ENDMDL
MODEL 3
REMARK VINA RESULT:      -8.7      2.953      6.796
REMARK  Name = Dexamethasone acetate
REMARK  10 active torsions:
REMARK  status: ('A' for Active; 'I' for Inactive)
REMARK    1  A    between atoms: C_4  and  C_5
REMARK    2  A    between atoms: C_6  and  O_7
REMARK    3  A    between atoms: C_6  and  C_8
REMARK    4  A    between atoms: C_8  and  C_10
REMARK    5  A    between atoms: C_10  and  O_11
REMARK    6  A    between atoms: O_11  and  C_12
REMARK    7  A    between atoms: C_12  and  C_13
REMARK    8  A    between atoms: C_15  and  C_16
REMARK    9  A    between atoms: C_18  and  O_19
REMARK   10  A    between atoms: C_32  and  C_33
REMARK                            x       y       z     vdW  Elec       q    Type
REMARK                         _______ _______ _______ _____ _____    ______ ____
ROOT
ATOM      1  C   UNL     1      -7.286  -3.187 130.295  0.00  0.00    +0.000 C 
ATOM      2  C   UNL     1      -6.334  -4.180 129.887  0.00  0.00    +0.000 C 
ATOM      3  C   UNL     1      -5.666  -2.819 129.660  0.00  0.00    +0.000 C 
ATOM      4  C   UNL     1      -4.307  -2.847 128.382  0.00  0.00    +0.000 C 
ATOM      5  C   UNL     1      -6.734  -1.256 130.547  0.00  0.00    +0.000 C 
ATOM      6  C   UNL     1      -5.952  -2.159 131.134  0.00  0.00    +0.000 C 
ATOM      7  C   UNL     1      -5.693  -2.543 132.534  0.00  0.00    +0.000 C 
ATOM      8  C   UNL     1      -4.877  -1.010 130.094  0.00  0.00    +0.000 C 
ATOM      9  C   UNL     1      -5.814  -0.555 128.545  0.00  0.00    +0.000 C 
ATOM     10  C   UNL     1      -6.990  -1.684 127.810  0.00  0.00    +0.000 C 
ATOM     11  F   UNL     1      -6.348  -2.923 127.828  0.00  0.00    +0.000 F 
ATOM     12  C   UNL     1      -8.064  -2.385 128.840  0.00  0.00    +0.000 C 
ATOM     13  C   UNL     1      -8.696  -3.584 128.103  0.00  0.00    +0.000 C 
ATOM     14  C   UNL     1      -9.124  -3.217 126.720  0.00  0.00    +0.000 C 
ATOM     15  C   UNL     1      -7.882  -3.089 125.896  0.00  0.00    +0.000 C 
ATOM     16  C   UNL     1      -7.696  -3.656 124.677  0.00  0.00    +0.000 C 
ATOM     17  C   UNL     1      -8.770  -2.938 124.028  0.00  0.00    +0.000 C 
ATOM     18  O   UNL     1      -9.874  -3.404 123.845  0.00  0.00    +0.000 OA
ATOM     19  C   UNL     1      -8.230  -1.538 123.838  0.00  0.00    +0.000 C 
ATOM     20  C   UNL     1      -7.507  -0.958 124.886  0.00  0.00    +0.000 C 
ATOM     21  C   UNL     1      -7.033  -1.861 126.137  0.00  0.00    +0.000 C 
ATOM     22  C   UNL     1      -5.602  -2.571 125.849  0.00  0.00    +0.000 C 
ENDROOT
BRANCH   5  23
ATOM     23  O   UNL     1      -8.044  -1.470 131.332  0.00  0.00    +0.000 OA
ATOM     24  H   UNL     1      -8.824  -0.986 131.035  0.00  0.00    +0.000 HD
ENDBRANCH   5  23
BRANCH   5  25
ATOM     25  C   UNL     1      -6.375   0.191 131.689  0.00  0.00    +0.000 C 
ATOM     26  O   UNL     1      -5.486   1.021 131.432  0.00  0.00    +0.000 OA
BRANCH  25  27
ATOM     27  C   UNL     1      -7.078   0.478 133.151  0.00  0.00    +0.000 C 
BRANCH  27  28
ATOM     28  O   UNL     1      -8.187   1.487 132.961  0.00  0.00    +0.000 OA
BRANCH  28  29
ATOM     29  C   UNL     1      -9.280   1.479 132.148  0.00  0.00    +0.000 C 
ATOM     30  C   UNL     1      -9.703   2.754 131.483  0.00  0.00    +0.000 C 
ATOM     31  O   UNL     1      -9.935   0.455 131.953  0.00  0.00    +0.000 OA
ENDBRANCH  28  29
ENDBRANCH  27  28
ENDBRANCH  25  27
ENDBRANCH   5  25
BRANCH   9  32
ATOM     32  O   UNL     1      -6.470   0.698 128.838  0.00  0.00    +0.000 OA
ATOM     33  H   UNL     1      -5.815   1.408 128.883  0.00  0.00    +0.000 HD
ENDBRANCH   9  32
TORSDOF 6
ENDMDL
MODEL 4
REMARK VINA RESULT:      -8.7      2.914      6.433
REMARK  Name = Dexamethasone acetate
REMARK  10 active torsions:
REMARK  status: ('A' for Active; 'I' for Inactive)
REMARK    1  A    between atoms: C_4  and  C_5
REMARK    2  A    between atoms: C_6  and  O_7
REMARK    3  A    between atoms: C_6  and  C_8
REMARK    4  A    between atoms: C_8  and  C_10
REMARK    5  A    between atoms: C_10  and  O_11
REMARK    6  A    between atoms: O_11  and  C_12
REMARK    7  A    between atoms: C_12  and  C_13
REMARK    8  A    between atoms: C_15  and  C_16
REMARK    9  A    between atoms: C_18  and  O_19
REMARK   10  A    between atoms: C_32  and  C_33
REMARK                            x       y       z     vdW  Elec       q    Type
REMARK                         _______ _______ _______ _____ _____    ______ ____
ROOT
ATOM      1  C   UNL     1      -7.476  -2.979 130.137  0.00  0.00    +0.000 C 
ATOM      2  C   UNL     1      -6.542  -4.019 129.817  0.00  0.00    +0.000 C 
ATOM      3  C   UNL     1      -5.823  -2.692 129.546  0.00  0.00    +0.000 C 
ATOM      4  C   UNL     1      -4.420  -2.827 128.325  0.00  0.00    +0.000 C 
ATOM      5  C   UNL     1      -6.873  -1.055 130.313  0.00  0.00    +0.000 C 
ATOM      6  C   UNL     1      -6.142  -1.949 130.973  0.00  0.00    +0.000 C 
ATOM      7  C   UNL     1      -5.947  -2.268 132.400  0.00  0.00    +0.000 C 
ATOM      8  C   UNL     1      -4.994  -0.887 129.918  0.00  0.00    +0.000 C 
ATOM      9  C   UNL     1      -5.859  -0.486 128.314  0.00  0.00    +0.000 C 
ATOM     10  C   UNL     1      -7.042  -1.616 127.593  0.00  0.00    +0.000 C 
ATOM     11  F   UNL     1      -6.441  -2.870 127.698  0.00  0.00    +0.000 F 
ATOM     12  C   UNL     1      -8.175  -2.230 128.615  0.00  0.00    +0.000 C 
ATOM     13  C   UNL     1      -8.817  -3.447 127.916  0.00  0.00    +0.000 C 
ATOM     14  C   UNL     1      -9.182  -3.139 126.501  0.00  0.00    +0.000 C 
ATOM     15  C   UNL     1      -7.907  -3.091 125.720  0.00  0.00    +0.000 C 
ATOM     16  C   UNL     1      -7.696  -3.724 124.539  0.00  0.00    +0.000 C 
ATOM     17  C   UNL     1      -8.721  -3.009 123.814  0.00  0.00    +0.000 C 
ATOM     18  O   UNL     1      -9.832  -3.451 123.613  0.00  0.00    +0.000 OA
ATOM     19  C   UNL     1      -8.131  -1.638 123.574  0.00  0.00    +0.000 C 
ATOM     20  C   UNL     1      -7.428  -1.027 124.618  0.00  0.00    +0.000 C 
ATOM     21  C   UNL     1      -7.029  -1.878 125.930  0.00  0.00    +0.000 C 
ATOM     22  C   UNL     1      -5.612  -2.643 125.733  0.00  0.00    +0.000 C 
ENDROOT
BRANCH   5  23
ATOM     23  O   UNL     1      -8.217  -1.189 131.057  0.00  0.00    +0.000 OA
ATOM     24  H   UNL     1      -8.619  -2.065 131.093  0.00  0.00    +0.000 HD
ENDBRANCH   5  23
BRANCH   5  25
ATOM     25  C   UNL     1      -6.511   0.438 131.392  0.00  0.00    +0.000 C 
ATOM     26  O   UNL     1      -7.412   1.034 132.008  0.00  0.00    +0.000 OA
BRANCH  25  27
ATOM     27  C   UNL     1      -5.051   1.180 131.574  0.00  0.00    +0.000 C 
BRANCH  27  28
ATOM     28  O   UNL     1      -5.050   2.447 130.750  0.00  0.00    +0.000 OA
BRANCH  28  29
ATOM     29  C   UNL     1      -4.136   2.948 129.873  0.00  0.00    +0.000 C 
ATOM     30  C   UNL     1      -3.446   4.238 130.198  0.00  0.00    +0.000 C 
ATOM     31  O   UNL     1      -3.869   2.374 128.816  0.00  0.00    +0.000 OA
ENDBRANCH  28  29
ENDBRANCH  27  28
ENDBRANCH  25  27
ENDBRANCH   5  25
BRANCH   9  32
ATOM     32  O   UNL     1      -6.486   0.800 128.518  0.00  0.00    +0.000 OA
ATOM     33  H   UNL     1      -6.441   1.041 129.454  0.00  0.00    +0.000 HD
ENDBRANCH   9  32
TORSDOF 6
ENDMDL
MODEL 5
REMARK VINA RESULT:      -8.6      6.326      7.200
REMARK  Name = Dexamethasone acetate
REMARK  10 active torsions:
REMARK  status: ('A' for Active; 'I' for Inactive)
REMARK    1  A    between atoms: C_4  and  C_5
REMARK    2  A    between atoms: C_6  and  O_7
REMARK    3  A    between atoms: C_6  and  C_8
REMARK    4  A    between atoms: C_8  and  C_10
REMARK    5  A    between atoms: C_10  and  O_11
REMARK    6  A    between atoms: O_11  and  C_12
REMARK    7  A    between atoms: C_12  and  C_13
REMARK    8  A    between atoms: C_15  and  C_16
REMARK    9  A    between atoms: C_18  and  O_19
REMARK   10  A    between atoms: C_32  and  C_33
REMARK                            x       y       z     vdW  Elec       q    Type
REMARK                         _______ _______ _______ _____ _____    ______ ____
ROOT
ATOM      1  C   UNL     1      -3.706   4.293 127.045  0.00  0.00    +0.000 C 
ATOM      2  C   UNL     1      -2.877   3.193 127.443  0.00  0.00    +0.000 C 
ATOM      3  C   UNL     1      -4.230   2.987 128.133  0.00  0.00    +0.000 C 
ATOM      4  C   UNL     1      -4.143   1.934 129.670  0.00  0.00    +0.000 C 
ATOM      5  C   UNL     1      -5.702   4.268 127.383  0.00  0.00    +0.000 C 
ATOM      6  C   UNL     1      -5.200   3.170 126.823  0.00  0.00    +0.000 C 
ATOM      7  C   UNL     1      -5.296   2.561 125.483  0.00  0.00    +0.000 C 
ATOM      8  C   UNL     1      -6.216   2.671 128.332  0.00  0.00    +0.000 C 
ATOM      9  C   UNL     1      -5.992   3.966 129.657  0.00  0.00    +0.000 C 
ATOM     10  C   UNL     1      -4.470   4.892 129.798  0.00  0.00    +0.000 C 
ATOM     11  F   UNL     1      -3.462   3.937 129.662  0.00  0.00    +0.000 F 
ATOM     12  C   UNL     1      -3.870   5.518 128.400  0.00  0.00    +0.000 C 
ATOM     13  C   UNL     1      -2.401   5.913 128.664  0.00  0.00    +0.000 C 
ATOM     14  C   UNL     1      -2.256   6.674 129.941  0.00  0.00    +0.000 C 
ATOM     15  C   UNL     1      -2.418   5.690 131.057  0.00  0.00    +0.000 C 
ATOM     16  C   UNL     1      -1.585   5.581 132.123  0.00  0.00    +0.000 C 
ATOM     17  C   UNL     1      -1.832   6.913 132.627  0.00  0.00    +0.000 C 
ATOM     18  O   UNL     1      -1.100   7.857 132.416  0.00  0.00    +0.000 OA
ATOM     19  C   UNL     1      -3.203   6.832 133.258  0.00  0.00    +0.000 C 
ATOM     20  C   UNL     1      -4.203   6.121 132.585  0.00  0.00    +0.000 C 
ATOM     21  C   UNL     1      -3.820   5.191 131.322  0.00  0.00    +0.000 C 
ATOM     22  C   UNL     1      -3.395   3.697 131.792  0.00  0.00    +0.000 C 
ENDROOT
BRANCH   5  23
ATOM     23  O   UNL     1      -5.434   5.298 126.267  0.00  0.00    +0.000 OA
ATOM     24  H   UNL     1      -4.546   5.322 125.889  0.00  0.00    +0.000 HD
ENDBRANCH   5  23
BRANCH   5  25
ATOM     25  C   UNL     1      -7.455   4.126 126.726  0.00  0.00    +0.000 C 
ATOM     26  O   UNL     1      -8.216   5.108 126.674  0.00  0.00    +0.000 OA
BRANCH  25  27
ATOM     27  C   UNL     1      -8.213   2.740 126.257  0.00  0.00    +0.000 C 
BRANCH  27  28
ATOM     28  O   UNL     1      -9.047   3.040 125.033  0.00  0.00    +0.000 OA
BRANCH  28  29
ATOM     29  C   UNL     1      -9.005   2.531 123.770  0.00  0.00    +0.000 C 
ATOM     30  C   UNL     1      -7.922   2.985 122.838  0.00  0.00    +0.000 C 
ATOM     31  O   UNL     1      -9.838   1.717 123.370  0.00  0.00    +0.000 OA
ENDBRANCH  28  29
ENDBRANCH  27  28
ENDBRANCH  25  27
ENDBRANCH   5  25
BRANCH   9  32
ATOM     32  O   UNL     1      -7.099   4.882 129.500  0.00  0.00    +0.000 OA
ATOM     33  H   UNL     1      -7.868   4.551 129.983  0.00  0.00    +0.000 HD
ENDBRANCH   9  32
TORSDOF 6
ENDMDL
MODEL 6
REMARK VINA RESULT:      -8.6      7.498      9.187
REMARK  Name = Dexamethasone acetate
REMARK  10 active torsions:
REMARK  status: ('A' for Active; 'I' for Inactive)
REMARK    1  A    between atoms: C_4  and  C_5
REMARK    2  A    between atoms: C_6  and  O_7
REMARK    3  A    between atoms: C_6  and  C_8
REMARK    4  A    between atoms: C_8  and  C_10
REMARK    5  A    between atoms: C_10  and  O_11
REMARK    6  A    between atoms: O_11  and  C_12
REMARK    7  A    between atoms: C_12  and  C_13
REMARK    8  A    between atoms: C_15  and  C_16
REMARK    9  A    between atoms: C_18  and  O_19
REMARK   10  A    between atoms: C_32  and  C_33
REMARK                            x       y       z     vdW  Elec       q    Type
REMARK                         _______ _______ _______ _____ _____    ______ ____
ROOT
ATOM      1  C   UNL     1      -7.783   3.129 130.570  0.00  0.00    +0.000 C 
ATOM      2  C   UNL     1      -7.084   2.745 131.762  0.00  0.00    +0.000 C 
ATOM      3  C   UNL     1      -7.769   4.081 132.072  0.00  0.00    +0.000 C 
ATOM      4  C   UNL     1      -6.964   5.039 133.456  0.00  0.00    +0.000 C 
ATOM      5  C   UNL     1      -9.151   4.622 130.600  0.00  0.00    +0.000 C 
ATOM      6  C   UNL     1      -9.280   3.705 131.556  0.00  0.00    +0.000 C 
ATOM      7  C   UNL     1     -10.259   2.637 131.834  0.00  0.00    +0.000 C 
ATOM      8  C   UNL     1      -9.261   5.414 132.354  0.00  0.00    +0.000 C 
ATOM      9  C   UNL     1      -8.074   6.500 131.410  0.00  0.00    +0.000 C 
ATOM     10  C   UNL     1      -6.637   5.814 130.598  0.00  0.00    +0.000 C 
ATOM     11  F   UNL     1      -6.092   4.931 131.531  0.00  0.00    +0.000 F 
ATOM     12  C   UNL     1      -6.893   4.468 129.687  0.00  0.00    +0.000 C 
ATOM     13  C   UNL     1      -5.517   3.823 129.418  0.00  0.00    +0.000 C 
ATOM     14  C   UNL     1      -4.510   4.837 128.979  0.00  0.00    +0.000 C 
ATOM     15  C   UNL     1      -4.140   5.637 130.188  0.00  0.00    +0.000 C 
ATOM     16  C   UNL     1      -2.870   5.923 130.571  0.00  0.00    +0.000 C 
ATOM     17  C   UNL     1      -2.535   6.676 129.384  0.00  0.00    +0.000 C 
ATOM     18  O   UNL     1      -1.925   6.212 128.445  0.00  0.00    +0.000 OA
ATOM     19  C   UNL     1      -3.247   7.998 129.560  0.00  0.00    +0.000 C 
ATOM     20  C   UNL     1      -4.554   7.986 130.059  0.00  0.00    +0.000 C 
ATOM     21  C   UNL     1      -5.167   6.630 130.684  0.00  0.00    +0.000 C 
ATOM     22  C   UNL     1      -4.810   6.488 132.261  0.00  0.00    +0.000 C 
ENDROOT
BRANCH   5  23
ATOM     23  O   UNL     1      -9.430   3.763 129.350  0.00  0.00    +0.000 OA
ATOM     24  H   UNL     1     -10.129   3.100 129.413  0.00  0.00    +0.000 HD
ENDBRANCH   5  23
BRANCH   5  25
ATOM     25  C   UNL     1     -10.941   5.181 130.522  0.00  0.00    +0.000 C 
ATOM     26  O   UNL     1     -11.727   4.741 129.665  0.00  0.00    +0.000 OA
BRANCH  25  27
ATOM     27  C   UNL     1     -11.643   6.341 131.459  0.00  0.00    +0.000 C 
BRANCH  27  28
ATOM     28  O   UNL     1     -12.500   7.219 130.574  0.00  0.00    +0.000 OA
BRANCH  28  29
ATOM     29  C   UNL     1     -12.183   8.288 129.793  0.00  0.00    +0.000 C 
ATOM     30  C   UNL     1     -13.008   9.535 129.894  0.00  0.00    +0.000 C 
ATOM     31  O   UNL     1     -11.242   8.254 128.998  0.00  0.00    +0.000 OA
ENDBRANCH  28  29
ENDBRANCH  27  28
ENDBRANCH  25  27
ENDBRANCH   5  25
BRANCH   9  32
ATOM     32  O   UNL     1      -8.877   7.212 130.443  0.00  0.00    +0.000 OA
ATOM     33  H   UNL     1      -9.516   7.777 130.900  0.00  0.00    +0.000 HD
ENDBRANCH   9  32
TORSDOF 6
ENDMDL
MODEL 7
REMARK VINA RESULT:      -8.4      3.713      5.995
REMARK  Name = Dexamethasone acetate
REMARK  10 active torsions:
REMARK  status: ('A' for Active; 'I' for Inactive)
REMARK    1  A    between atoms: C_4  and  C_5
REMARK    2  A    between atoms: C_6  and  O_7
REMARK    3  A    between atoms: C_6  and  C_8
REMARK    4  A    between atoms: C_8  and  C_10
REMARK    5  A    between atoms: C_10  and  O_11
REMARK    6  A    between atoms: O_11  and  C_12
REMARK    7  A    between atoms: C_12  and  C_13
REMARK    8  A    between atoms: C_15  and  C_16
REMARK    9  A    between atoms: C_18  and  O_19
REMARK   10  A    between atoms: C_32  and  C_33
REMARK                            x       y       z     vdW  Elec       q    Type
REMARK                         _______ _______ _______ _____ _____    ______ ____
ROOT
ATOM      1  C   UNL     1      -8.048   2.435 127.306  0.00  0.00    +0.000 C 
ATOM      2  C   UNL     1      -8.703   1.827 128.427  0.00  0.00    +0.000 C 
ATOM      3  C   UNL     1      -7.239   1.376 128.483  0.00  0.00    +0.000 C 
ATOM      4  C   UNL     1      -6.972  -0.216 129.418  0.00  0.00    +0.000 C 
ATOM      5  C   UNL     1      -6.029   2.456 127.164  0.00  0.00    +0.000 C 
ATOM      6  C   UNL     1      -6.527   2.847 128.334  0.00  0.00    +0.000 C 
ATOM      7  C   UNL     1      -6.613   4.141 129.037  0.00  0.00    +0.000 C 
ATOM      8  C   UNL     1      -5.229   1.514 128.643  0.00  0.00    +0.000 C 
ATOM      9  C   UNL     1      -5.328   0.256 127.268  0.00  0.00    +0.000 C 
ATOM     10  C   UNL     1      -6.875  -0.094 126.443  0.00  0.00    +0.000 C 
ATOM     11  F   UNL     1      -7.808  -0.201 127.474  0.00  0.00    +0.000 F 
ATOM     12  C   UNL     1      -7.756   1.212 125.971  0.00  0.00    +0.000 C 
ATOM     13  C   UNL     1      -9.185   0.717 125.661  0.00  0.00    +0.000 C 
ATOM     14  C   UNL     1      -9.170  -0.515 124.815  0.00  0.00    +0.000 C 
ATOM     15  C   UNL     1      -8.738  -1.645 125.696  0.00  0.00    +0.000 C 
ATOM     16  C   UNL     1      -9.363  -2.846 125.780  0.00  0.00    +0.000 C 
ATOM     17  C   UNL     1      -9.144  -3.211 124.399  0.00  0.00    +0.000 C 
ATOM     18  O   UNL     1      -9.977  -3.075 123.529  0.00  0.00    +0.000 OA
ATOM     19  C   UNL     1      -7.682  -3.594 124.335  0.00  0.00    +0.000 C 
ATOM     20  C   UNL     1      -6.759  -2.800 125.024  0.00  0.00    +0.000 C 
ATOM     21  C   UNL     1      -7.275  -1.687 126.073  0.00  0.00    +0.000 C 
ATOM     22  C   UNL     1      -7.487  -2.320 127.553  0.00  0.00    +0.000 C 
ENDROOT
BRANCH   5  23
ATOM     23  O   UNL     1      -6.570   3.570 126.245  0.00  0.00    +0.000 OA
ATOM     24  H   UNL     1      -7.506   3.793 126.320  0.00  0.00    +0.000 HD
ENDBRANCH   5  23
BRANCH   5  25
ATOM     25  C   UNL     1      -4.410   3.403 127.233  0.00  0.00    +0.000 C 
ATOM     26  O   UNL     1      -3.884   3.876 126.210  0.00  0.00    +0.000 OA
BRANCH  25  27
ATOM     27  C   UNL     1      -3.468   3.632 128.566  0.00  0.00    +0.000 C 
BRANCH  27  28
ATOM     28  O   UNL     1      -2.907   5.035 128.523  0.00  0.00    +0.000 OA
BRANCH  28  29
ATOM     29  C   UNL     1      -3.481   6.240 128.794  0.00  0.00    +0.000 C 
ATOM     30  C   UNL     1      -3.352   6.815 130.172  0.00  0.00    +0.000 C 
ATOM     31  O   UNL     1      -4.110   6.866 127.940  0.00  0.00    +0.000 OA
ENDBRANCH  28  29
ENDBRANCH  27  28
ENDBRANCH  25  27
ENDBRANCH   5  25
BRANCH   9  32
ATOM     32  O   UNL     1      -4.345   0.664 126.291  0.00  0.00    +0.000 OA
ATOM     33  H   UNL     1      -3.456   0.574 126.663  0.00  0.00    +0.000 HD
ENDBRANCH   9  32
TORSDOF 6
ENDMDL
MODEL 8
REMARK VINA RESULT:      -8.3      5.864      7.806
REMARK  Name = Dexamethasone acetate
REMARK  10 active torsions:
REMARK  status: ('A' for Active; 'I' for Inactive)
REMARK    1  A    between atoms: C_4  and  C_5
REMARK    2  A    between atoms: C_6  and  O_7
REMARK    3  A    between atoms: C_6  and  C_8
REMARK    4  A    between atoms: C_8  and  C_10
REMARK    5  A    between atoms: C_10  and  O_11
REMARK    6  A    between atoms: O_11  and  C_12
REMARK    7  A    between atoms: C_12  and  C_13
REMARK    8  A    between atoms: C_15  and  C_16
REMARK    9  A    between atoms: C_18  and  O_19
REMARK   10  A    between atoms: C_32  and  C_33
REMARK                            x       y       z     vdW  Elec       q    Type
REMARK                         _______ _______ _______ _____ _____    ______ ____
ROOT
ATOM      1  C   UNL     1      -8.119   2.171 129.769  0.00  0.00    +0.000 C 
ATOM      2  C   UNL     1      -7.302   1.341 130.606  0.00  0.00    +0.000 C 
ATOM      3  C   UNL     1      -7.318   2.729 131.256  0.00  0.00    +0.000 C 
ATOM      4  C   UNL     1      -5.853   3.066 132.359  0.00  0.00    +0.000 C 
ATOM      5  C   UNL     1      -8.761   3.982 130.406  0.00  0.00    +0.000 C 
ATOM      6  C   UNL     1      -8.940   2.976 131.259  0.00  0.00    +0.000 C 
ATOM      7  C   UNL     1     -10.122   2.247 131.757  0.00  0.00    +0.000 C 
ATOM      8  C   UNL     1      -8.058   4.381 132.156  0.00  0.00    +0.000 C 
ATOM      9  C   UNL     1      -6.877   5.201 130.965  0.00  0.00    +0.000 C 
ATOM     10  C   UNL     1      -6.100   4.275 129.648  0.00  0.00    +0.000 C 
ATOM     11  F   UNL     1      -5.678   3.090 130.251  0.00  0.00    +0.000 F 
ATOM     12  C   UNL     1      -7.090   3.306 128.761  0.00  0.00    +0.000 C 
ATOM     13  C   UNL     1      -6.193   2.325 127.976  0.00  0.00    +0.000 C 
ATOM     14  C   UNL     1      -5.055   3.030 127.313  0.00  0.00    +0.000 C 
ATOM     15  C   UNL     1      -4.081   3.396 128.389  0.00  0.00    +0.000 C 
ATOM     16  C   UNL     1      -2.744   3.171 128.336  0.00  0.00    +0.000 C 
ATOM     17  C   UNL     1      -2.510   4.008 127.181  0.00  0.00    +0.000 C 
ATOM     18  O   UNL     1      -2.416   3.580 126.050  0.00  0.00    +0.000 OA
ATOM     19  C   UNL     1      -2.596   5.421 127.712  0.00  0.00    +0.000 C 
ATOM     20  C   UNL     1      -3.609   5.725 128.628  0.00  0.00    +0.000 C 
ATOM     21  C   UNL     1      -4.475   4.539 129.298  0.00  0.00    +0.000 C 
ATOM     22  C   UNL     1      -3.757   3.962 130.635  0.00  0.00    +0.000 C 
ENDROOT
BRANCH   5  23
ATOM     23  O   UNL     1      -9.687   3.541 129.255  0.00  0.00    +0.000 OA
ATOM     24  H   UNL     1     -10.601   3.324 129.478  0.00  0.00    +0.000 HD
ENDBRANCH   5  23
BRANCH   5  25
ATOM     25  C   UNL     1     -10.154   5.090 131.002  0.00  0.00    +0.000 C 
ATOM     26  O   UNL     1     -10.063   5.747 132.053  0.00  0.00    +0.000 OA
BRANCH  25  27
ATOM     27  C   UNL     1     -11.640   5.248 130.307  0.00  0.00    +0.000 C 
BRANCH  27  28
ATOM     28  O   UNL     1     -11.485   6.005 129.008  0.00  0.00    +0.000 OA
BRANCH  28  29
ATOM     29  C   UNL     1     -10.458   6.756 128.522  0.00  0.00    +0.000 C 
ATOM     30  C   UNL     1     -10.469   8.238 128.745  0.00  0.00    +0.000 C 
ATOM     31  O   UNL     1      -9.524   6.251 127.896  0.00  0.00    +0.000 OA
ENDBRANCH  28  29
ENDBRANCH  27  28
ENDBRANCH  25  27
ENDBRANCH   5  25
BRANCH   9  32
ATOM     32  O   UNL     1      -7.600   6.319 130.404  0.00  0.00    +0.000 OA
ATOM     33  H   UNL     1      -7.745   6.174 129.459  0.00  0.00    +0.000 HD
ENDBRANCH   9  32
TORSDOF 6
ENDMDL
MODEL 9
REMARK VINA RESULT:      -8.0      3.180      4.529
REMARK  Name = Dexamethasone acetate
REMARK  10 active torsions:
REMARK  status: ('A' for Active; 'I' for Inactive)
REMARK    1  A    between atoms: C_4  and  C_5
REMARK    2  A    between atoms: C_6  and  O_7
REMARK    3  A    between atoms: C_6  and  C_8
REMARK    4  A    between atoms: C_8  and  C_10
REMARK    5  A    between atoms: C_10  and  O_11
REMARK    6  A    between atoms: O_11  and  C_12
REMARK    7  A    between atoms: C_12  and  C_13
REMARK    8  A    between atoms: C_15  and  C_16
REMARK    9  A    between atoms: C_18  and  O_19
REMARK   10  A    between atoms: C_32  and  C_33
REMARK                            x       y       z     vdW  Elec       q    Type
REMARK                         _______ _______ _______ _____ _____    ______ ____
ROOT
ATOM      1  C   UNL     1      -7.188  -2.946 128.416  0.00  0.00    +0.000 C 
ATOM      2  C   UNL     1      -8.395  -2.880 129.187  0.00  0.00    +0.000 C 
ATOM      3  C   UNL     1      -7.686  -1.535 129.376  0.00  0.00    +0.000 C 
ATOM      4  C   UNL     1      -8.162  -0.642 130.943  0.00  0.00    +0.000 C 
ATOM      5  C   UNL     1      -6.104  -1.280 128.034  0.00  0.00    +0.000 C 
ATOM      6  C   UNL     1      -7.410  -1.182 127.798  0.00  0.00    +0.000 C 
ATOM      7  C   UNL     1      -8.231  -1.075 126.578  0.00  0.00    +0.000 C 
ATOM      8  C   UNL     1      -6.883   0.257 128.898  0.00  0.00    +0.000 C 
ATOM      9  C   UNL     1      -5.570  -0.344 130.080  0.00  0.00    +0.000 C 
ATOM     10  C   UNL     1      -5.546  -2.038 130.652  0.00  0.00    +0.000 C 
ATOM     11  F   UNL     1      -6.874  -2.321 130.974  0.00  0.00    +0.000 F 
ATOM     12  C   UNL     1      -5.728  -3.196 129.497  0.00  0.00    +0.000 C 
ATOM     13  C   UNL     1      -6.076  -4.515 130.217  0.00  0.00    +0.000 C 
ATOM     14  C   UNL     1      -5.172  -4.762 131.382  0.00  0.00    +0.000 C 
ATOM     15  C   UNL     1      -5.583  -3.813 132.463  0.00  0.00    +0.000 C 
ATOM     16  C   UNL     1      -5.797  -4.157 133.758  0.00  0.00    +0.000 C 
ATOM     17  C   UNL     1      -4.444  -4.601 134.007  0.00  0.00    +0.000 C 
ATOM     18  O   UNL     1      -4.103  -5.764 133.973  0.00  0.00    +0.000 OA
ATOM     19  C   UNL     1      -3.640  -3.326 134.123  0.00  0.00    +0.000 C 
ATOM     20  C   UNL     1      -3.903  -2.292 133.217  0.00  0.00    +0.000 C 
ATOM     21  C   UNL     1      -5.207  -2.361 132.268  0.00  0.00    +0.000 C 
ATOM     22  C   UNL     1      -6.511  -1.736 133.005  0.00  0.00    +0.000 C 
ENDROOT
BRANCH   5  23
ATOM     23  O   UNL     1      -5.709  -2.339 126.985  0.00  0.00    +0.000 OA
ATOM     24  H   UNL     1      -6.237  -2.383 126.178  0.00  0.00    +0.000 HD
ENDBRANCH   5  23
BRANCH   5  25
ATOM     25  C   UNL     1      -5.515   0.028 126.822  0.00  0.00    +0.000 C 
ATOM     26  O   UNL     1      -4.955  -0.274 125.754  0.00  0.00    +0.000 OA
BRANCH  25  27
ATOM     27  C   UNL     1      -5.563   1.660 127.048  0.00  0.00    +0.000 C 
BRANCH  27  28
ATOM     28  O   UNL     1      -4.152   2.156 127.272  0.00  0.00    +0.000 OA
BRANCH  28  29
ATOM     29  C   UNL     1      -3.404   3.073 126.598  0.00  0.00    +0.000 C 
ATOM     30  C   UNL     1      -1.921   3.103 126.812  0.00  0.00    +0.000 C 
ATOM     31  O   UNL     1      -3.916   3.884 125.824  0.00  0.00    +0.000 OA
ENDBRANCH  28  29
ENDBRANCH  27  28
ENDBRANCH  25  27
ENDBRANCH   5  25
BRANCH   9  32
ATOM     32  O   UNL     1      -4.306  -0.030 129.455  0.00  0.00    +0.000 OA
ATOM     33  H   UNL     1      -4.414   0.725 128.860  0.00  0.00    +0.000 HD
ENDBRANCH   9  32
TORSDOF 6
ENDMDL
