MODEL 1
REMARK VINA RESULT:      -8.7      0.000      0.000
REMARK  Name = Dexamethasone
REMARK  8 active torsions:
REMARK  status: ('A' for Active; 'I' for Inactive)
REMARK    1  A    between atoms: C_4  and  C_5
REMARK    2  A    between atoms: C_6  and  O_7
REMARK    3  A    between atoms: C_6  and  C_8
REMARK    4  A    between atoms: C_8  and  C_10
REMARK    5  A    between atoms: C_10  and  O_11
REMARK    6  A    between atoms: C_12  and  C_13
REMARK    7  A    between atoms: C_15  and  O_16
REMARK    8  A    between atoms: C_29  and  C_30
REMARK                            x       y       z     vdW  Elec       q    Type
REMARK                         _______ _______ _______ _____ _____    ______ ____
ROOT
ATOM      1  C   UNL     1      -5.658  -1.825 125.109  0.00  0.00    +0.000 C 
ATOM      2  C   UNL     1      -6.050  -3.191 124.914  0.00  0.00    +0.000 C 
ATOM      3  C   UNL     1      -7.346  -2.394 125.090  0.00  0.00    +0.000 C 
ATOM      4  C   UNL     1      -8.789  -3.408 125.685  0.00  0.00    +0.000 C 
ATOM      5  C   UNL     1      -7.016  -0.333 125.004  0.00  0.00    +0.000 C 
ATOM      6  C   UNL     1      -7.047  -1.204 124.002  0.00  0.00    +0.000 C 
ATOM      7  C   UNL     1      -6.687  -1.140 122.571  0.00  0.00    +0.000 C 
ATOM      8  C   UNL     1      -8.786  -1.025 124.709  0.00  0.00    +0.000 C 
ATOM      9  C   UNL     1      -8.660  -0.804 126.558  0.00  0.00    +0.000 C 
ATOM     10  C   UNL     1      -7.324  -1.541 127.488  0.00  0.00    +0.000 C 
ATOM     11  F   UNL     1      -7.225  -2.841 126.992  0.00  0.00    +0.000 F 
ATOM     12  C   UNL     1      -5.814  -1.339 126.872  0.00  0.00    +0.000 C 
ATOM     13  C   UNL     1      -4.888  -2.355 127.573  0.00  0.00    +0.000 C 
ATOM     14  C   UNL     1      -5.093  -2.356 129.053  0.00  0.00    +0.000 C 
ATOM     15  C   UNL     1      -6.399  -3.039 129.314  0.00  0.00    +0.000 C 
ATOM     16  C   UNL     1      -6.593  -4.018 130.232  0.00  0.00    +0.000 C 
ATOM     17  C   UNL     1      -6.248  -3.204 131.376  0.00  0.00    +0.000 C 
ATOM     18  O   UNL     1      -5.157  -3.219 131.905  0.00  0.00    +0.000 OA
ATOM     19  C   UNL     1      -7.447  -2.306 131.579  0.00  0.00    +0.000 C 
ATOM     20  C   UNL     1      -8.052  -1.742 130.451  0.00  0.00    +0.000 C 
ATOM     21  C   UNL     1      -7.649  -2.258 128.976  0.00  0.00    +0.000 C 
ATOM     22  C   UNL     1      -8.547  -3.535 128.532  0.00  0.00    +0.000 C 
ENDROOT
BRANCH   5  23
ATOM     23  O   UNL     1      -5.621   0.295 124.782  0.00  0.00    +0.000 OA
ATOM     24  H   UNL     1      -4.856  -0.209 125.089  0.00  0.00    +0.000 HD
ENDBRANCH   5  23
BRANCH   5  25
ATOM     25  C   UNL     1      -7.725   1.128 124.087  0.00  0.00    +0.000 C 
ATOM     26  O   UNL     1      -7.049   2.125 123.774  0.00  0.00    +0.000 OA
BRANCH  25  27
ATOM     27  C   UNL     1      -9.272   1.335 123.698  0.00  0.00    +0.000 C 
BRANCH  27  28
ATOM     28  O   UNL     1      -9.910   2.292 124.592  0.00  0.00    +0.000 OA
ATOM     29  H   UNL     1      -9.734   2.010 125.514  0.00  0.00    +0.000 HD
ENDBRANCH  27  28
ENDBRANCH  25  27
ENDBRANCH   5  25
BRANCH   9  30
ATOM     30  O   UNL     1      -8.679   0.619 126.787  0.00  0.00    +0.000 OA
ATOM     31  H   UNL     1      -9.207   1.062 126.107  0.00  0.00    +0.000 HD
ENDBRANCH   9  30
TORSDOF 5
ENDMDL
MODEL 2
REMARK VINA RESULT:      -8.4      2.322      6.285
REMARK  Name = Dexamethasone
REMARK  8 active torsions:
REMARK  status: ('A' for Active; 'I' for Inactive)
REMARK    1  A    between atoms: C_4  and  C_5
REMARK    2  A    between atoms: C_6  and  O_7
REMARK    3  A    between atoms: C_6  and  C_8
REMARK    4  A    between atoms: C_8  and  C_10
REMARK    5  A    between atoms: C_10  and  O_11
REMARK    6  A    between atoms: C_12  and  C_13
REMARK    7  A    between atoms: C_15  and  O_16
REMARK    8  A    between atoms: C_29  and  C_30
REMARK                            x       y       z     vdW  Elec       q    Type
REMARK                         _______ _______ _______ _____ _____    ______ ____
ROOT
ATOM      1  C   UNL     1      -7.314  -3.352 130.524  0.00  0.00    +0.000 C 
ATOM      2  C   UNL     1      -6.286  -4.238 130.062  0.00  0.00    +0.000 C 
ATOM      3  C   UNL     1      -5.715  -2.822 129.945  0.00  0.00    +0.000 C 
ATOM      4  C   UNL     1      -4.346  -2.652 128.695  0.00  0.00    +0.000 C 
ATOM      5  C   UNL     1      -6.907  -1.414 130.925  0.00  0.00    +0.000 C 
ATOM      6  C   UNL     1      -6.069  -2.295 131.458  0.00  0.00    +0.000 C 
ATOM      7  C   UNL     1      -5.802  -2.762 132.834  0.00  0.00    +0.000 C 
ATOM      8  C   UNL     1      -5.074  -0.993 130.525  0.00  0.00    +0.000 C 
ATOM      9  C   UNL     1      -6.025  -0.495 128.998  0.00  0.00    +0.000 C 
ATOM     10  C   UNL     1      -7.103  -1.649 128.163  0.00  0.00    +0.000 C 
ATOM     11  F   UNL     1      -6.369  -2.835 128.100  0.00  0.00    +0.000 F 
ATOM     12  C   UNL     1      -8.133  -2.502 129.119  0.00  0.00    +0.000 C 
ATOM     13  C   UNL     1      -8.665  -3.686 128.286  0.00  0.00    +0.000 C 
ATOM     14  C   UNL     1      -9.103  -3.250 126.926  0.00  0.00    +0.000 C 
ATOM     15  C   UNL     1      -7.863  -2.971 126.136  0.00  0.00    +0.000 C 
ATOM     16  C   UNL     1      -7.622  -3.429 124.882  0.00  0.00    +0.000 C 
ATOM     17  C   UNL     1      -8.738  -2.745 124.268  0.00  0.00    +0.000 C 
ATOM     18  O   UNL     1      -9.801  -3.277 124.029  0.00  0.00    +0.000 OA
ATOM     19  C   UNL     1      -8.302  -1.300 124.191  0.00  0.00    +0.000 C 
ATOM     20  C   UNL     1      -7.636  -0.748 125.291  0.00  0.00    +0.000 C 
ATOM     21  C   UNL     1      -7.113  -1.704 126.481  0.00  0.00    +0.000 C 
ATOM     22  C   UNL     1      -5.628  -2.281 126.165  0.00  0.00    +0.000 C 
ENDROOT
BRANCH   5  23
ATOM     23  O   UNL     1      -8.207  -1.779 131.678  0.00  0.00    +0.000 OA
ATOM     24  H   UNL     1      -8.164  -1.815 132.642  0.00  0.00    +0.000 HD
ENDBRANCH   5  23
BRANCH   5  25
ATOM     25  C   UNL     1      -6.667  -0.053 132.177  0.00  0.00    +0.000 C 
ATOM     26  O   UNL     1      -7.549   0.289 132.984  0.00  0.00    +0.000 OA
BRANCH  25  27
ATOM     27  C   UNL     1      -5.377   0.902 132.294  0.00  0.00    +0.000 C 
BRANCH  27  28
ATOM     28  O   UNL     1      -5.645   2.212 131.716  0.00  0.00    +0.000 OA
ATOM     29  H   UNL     1      -6.348   2.108 131.041  0.00  0.00    +0.000 HD
ENDBRANCH  27  28
ENDBRANCH  25  27
ENDBRANCH   5  25
BRANCH   9  30
ATOM     30  O   UNL     1      -6.772   0.683 129.364  0.00  0.00    +0.000 OA
ATOM     31  H   UNL     1      -6.777   1.318 128.633  0.00  0.00    +0.000 HD
ENDBRANCH   9  30
TORSDOF 5
ENDMDL
MODEL 3
REMARK VINA RESULT:      -8.4      6.885      7.661
REMARK  Name = Dexamethasone
REMARK  8 active torsions:
REMARK  status: ('A' for Active; 'I' for Inactive)
REMARK    1  A    between atoms: C_4  and  C_5
REMARK    2  A    between atoms: C_6  and  O_7
REMARK    3  A    between atoms: C_6  and  C_8
REMARK    4  A    between atoms: C_8  and  C_10
REMARK    5  A    between atoms: C_10  and  O_11
REMARK    6  A    between atoms: C_12  and  C_13
REMARK    7  A    between atoms: C_15  and  O_16
REMARK    8  A    between atoms: C_29  and  C_30
REMARK                            x       y       z     vdW  Elec       q    Type
REMARK                         _______ _______ _______ _____ _____    ______ ____
ROOT
ATOM      1  C   UNL     1      -3.704   4.295 127.055  0.00  0.00    +0.000 C 
ATOM      2  C   UNL     1      -2.911   3.169 127.450  0.00  0.00    +0.000 C 
ATOM      3  C   UNL     1      -4.269   2.997 128.137  0.00  0.00    +0.000 C 
ATOM      4  C   UNL     1      -4.222   1.939 129.668  0.00  0.00    +0.000 C 
ATOM      5  C   UNL     1      -5.697   4.326 127.389  0.00  0.00    +0.000 C 
ATOM      6  C   UNL     1      -5.230   3.218 126.825  0.00  0.00    +0.000 C 
ATOM      7  C   UNL     1      -5.342   2.620 125.479  0.00  0.00    +0.000 C 
ATOM      8  C   UNL     1      -6.268   2.748 128.328  0.00  0.00    +0.000 C 
ATOM      9  C   UNL     1      -6.008   4.031 129.659  0.00  0.00    +0.000 C 
ATOM     10  C   UNL     1      -4.458   4.908 129.808  0.00  0.00    +0.000 C 
ATOM     11  F   UNL     1      -3.481   3.921 129.671  0.00  0.00    +0.000 F 
ATOM     12  C   UNL     1      -3.835   5.520 128.415  0.00  0.00    +0.000 C 
ATOM     13  C   UNL     1      -2.356   5.869 128.683  0.00  0.00    +0.000 C 
ATOM     14  C   UNL     1      -2.191   6.619 129.965  0.00  0.00    +0.000 C 
ATOM     15  C   UNL     1      -2.386   5.636 131.076  0.00  0.00    +0.000 C 
ATOM     16  C   UNL     1      -1.561   5.497 132.143  0.00  0.00    +0.000 C 
ATOM     17  C   UNL     1      -1.768   6.834 132.653  0.00  0.00    +0.000 C 
ATOM     18  O   UNL     1      -1.006   7.755 132.452  0.00  0.00    +0.000 OA
ATOM     19  C   UNL     1      -3.143   6.792 133.279  0.00  0.00    +0.000 C 
ATOM     20  C   UNL     1      -4.162   6.114 132.601  0.00  0.00    +0.000 C 
ATOM     21  C   UNL     1      -3.805   5.180 131.334  0.00  0.00    +0.000 C 
ATOM     22  C   UNL     1      -3.429   3.671 131.801  0.00  0.00    +0.000 C 
ENDROOT
BRANCH   5  23
ATOM     23  O   UNL     1      -5.399   5.351 126.271  0.00  0.00    +0.000 OA
ATOM     24  H   UNL     1      -4.643   5.938 126.400  0.00  0.00    +0.000 HD
ENDBRANCH   5  23
BRANCH   5  25
ATOM     25  C   UNL     1      -7.435   4.231 126.720  0.00  0.00    +0.000 C 
ATOM     26  O   UNL     1      -8.315   5.066 126.999  0.00  0.00    +0.000 OA
BRANCH  25  27
ATOM     27  C   UNL     1      -8.036   3.038 125.825  0.00  0.00    +0.000 C 
BRANCH  27  28
ATOM     28  O   UNL     1      -9.097   3.524 124.954  0.00  0.00    +0.000 OA
ATOM     29  H   UNL     1      -9.948   3.165 125.282  0.00  0.00    +0.000 HD
ENDBRANCH  27  28
ENDBRANCH  25  27
ENDBRANCH   5  25
BRANCH   9  30
ATOM     30  O   UNL     1      -7.085   4.978 129.510  0.00  0.00    +0.000 OA
ATOM     31  H   UNL     1      -7.108   5.581 130.268  0.00  0.00    +0.000 HD
ENDBRANCH   9  30
TORSDOF 5
ENDMDL
MODEL 4
REMARK VINA RESULT:      -8.2      3.174      5.623
REMARK  Name = Dexamethasone
REMARK  8 active torsions:
REMARK  status: ('A' for Active; 'I' for Inactive)
REMARK    1  A    between atoms: C_4  and  C_5
REMARK    2  A    between atoms: C_6  and  O_7
REMARK    3  A    between atoms: C_6  and  C_8
REMARK    4  A    between atoms: C_8  and  C_10
REMARK    5  A    between atoms: C_10  and  O_11
REMARK    6  A    between atoms: C_12  and  C_13
REMARK    7  A    between atoms: C_15  and  O_16
REMARK    8  A    between atoms: C_29  and  C_30
REMARK                            x       y       z     vdW  Elec       q    Type
REMARK                         _______ _______ _______ _____ _____    ______ ____
ROOT
ATOM      1  C   UNL     1      -8.103   2.419 127.376  0.00  0.00    +0.000 C 
ATOM      2  C   UNL     1      -8.702   1.786 128.514  0.00  0.00    +0.000 C 
ATOM      3  C   UNL     1      -7.224   1.384 128.529  0.00  0.00    +0.000 C 
ATOM      4  C   UNL     1      -6.873  -0.199 129.444  0.00  0.00    +0.000 C 
ATOM      5  C   UNL     1      -6.094   2.507 127.179  0.00  0.00    +0.000 C 
ATOM      6  C   UNL     1      -6.567   2.878 128.363  0.00  0.00    +0.000 C 
ATOM      7  C   UNL     1      -6.676   4.170 129.071  0.00  0.00    +0.000 C 
ATOM      8  C   UNL     1      -5.214   1.590 128.622  0.00  0.00    +0.000 C 
ATOM      9  C   UNL     1      -5.312   0.335 127.244  0.00  0.00    +0.000 C 
ATOM     10  C   UNL     1      -6.870  -0.065 126.466  0.00  0.00    +0.000 C 
ATOM     11  F   UNL     1      -7.766  -0.207 127.525  0.00  0.00    +0.000 F 
ATOM     12  C   UNL     1      -7.808   1.211 126.026  0.00  0.00    +0.000 C 
ATOM     13  C   UNL     1      -9.228   0.671 125.757  0.00  0.00    +0.000 C 
ATOM     14  C   UNL     1      -9.198  -0.557 124.907  0.00  0.00    +0.000 C 
ATOM     15  C   UNL     1      -8.702  -1.675 125.770  0.00  0.00    +0.000 C 
ATOM     16  C   UNL     1      -9.282  -2.897 125.867  0.00  0.00    +0.000 C 
ATOM     17  C   UNL     1      -9.092  -3.251 124.479  0.00  0.00    +0.000 C 
ATOM     18  O   UNL     1      -9.956  -3.143 123.635  0.00  0.00    +0.000 OA
ATOM     19  C   UNL     1      -7.621  -3.582 124.369  0.00  0.00    +0.000 C 
ATOM     20  C   UNL     1      -6.705  -2.761 125.034  0.00  0.00    +0.000 C 
ATOM     21  C   UNL     1      -7.226  -1.669 126.102  0.00  0.00    +0.000 C 
ATOM     22  C   UNL     1      -7.370  -2.314 127.584  0.00  0.00    +0.000 C 
ENDROOT
BRANCH   5  23
ATOM     23  O   UNL     1      -6.696   3.613 126.282  0.00  0.00    +0.000 OA
ATOM     24  H   UNL     1      -7.120   4.359 126.725  0.00  0.00    +0.000 HD
ENDBRANCH   5  23
BRANCH   5  25
ATOM     25  C   UNL     1      -4.522   3.511 127.214  0.00  0.00    +0.000 C 
ATOM     26  O   UNL     1      -4.324   4.487 126.467  0.00  0.00    +0.000 OA
BRANCH  25  27
ATOM     27  C   UNL     1      -3.218   3.186 128.097  0.00  0.00    +0.000 C 
BRANCH  27  28
ATOM     28  O   UNL     1      -2.165   2.603 127.276  0.00  0.00    +0.000 OA
ATOM     29  H   UNL     1      -1.509   2.188 127.873  0.00  0.00    +0.000 HD
ENDBRANCH  27  28
ENDBRANCH  25  27
ENDBRANCH   5  25
BRANCH   9  30
ATOM     30  O   UNL     1      -4.371   0.773 126.243  0.00  0.00    +0.000 OA
ATOM     31  H   UNL     1      -4.642   0.457 125.368  0.00  0.00    +0.000 HD
ENDBRANCH   9  30
TORSDOF 5
ENDMDL
MODEL 5
REMARK VINA RESULT:      -8.0      1.882      3.115
REMARK  Name = Dexamethasone
REMARK  8 active torsions:
REMARK  status: ('A' for Active; 'I' for Inactive)
REMARK    1  A    between atoms: C_4  and  C_5
REMARK    2  A    between atoms: C_6  and  O_7
REMARK    3  A    between atoms: C_6  and  C_8
REMARK    4  A    between atoms: C_8  and  C_10
REMARK    5  A    between atoms: C_10  and  O_11
REMARK    6  A    between atoms: C_12  and  C_13
REMARK    7  A    between atoms: C_15  and  O_16
REMARK    8  A    between atoms: C_29  and  C_30
REMARK                            x       y       z     vdW  Elec       q    Type
REMARK                         _______ _______ _______ _____ _____    ______ ____
ROOT
ATOM      1  C   UNL     1      -7.059   2.301 126.140  0.00  0.00    +0.000 C 
ATOM      2  C   UNL     1      -5.652   2.042 126.235  0.00  0.00    +0.000 C 
ATOM      3  C   UNL     1      -6.220   0.984 125.283  0.00  0.00    +0.000 C 
ATOM      4  C   UNL     1      -5.194  -0.564 125.165  0.00  0.00    +0.000 C 
ATOM      5  C   UNL     1      -8.180   1.420 124.709  0.00  0.00    +0.000 C 
ATOM      6  C   UNL     1      -7.055   1.984 124.286  0.00  0.00    +0.000 C 
ATOM      7  C   UNL     1      -6.743   3.178 123.475  0.00  0.00    +0.000 C 
ATOM      8  C   UNL     1      -7.126   0.209 123.649  0.00  0.00    +0.000 C 
ATOM      9  C   UNL     1      -7.919  -0.862 124.955  0.00  0.00    +0.000 C 
ATOM     10  C   UNL     1      -7.752  -0.480 126.692  0.00  0.00    +0.000 C 
ATOM     11  F   UNL     1      -6.402  -0.167 126.856  0.00  0.00    +0.000 F 
ATOM     12  C   UNL     1      -8.023   1.085 127.119  0.00  0.00    +0.000 C 
ATOM     13  C   UNL     1      -7.451   1.283 128.539  0.00  0.00    +0.000 C 
ATOM     14  C   UNL     1      -7.865   0.179 129.457  0.00  0.00    +0.000 C 
ATOM     15  C   UNL     1      -7.073  -1.030 129.073  0.00  0.00    +0.000 C 
ATOM     16  C   UNL     1      -6.402  -1.827 129.942  0.00  0.00    +0.000 C 
ATOM     17  C   UNL     1      -7.573  -2.244 130.679  0.00  0.00    +0.000 C 
ATOM     18  O   UNL     1      -7.916  -1.747 131.730  0.00  0.00    +0.000 OA
ATOM     19  C   UNL     1      -8.261  -3.237 129.770  0.00  0.00    +0.000 C 
ATOM     20  C   UNL     1      -8.337  -2.944 128.404  0.00  0.00    +0.000 C 
ATOM     21  C   UNL     1      -7.477  -1.724 127.791  0.00  0.00    +0.000 C 
ATOM     22  C   UNL     1      -5.986  -2.207 127.368  0.00  0.00    +0.000 C 
ENDROOT
BRANCH   5  23
ATOM     23  O   UNL     1      -8.950   2.669 125.195  0.00  0.00    +0.000 OA
ATOM     24  H   UNL     1      -9.912   2.654 125.114  0.00  0.00    +0.000 HD
ENDBRANCH   5  23
BRANCH   5  25
ATOM     25  C   UNL     1      -9.141   1.554 123.116  0.00  0.00    +0.000 C 
ATOM     26  O   UNL     1      -9.213   2.606 122.455  0.00  0.00    +0.000 OA
BRANCH  25  27
ATOM     27  C   UNL     1     -10.065   0.404 122.474  0.00  0.00    +0.000 C 
BRANCH  27  28
ATOM     28  O   UNL     1     -11.467   0.619 122.804  0.00  0.00    +0.000 OA
ATOM     29  H   UNL     1     -11.680   0.078 123.593  0.00  0.00    +0.000 HD
ENDBRANCH  27  28
ENDBRANCH  25  27
ENDBRANCH   5  25
BRANCH   9  30
ATOM     30  O   UNL     1      -9.317  -0.936 124.610  0.00  0.00    +0.000 OA
ATOM     31  H   UNL     1      -9.863  -0.901 125.410  0.00  0.00    +0.000 HD
ENDBRANCH   9  30
TORSDOF 5
ENDMDL
MODEL 6
REMARK VINA RESULT:      -7.8      4.439      6.596
REMARK  Name = Dexamethasone
REMARK  8 active torsions:
REMARK  status: ('A' for Active; 'I' for Inactive)
REMARK    1  A    between atoms: C_4  and  C_5
REMARK    2  A    between atoms: C_6  and  O_7
REMARK    3  A    between atoms: C_6  and  C_8
REMARK    4  A    between atoms: C_8  and  C_10
REMARK    5  A    between atoms: C_10  and  O_11
REMARK    6  A    between atoms: C_12  and  C_13
REMARK    7  A    between atoms: C_15  and  O_16
REMARK    8  A    between atoms: C_29  and  C_30
REMARK                            x       y       z     vdW  Elec       q    Type
REMARK                         _______ _______ _______ _____ _____    ______ ____
ROOT
ATOM      1  C   UNL     1      -8.893   2.039 132.552  0.00  0.00    +0.000 C 
ATOM      2  C   UNL     1      -7.639   2.144 133.239  0.00  0.00    +0.000 C 
ATOM      3  C   UNL     1      -7.472   2.907 131.921  0.00  0.00    +0.000 C 
ATOM      4  C   UNL     1      -5.707   3.059 131.346  0.00  0.00    +0.000 C 
ATOM      5  C   UNL     1      -9.297   3.200 130.949  0.00  0.00    +0.000 C 
ATOM      6  C   UNL     1      -8.819   3.839 132.010  0.00  0.00    +0.000 C 
ATOM      7  C   UNL     1      -9.394   4.783 132.990  0.00  0.00    +0.000 C 
ATOM      8  C   UNL     1      -7.792   4.311 130.499  0.00  0.00    +0.000 C 
ATOM      9  C   UNL     1      -7.630   2.814 129.396  0.00  0.00    +0.000 C 
ATOM     10  C   UNL     1      -7.623   1.161 130.075  0.00  0.00    +0.000 C 
ATOM     11  F   UNL     1      -6.771   1.237 131.178  0.00  0.00    +0.000 F 
ATOM     12  C   UNL     1      -8.794   0.825 131.179  0.00  0.00    +0.000 C 
ATOM     13  C   UNL     1      -8.380  -0.466 131.914  0.00  0.00    +0.000 C 
ATOM     14  C   UNL     1      -7.934  -1.525 130.959  0.00  0.00    +0.000 C 
ATOM     15  C   UNL     1      -6.583  -1.121 130.458  0.00  0.00    +0.000 C 
ATOM     16  C   UNL     1      -5.500  -1.935 130.402  0.00  0.00    +0.000 C 
ATOM     17  C   UNL     1      -6.085  -2.878 129.475  0.00  0.00    +0.000 C 
ATOM     18  O   UNL     1      -6.591  -3.927 129.816  0.00  0.00    +0.000 OA
ATOM     19  C   UNL     1      -6.048  -2.172 128.140  0.00  0.00    +0.000 C 
ATOM     20  C   UNL     1      -6.388  -0.816 128.097  0.00  0.00    +0.000 C 
ATOM     21  C   UNL     1      -6.544   0.022 129.467  0.00  0.00    +0.000 C 
ATOM     22  C   UNL     1      -5.119   0.633 129.951  0.00  0.00    +0.000 C 
ENDROOT
BRANCH   5  23
ATOM     23  O   UNL     1     -10.648   2.703 131.511  0.00  0.00    +0.000 OA
ATOM     24  H   UNL     1     -11.211   3.355 131.949  0.00  0.00    +0.000 HD
ENDBRANCH   5  23
BRANCH   5  25
ATOM     25  C   UNL     1     -10.233   4.629 130.199  0.00  0.00    +0.000 C 
ATOM     26  O   UNL     1     -11.464   4.611 130.016  0.00  0.00    +0.000 OA
BRANCH  25  27
ATOM     27  C   UNL     1      -9.581   5.973 129.604  0.00  0.00    +0.000 C 
BRANCH  27  28
ATOM     28  O   UNL     1      -9.526   5.925 128.149  0.00  0.00    +0.000 OA
ATOM     29  H   UNL     1      -8.832   6.549 127.850  0.00  0.00    +0.000 HD
ENDBRANCH  27  28
ENDBRANCH  25  27
ENDBRANCH   5  25
BRANCH   9  30
ATOM     30  O   UNL     1      -8.684   2.928 128.419  0.00  0.00    +0.000 OA
ATOM     31  H   UNL     1      -8.342   2.739 127.532  0.00  0.00    +0.000 HD
ENDBRANCH   9  30
TORSDOF 5
ENDMDL
MODEL 7
REMARK VINA RESULT:      -7.7      1.884      6.750
REMARK  Name = Dexamethasone
REMARK  8 active torsions:
REMARK  status: ('A' for Active; 'I' for Inactive)
REMARK    1  A    between atoms: C_4  and  C_5
REMARK    2  A    between atoms: C_6  and  O_7
REMARK    3  A    between atoms: C_6  and  C_8
REMARK    4  A    between atoms: C_8  and  C_10
REMARK    5  A    between atoms: C_10  and  O_11
REMARK    6  A    between atoms: C_12  and  C_13
REMARK    7  A    between atoms: C_15  and  O_16
REMARK    8  A    between atoms: C_29  and  C_30
REMARK                            x       y       z     vdW  Elec       q    Type
REMARK                         _______ _______ _______ _____ _____    ______ ____
ROOT
ATOM      1  C   UNL     1      -7.313  -0.734 130.904  0.00  0.00    +0.000 C 
ATOM      2  C   UNL     1      -8.587  -1.385 130.804  0.00  0.00    +0.000 C 
ATOM      3  C   UNL     1      -7.590  -2.278 130.059  0.00  0.00    +0.000 C 
ATOM      4  C   UNL     1      -8.365  -3.381 128.776  0.00  0.00    +0.000 C 
ATOM      5  C   UNL     1      -5.612  -1.706 130.413  0.00  0.00    +0.000 C 
ATOM      6  C   UNL     1      -6.434  -2.367 131.220  0.00  0.00    +0.000 C 
ATOM      7  C   UNL     1      -6.388  -2.756 132.644  0.00  0.00    +0.000 C 
ATOM      8  C   UNL     1      -5.987  -3.476 129.761  0.00  0.00    +0.000 C 
ATOM      9  C   UNL     1      -5.847  -2.420 128.228  0.00  0.00    +0.000 C 
ATOM     10  C   UNL     1      -6.826  -0.938 128.034  0.00  0.00    +0.000 C 
ATOM     11  F   UNL     1      -8.109  -1.307 128.440  0.00  0.00    +0.000 F 
ATOM     12  C   UNL     1      -6.862   0.081 129.323  0.00  0.00    +0.000 C 
ATOM     13  C   UNL     1      -8.041   1.055 129.111  0.00  0.00    +0.000 C 
ATOM     14  C   UNL     1      -8.052   1.610 127.724  0.00  0.00    +0.000 C 
ATOM     15  C   UNL     1      -8.513   0.513 126.817  0.00  0.00    +0.000 C 
ATOM     16  C   UNL     1      -9.473   0.642 125.868  0.00  0.00    +0.000 C 
ATOM     17  C   UNL     1      -8.765   1.633 125.089  0.00  0.00    +0.000 C 
ATOM     18  O   UNL     1      -8.978   2.824 125.165  0.00  0.00    +0.000 OA
ATOM     19  C   UNL     1      -7.685   0.854 124.375  0.00  0.00    +0.000 C 
ATOM     20  C   UNL     1      -6.992  -0.130 125.090  0.00  0.00    +0.000 C 
ATOM     21  C   UNL     1      -7.523  -0.597 126.541  0.00  0.00    +0.000 C 
ATOM     22  C   UNL     1      -8.618  -1.789 126.413  0.00  0.00    +0.000 C 
ENDROOT
BRANCH   5  23
ATOM     23  O   UNL     1      -5.221  -0.522 131.327  0.00  0.00    +0.000 OA
ATOM     24  H   UNL     1      -4.768  -0.734 132.153  0.00  0.00    +0.000 HD
ENDBRANCH   5  23
BRANCH   5  25
ATOM     25  C   UNL     1      -4.025  -2.529 130.945  0.00  0.00    +0.000 C 
ATOM     26  O   UNL     1      -2.901  -2.053 130.707  0.00  0.00    +0.000 OA
BRANCH  25  27
ATOM     27  C   UNL     1      -3.903  -3.969 131.652  0.00  0.00    +0.000 C 
BRANCH  27  28
ATOM     28  O   UNL     1      -2.952  -3.929 132.755  0.00  0.00    +0.000 OA
ATOM     29  H   UNL     1      -3.275  -4.531 133.457  0.00  0.00    +0.000 HD
ENDBRANCH  27  28
ENDBRANCH  25  27
ENDBRANCH   5  25
BRANCH   9  30
ATOM     30  O   UNL     1      -4.449  -2.094 128.100  0.00  0.00    +0.000 OA
ATOM     31  H   UNL     1      -4.154  -2.229 127.187  0.00  0.00    +0.000 HD
ENDBRANCH   9  30
TORSDOF 5
ENDMDL
MODEL 8
REMARK VINA RESULT:      -7.7      6.576      8.275
REMARK  Name = Dexamethasone
REMARK  8 active torsions:
REMARK  status: ('A' for Active; 'I' for Inactive)
REMARK    1  A    between atoms: C_4  and  C_5
REMARK    2  A    between atoms: C_6  and  O_7
REMARK    3  A    between atoms: C_6  and  C_8
REMARK    4  A    between atoms: C_8  and  C_10
REMARK    5  A    between atoms: C_10  and  O_11
REMARK    6  A    between atoms: C_12  and  C_13
REMARK    7  A    between atoms: C_15  and  O_16
REMARK    8  A    between atoms: C_29  and  C_30
REMARK                            x       y       z     vdW  Elec       q    Type
REMARK                         _______ _______ _______ _____ _____    ______ ____
ROOT
ATOM      1  C   UNL     1     -10.647   4.685 131.487  0.00  0.00    +0.000 C 
ATOM      2  C   UNL     1      -9.816   5.130 132.567  0.00  0.00    +0.000 C 
ATOM      3  C   UNL     1      -9.425   5.974 131.350  0.00  0.00    +0.000 C 
ATOM      4  C   UNL     1      -7.705   6.681 131.433  0.00  0.00    +0.000 C 
ATOM      5  C   UNL     1     -10.779   5.751 129.776  0.00  0.00    +0.000 C 
ATOM      6  C   UNL     1     -10.928   6.450 130.896  0.00  0.00    +0.000 C 
ATOM      7  C   UNL     1     -12.070   7.124 131.546  0.00  0.00    +0.000 C 
ATOM      8  C   UNL     1      -9.621   7.286 129.823  0.00  0.00    +0.000 C 
ATOM      9  C   UNL     1      -8.635   5.967 128.945  0.00  0.00    +0.000 C 
ATOM     10  C   UNL     1      -8.375   4.361 129.684  0.00  0.00    +0.000 C 
ATOM     11  F   UNL     1      -8.039   4.634 131.011  0.00  0.00    +0.000 F 
ATOM     12  C   UNL     1      -9.705   3.631 130.318  0.00  0.00    +0.000 C 
ATOM     13  C   UNL     1      -9.215   2.489 131.232  0.00  0.00    +0.000 C 
ATOM     14  C   UNL     1      -8.161   1.665 130.566  0.00  0.00    +0.000 C 
ATOM     15  C   UNL     1      -6.908   2.483 130.554  0.00  0.00    +0.000 C 
ATOM     16  C   UNL     1      -5.686   2.038 130.938  0.00  0.00    +0.000 C 
ATOM     17  C   UNL     1      -5.589   1.011 129.925  0.00  0.00    +0.000 C 
ATOM     18  O   UNL     1      -5.844  -0.157 130.128  0.00  0.00    +0.000 OA
ATOM     19  C   UNL     1      -5.291   1.763 128.649  0.00  0.00    +0.000 C 
ATOM     20  C   UNL     1      -5.983   2.954 128.403  0.00  0.00    +0.000 C 
ATOM     21  C   UNL     1      -6.862   3.634 129.573  0.00  0.00    +0.000 C 
ATOM     22  C   UNL     1      -5.958   4.621 130.492  0.00  0.00    +0.000 C 
ENDROOT
BRANCH   5  23
ATOM     23  O   UNL     1     -12.027   4.841 129.851  0.00  0.00    +0.000 OA
ATOM     24  H   UNL     1     -12.734   5.109 130.452  0.00  0.00    +0.000 HD
ENDBRANCH   5  23
BRANCH   5  25
ATOM     25  C   UNL     1     -11.768   6.867 128.655  0.00  0.00    +0.000 C 
ATOM     26  O   UNL     1     -12.835   6.516 128.119  0.00  0.00    +0.000 OA
BRANCH  25  27
ATOM     27  C   UNL     1     -11.327   8.332 128.157  0.00  0.00    +0.000 C 
BRANCH  27  28
ATOM     28  O   UNL     1     -10.851   8.292 126.781  0.00  0.00    +0.000 OA
ATOM     29  H   UNL     1      -9.980   8.739 126.748  0.00  0.00    +0.000 HD
ENDBRANCH  27  28
ENDBRANCH  25  27
ENDBRANCH   5  25
BRANCH   9  30
ATOM     30  O   UNL     1      -9.251   5.807 127.652  0.00  0.00    +0.000 OA
ATOM     31  H   UNL     1      -8.656   5.333 127.052  0.00  0.00    +0.000 HD
ENDBRANCH   9  30
TORSDOF 5
ENDMDL
MODEL 9
REMARK VINA RESULT:      -7.6      3.206      4.321
REMARK  Name = Dexamethasone
REMARK  8 active torsions:
REMARK  status: ('A' for Active; 'I' for Inactive)
REMARK    1  A    between atoms: C_4  and  C_5
REMARK    2  A    between atoms: C_6  and  O_7
REMARK    3  A    between atoms: C_6  and  C_8
REMARK    4  A    between atoms: C_8  and  C_10
REMARK    5  A    between atoms: C_10  and  O_11
REMARK    6  A    between atoms: C_12  and  C_13
REMARK    7  A    between atoms: C_15  and  O_16
REMARK    8  A    between atoms: C_29  and  C_30
REMARK                            x       y       z     vdW  Elec       q    Type
REMARK                         _______ _______ _______ _____ _____    ______ ____
ROOT
ATOM      1  C   UNL     1      -5.884   0.003 124.927  0.00  0.00    +0.000 C 
ATOM      2  C   UNL     1      -5.087  -0.655 125.921  0.00  0.00    +0.000 C 
ATOM      3  C   UNL     1      -6.517  -1.171 126.107  0.00  0.00    +0.000 C 
ATOM      4  C   UNL     1      -6.880  -1.815 127.816  0.00  0.00    +0.000 C 
ATOM      5  C   UNL     1      -7.758  -0.630 124.516  0.00  0.00    +0.000 C 
ATOM      6  C   UNL     1      -6.830  -1.579 124.549  0.00  0.00    +0.000 C 
ATOM      7  C   UNL     1      -6.189  -2.429 123.525  0.00  0.00    +0.000 C 
ATOM      8  C   UNL     1      -8.265  -2.089 125.662  0.00  0.00    +0.000 C 
ATOM      9  C   UNL     1      -8.944  -0.565 126.498  0.00  0.00    +0.000 C 
ATOM     10  C   UNL     1      -7.891   0.828 126.879  0.00  0.00    +0.000 C 
ATOM     11  F   UNL     1      -6.739   0.260 127.424  0.00  0.00    +0.000 F 
ATOM     12  C   UNL     1      -6.899   1.338 125.671  0.00  0.00    +0.000 C 
ATOM     13  C   UNL     1      -5.826   2.247 126.306  0.00  0.00    +0.000 C 
ATOM     14  C   UNL     1      -6.432   3.243 127.241  0.00  0.00    +0.000 C 
ATOM     15  C   UNL     1      -6.838   2.496 128.473  0.00  0.00    +0.000 C 
ATOM     16  C   UNL     1      -6.556   2.881 129.742  0.00  0.00    +0.000 C 
ATOM     17  C   UNL     1      -7.294   4.123 129.677  0.00  0.00    +0.000 C 
ATOM     18  O   UNL     1      -6.779   5.199 129.462  0.00  0.00    +0.000 OA
ATOM     19  C   UNL     1      -8.745   3.707 129.763  0.00  0.00    +0.000 C 
ATOM     20  C   UNL     1      -9.158   2.584 129.036  0.00  0.00    +0.000 C 
ATOM     21  C   UNL     1      -8.061   1.615 128.356  0.00  0.00    +0.000 C 
ATOM     22  C   UNL     1      -7.561   0.471 129.394  0.00  0.00    +0.000 C 
ENDROOT
BRANCH   5  23
ATOM     23  O   UNL     1      -7.271   0.191 123.301  0.00  0.00    +0.000 OA
ATOM     24  H   UNL     1      -7.487   1.133 123.289  0.00  0.00    +0.000 HD
ENDBRANCH   5  23
BRANCH   5  25
ATOM     25  C   UNL     1      -8.944  -1.482 123.356  0.00  0.00    +0.000 C 
ATOM     26  O   UNL     1      -9.852  -0.881 122.753  0.00  0.00    +0.000 OA
BRANCH  25  27
ATOM     27  C   UNL     1      -9.021  -3.065 123.084  0.00  0.00    +0.000 C 
BRANCH  27  28
ATOM     28  O   UNL     1     -10.353  -3.579 123.375  0.00  0.00    +0.000 OA
ATOM     29  H   UNL     1     -10.704  -3.991 122.559  0.00  0.00    +0.000 HD
ENDBRANCH  27  28
ENDBRANCH  25  27
ENDBRANCH   5  25
BRANCH   9  30
ATOM     30  O   UNL     1     -10.047  -0.125 125.681  0.00  0.00    +0.000 OA
ATOM     31  H   UNL     1     -10.594  -0.880 125.420  0.00  0.00    +0.000 HD
ENDBRANCH   9  30
TORSDOF 5
ENDMDL
