MODEL 1
REMARK VINA RESULT:      -6.3      0.000      0.000
REMARK  Name = Dexbrompheniramine
REMARK  7 active torsions:
REMARK  status: ('A' for Active; 'I' for Inactive)
REMARK    1  A    between atoms: C_1  and  N_2
REMARK    2  A    between atoms: N_2  and  C_3
REMARK    3  A    between atoms: N_2  and  C_4
REMARK    4  A    between atoms: C_4  and  C_5
REMARK    5  A    between atoms: C_5  and  C_6
REMARK    6  A    between atoms: C_6  and  C_7
REMARK    7  A    between atoms: C_6  and  C_14
REMARK                            x       y       z     vdW  Elec       q    Type
REMARK                         _______ _______ _______ _____ _____    ______ ____
ROOT
ATOM      1  C   UNL     1      -7.537   2.474 123.877  0.00  0.00    +0.000 C 
ENDROOT
BRANCH   1   2
ATOM      2  C   UNL     1      -6.456   2.980 124.849  0.00  0.00    +0.000 A 
ATOM      3  C   UNL     1      -6.305   4.346 125.139  0.00  0.00    +0.000 A 
ATOM      4  C   UNL     1      -5.281   4.803 125.972  0.00  0.00    +0.000 A 
ATOM      5  C   UNL     1      -4.355   3.907 126.488  0.00  0.00    +0.000 A 
ATOM      6 BR   UNL     1      -2.950   4.525 127.584  0.00  0.00    +0.000 Br
ATOM      7  C   UNL     1      -4.484   2.551 126.236  0.00  0.00    +0.000 A 
ATOM      8  C   UNL     1      -5.577   2.096 125.498  0.00  0.00    +0.000 A 
ENDBRANCH   1   2
BRANCH   1   9
ATOM      9  C   UNL     1      -7.464   3.131 122.488  0.00  0.00    +0.000 A 
ATOM     10  C   UNL     1      -6.234   3.310 121.858  0.00  0.00    +0.000 A 
ATOM     11  C   UNL     1      -6.219   3.787 120.548  0.00  0.00    +0.000 A 
ATOM     12  C   UNL     1      -7.416   4.072 119.904  0.00  0.00    +0.000 A 
ATOM     13  C   UNL     1      -8.595   3.866 120.593  0.00  0.00    +0.000 A 
ATOM     14  N   UNL     1      -8.638   3.401 121.859  0.00  0.00    +0.000 NA
ENDBRANCH   1   9
BRANCH   1  15
ATOM     15  C   UNL     1      -7.536   0.934 123.651  0.00  0.00    +0.000 C 
BRANCH  15  16
ATOM     16  C   UNL     1      -8.688   0.199 124.331  0.00  0.00    +0.000 C 
BRANCH  16  18
ATOM     17  C   UNL     1     -10.144   0.184 122.453  0.00  0.00    +0.000 C 
ATOM     18  N   UNL     1      -9.515  -0.656 123.479  0.00  0.00    +0.000 NA
ATOM     19  C   UNL     1      -8.748  -1.736 122.877  0.00  0.00    +0.000 C 
ENDBRANCH  16  18
ENDBRANCH  15  16
ENDBRANCH   1  15
TORSDOF 5
ENDMDL
MODEL 2
REMARK VINA RESULT:      -6.3      2.879      4.988
REMARK  Name = Dexbrompheniramine
REMARK  7 active torsions:
REMARK  status: ('A' for Active; 'I' for Inactive)
REMARK    1  A    between atoms: C_1  and  N_2
REMARK    2  A    between atoms: N_2  and  C_3
REMARK    3  A    between atoms: N_2  and  C_4
REMARK    4  A    between atoms: C_4  and  C_5
REMARK    5  A    between atoms: C_5  and  C_6
REMARK    6  A    between atoms: C_6  and  C_7
REMARK    7  A    between atoms: C_6  and  C_14
REMARK                            x       y       z     vdW  Elec       q    Type
REMARK                         _______ _______ _______ _____ _____    ______ ____
ROOT
ATOM      1  C   UNL     1      -7.137   2.711 123.867  0.00  0.00    +0.000 C 
ENDROOT
BRANCH   1   2
ATOM      2  C   UNL     1      -7.565   1.236 123.978  0.00  0.00    +0.000 A 
ATOM      3  C   UNL     1      -7.005   0.242 123.158  0.00  0.00    +0.000 A 
ATOM      4  C   UNL     1      -7.444  -1.082 123.221  0.00  0.00    +0.000 A 
ATOM      5  C   UNL     1      -8.488  -1.428 124.068  0.00  0.00    +0.000 A 
ATOM      6 BR   UNL     1      -9.108  -3.208 124.128  0.00  0.00    +0.000 Br
ATOM      7  C   UNL     1      -9.051  -0.476 124.903  0.00  0.00    +0.000 A 
ATOM      8  C   UNL     1      -8.527   0.817 124.912  0.00  0.00    +0.000 A 
ENDBRANCH   1   2
BRANCH   1   9
ATOM      9  C   UNL     1      -7.323   3.295 122.457  0.00  0.00    +0.000 A 
ATOM     10  C   UNL     1      -6.215   3.621 121.676  0.00  0.00    +0.000 A 
ATOM     11  C   UNL     1      -6.423   4.023 120.358  0.00  0.00    +0.000 A 
ATOM     12  C   UNL     1      -7.714   4.092 119.853  0.00  0.00    +0.000 A 
ATOM     13  C   UNL     1      -8.762   3.750 120.686  0.00  0.00    +0.000 A 
ATOM     14  N   UNL     1      -8.589   3.353 121.964  0.00  0.00    +0.000 NA
ENDBRANCH   1   9
BRANCH   1  15
ATOM     15  C   UNL     1      -7.860   3.672 124.855  0.00  0.00    +0.000 C 
BRANCH  15  16
ATOM     16  C   UNL     1      -7.008   4.847 125.326  0.00  0.00    +0.000 C 
BRANCH  16  18
ATOM     17  C   UNL     1      -7.291   3.819 127.450  0.00  0.00    +0.000 C 
ATOM     18  N   UNL     1      -6.472   4.766 126.685  0.00  0.00    +0.000 NA
ATOM     19  C   UNL     1      -5.069   4.380 126.699  0.00  0.00    +0.000 C 
ENDBRANCH  16  18
ENDBRANCH  15  16
ENDBRANCH   1  15
TORSDOF 5
ENDMDL
MODEL 3
REMARK VINA RESULT:      -6.3      3.958      5.746
REMARK  Name = Dexbrompheniramine
REMARK  7 active torsions:
REMARK  status: ('A' for Active; 'I' for Inactive)
REMARK    1  A    between atoms: C_1  and  N_2
REMARK    2  A    between atoms: N_2  and  C_3
REMARK    3  A    between atoms: N_2  and  C_4
REMARK    4  A    between atoms: C_4  and  C_5
REMARK    5  A    between atoms: C_5  and  C_6
REMARK    6  A    between atoms: C_6  and  C_7
REMARK    7  A    between atoms: C_6  and  C_14
REMARK                            x       y       z     vdW  Elec       q    Type
REMARK                         _______ _______ _______ _____ _____    ______ ____
ROOT
ATOM      1  C   UNL     1      -9.049  -2.004 124.747  0.00  0.00    +0.000 C 
ENDROOT
BRANCH   1   2
ATOM      2  C   UNL     1      -8.685  -2.265 126.220  0.00  0.00    +0.000 A 
ATOM      3  C   UNL     1      -7.932  -1.345 126.968  0.00  0.00    +0.000 A 
ATOM      4  C   UNL     1      -7.552  -1.619 128.283  0.00  0.00    +0.000 A 
ATOM      5  C   UNL     1      -7.872  -2.840 128.859  0.00  0.00    +0.000 A 
ATOM      6 BR   UNL     1      -7.328  -3.227 130.623  0.00  0.00    +0.000 Br
ATOM      7  C   UNL     1      -8.628  -3.764 128.155  0.00  0.00    +0.000 A 
ATOM      8  C   UNL     1      -9.098  -3.432 126.885  0.00  0.00    +0.000 A 
ENDBRANCH   1   2
BRANCH   1   9
ATOM      9  C   UNL     1      -8.991  -0.517 124.359  0.00  0.00    +0.000 A 
ATOM     10  C   UNL     1      -7.927  -0.027 123.603  0.00  0.00    +0.000 A 
ATOM     11  C   UNL     1      -7.976   1.294 123.160  0.00  0.00    +0.000 A 
ATOM     12  C   UNL     1      -9.069   2.089 123.479  0.00  0.00    +0.000 A 
ATOM     13  C   UNL     1     -10.086   1.531 124.230  0.00  0.00    +0.000 A 
ATOM     14  N   UNL     1     -10.067   0.254 124.666  0.00  0.00    +0.000 NA
ENDBRANCH   1   9
BRANCH   1  15
ATOM     15  C   UNL     1      -8.175  -2.776 123.716  0.00  0.00    +0.000 C 
BRANCH  15  16
ATOM     16  C   UNL     1      -6.971  -3.490 124.325  0.00  0.00    +0.000 C 
BRANCH  16  18
ATOM     17  C   UNL     1      -5.150  -2.004 124.674  0.00  0.00    +0.000 C 
ATOM     18  N   UNL     1      -5.653  -3.094 123.829  0.00  0.00    +0.000 NA
ATOM     19  C   UNL     1      -4.720  -4.210 123.800  0.00  0.00    +0.000 C 
ENDBRANCH  16  18
ENDBRANCH  15  16
ENDBRANCH   1  15
TORSDOF 5
ENDMDL
MODEL 4
REMARK VINA RESULT:      -6.2      7.875     10.120
REMARK  Name = Dexbrompheniramine
REMARK  7 active torsions:
REMARK  status: ('A' for Active; 'I' for Inactive)
REMARK    1  A    between atoms: C_1  and  N_2
REMARK    2  A    between atoms: N_2  and  C_3
REMARK    3  A    between atoms: N_2  and  C_4
REMARK    4  A    between atoms: C_4  and  C_5
REMARK    5  A    between atoms: C_5  and  C_6
REMARK    6  A    between atoms: C_6  and  C_7
REMARK    7  A    between atoms: C_6  and  C_14
REMARK                            x       y       z     vdW  Elec       q    Type
REMARK                         _______ _______ _______ _____ _____    ______ ____
ROOT
ATOM      1  C   UNL     1      -8.840   6.339 131.718  0.00  0.00    +0.000 C 
ENDROOT
BRANCH   1   2
ATOM      2  C   UNL     1     -10.014   6.830 130.851  0.00  0.00    +0.000 A 
ATOM      3  C   UNL     1     -11.350   6.601 131.220  0.00  0.00    +0.000 A 
ATOM      4  C   UNL     1     -12.408   6.994 130.397  0.00  0.00    +0.000 A 
ATOM      5  C   UNL     1     -12.148   7.577 129.164  0.00  0.00    +0.000 A 
ATOM      6 BR   UNL     1     -13.574   8.076 128.034  0.00  0.00    +0.000 Br
ATOM      7  C   UNL     1     -10.842   7.833 128.777  0.00  0.00    +0.000 A 
ATOM      8  C   UNL     1      -9.801   7.540 129.657  0.00  0.00    +0.000 A 
ENDBRANCH   1   2
BRANCH   1   9
ATOM      9  C   UNL     1      -8.863   4.822 131.970  0.00  0.00    +0.000 A 
ATOM     10  C   UNL     1      -9.073   4.324 133.255  0.00  0.00    +0.000 A 
ATOM     11  C   UNL     1      -9.218   2.947 133.421  0.00  0.00    +0.000 A 
ATOM     12  C   UNL     1      -9.149   2.108 132.317  0.00  0.00    +0.000 A 
ATOM     13  C   UNL     1      -8.942   2.676 131.075  0.00  0.00    +0.000 A 
ATOM     14  N   UNL     1      -8.804   4.005 130.885  0.00  0.00    +0.000 NA
ENDBRANCH   1   9
BRANCH   1  15
ATOM     15  C   UNL     1      -7.431   6.684 131.156  0.00  0.00    +0.000 C 
BRANCH  15  16
ATOM     16  C   UNL     1      -6.274   6.253 132.054  0.00  0.00    +0.000 C 
BRANCH  16  18
ATOM     17  C   UNL     1      -5.335   4.071 132.135  0.00  0.00    +0.000 C 
ATOM     18  N   UNL     1      -5.273   5.370 131.455  0.00  0.00    +0.000 NA
ATOM     19  C   UNL     1      -5.461   5.222 130.020  0.00  0.00    +0.000 C 
ENDBRANCH  16  18
ENDBRANCH  15  16
ENDBRANCH   1  15
TORSDOF 5
ENDMDL
MODEL 5
REMARK VINA RESULT:      -6.1      2.915      5.555
REMARK  Name = Dexbrompheniramine
REMARK  7 active torsions:
REMARK  status: ('A' for Active; 'I' for Inactive)
REMARK    1  A    between atoms: C_1  and  N_2
REMARK    2  A    between atoms: N_2  and  C_3
REMARK    3  A    between atoms: N_2  and  C_4
REMARK    4  A    between atoms: C_4  and  C_5
REMARK    5  A    between atoms: C_5  and  C_6
REMARK    6  A    between atoms: C_6  and  C_7
REMARK    7  A    between atoms: C_6  and  C_14
REMARK                            x       y       z     vdW  Elec       q    Type
REMARK                         _______ _______ _______ _____ _____    ______ ____
ROOT
ATOM      1  C   UNL     1      -7.978   1.916 123.832  0.00  0.00    +0.000 C 
ENDROOT
BRANCH   1   2
ATOM      2  C   UNL     1      -7.669   2.746 122.572  0.00  0.00    +0.000 A 
ATOM      3  C   UNL     1      -8.685   3.170 121.701  0.00  0.00    +0.000 A 
ATOM      4  C   UNL     1      -8.391   3.868 120.528  0.00  0.00    +0.000 A 
ATOM      5  C   UNL     1      -7.070   4.108 120.176  0.00  0.00    +0.000 A 
ATOM      6 BR   UNL     1      -6.668   5.018 118.574  0.00  0.00    +0.000 Br
ATOM      7  C   UNL     1      -6.043   3.718 121.021  0.00  0.00    +0.000 A 
ATOM      8  C   UNL     1      -6.356   3.124 122.243  0.00  0.00    +0.000 A 
ENDBRANCH   1   2
BRANCH   1   9
ATOM      9  C   UNL     1      -8.027   0.401 123.567  0.00  0.00    +0.000 A 
ATOM     10  C   UNL     1      -9.231  -0.216 123.233  0.00  0.00    +0.000 A 
ATOM     11  C   UNL     1      -9.213  -1.563 122.871  0.00  0.00    +0.000 A 
ATOM     12  C   UNL     1      -8.010  -2.255 122.853  0.00  0.00    +0.000 A 
ATOM     13  C   UNL     1      -6.857  -1.574 123.193  0.00  0.00    +0.000 A 
ATOM     14  N   UNL     1      -6.846  -0.270 123.541  0.00  0.00    +0.000 NA
ENDBRANCH   1   9
BRANCH   1  15
ATOM     15  C   UNL     1      -6.987   2.137 125.012  0.00  0.00    +0.000 C 
BRANCH  15  16
ATOM     16  C   UNL     1      -7.653   2.561 126.319  0.00  0.00    +0.000 C 
BRANCH  16  18
ATOM     17  C   UNL     1      -8.018   4.853 125.811  0.00  0.00    +0.000 C 
ATOM     18  N   UNL     1      -7.401   3.930 126.770  0.00  0.00    +0.000 NA
ATOM     19  C   UNL     1      -7.897   4.162 128.117  0.00  0.00    +0.000 C 
ENDBRANCH  16  18
ENDBRANCH  15  16
ENDBRANCH   1  15
TORSDOF 5
ENDMDL
MODEL 6
REMARK VINA RESULT:      -6.0      7.527     10.333
REMARK  Name = Dexbrompheniramine
REMARK  7 active torsions:
REMARK  status: ('A' for Active; 'I' for Inactive)
REMARK    1  A    between atoms: C_1  and  N_2
REMARK    2  A    between atoms: N_2  and  C_3
REMARK    3  A    between atoms: N_2  and  C_4
REMARK    4  A    between atoms: C_4  and  C_5
REMARK    5  A    between atoms: C_5  and  C_6
REMARK    6  A    between atoms: C_6  and  C_7
REMARK    7  A    between atoms: C_6  and  C_14
REMARK                            x       y       z     vdW  Elec       q    Type
REMARK                         _______ _______ _______ _____ _____    ______ ____
ROOT
ATOM      1  C   UNL     1      -7.872  -2.229 130.516  0.00  0.00    +0.000 C 
ENDROOT
BRANCH   1   2
ATOM      2  C   UNL     1      -7.965  -2.550 129.013  0.00  0.00    +0.000 A 
ATOM      3  C   UNL     1      -7.278  -1.788 128.053  0.00  0.00    +0.000 A 
ATOM      4  C   UNL     1      -7.418  -2.045 126.687  0.00  0.00    +0.000 A 
ATOM      5  C   UNL     1      -8.288  -3.036 126.253  0.00  0.00    +0.000 A 
ATOM      6 BR   UNL     1      -8.506  -3.362 124.408  0.00  0.00    +0.000 Br
ATOM      7  C   UNL     1      -8.967  -3.818 127.174  0.00  0.00    +0.000 A 
ATOM      8  C   UNL     1      -8.732  -3.626 128.535  0.00  0.00    +0.000 A 
ENDBRANCH   1   2
BRANCH   1   9
ATOM      9  C   UNL     1      -7.043  -3.254 131.308  0.00  0.00    +0.000 A 
ATOM     10  C   UNL     1      -6.116  -4.065 130.655  0.00  0.00    +0.000 A 
ATOM     11  C   UNL     1      -5.291  -4.887 131.423  0.00  0.00    +0.000 A 
ATOM     12  C   UNL     1      -5.408  -4.883 132.806  0.00  0.00    +0.000 A 
ATOM     13  C   UNL     1      -6.349  -4.049 133.381  0.00  0.00    +0.000 A 
ATOM     14  N   UNL     1      -7.155  -3.241 132.662  0.00  0.00    +0.000 NA
ENDBRANCH   1   9
BRANCH   1  15
ATOM     15  C   UNL     1      -7.289  -0.824 130.844  0.00  0.00    +0.000 C 
BRANCH  15  16
ATOM     16  C   UNL     1      -8.254   0.099 131.584  0.00  0.00    +0.000 C 
BRANCH  16  18
ATOM     17  C   UNL     1      -6.380   0.289 133.031  0.00  0.00    +0.000 C 
ATOM     18  N   UNL     1      -7.793   0.645 132.860  0.00  0.00    +0.000 NA
ATOM     19  C   UNL     1      -7.986   2.084 132.943  0.00  0.00    +0.000 C 
ENDBRANCH  16  18
ENDBRANCH  15  16
ENDBRANCH   1  15
TORSDOF 5
ENDMDL
MODEL 7
REMARK VINA RESULT:      -5.9      4.278      6.304
REMARK  Name = Dexbrompheniramine
REMARK  7 active torsions:
REMARK  status: ('A' for Active; 'I' for Inactive)
REMARK    1  A    between atoms: C_1  and  N_2
REMARK    2  A    between atoms: N_2  and  C_3
REMARK    3  A    between atoms: N_2  and  C_4
REMARK    4  A    between atoms: C_4  and  C_5
REMARK    5  A    between atoms: C_5  and  C_6
REMARK    6  A    between atoms: C_6  and  C_7
REMARK    7  A    between atoms: C_6  and  C_14
REMARK                            x       y       z     vdW  Elec       q    Type
REMARK                         _______ _______ _______ _____ _____    ______ ____
ROOT
ATOM      1  C   UNL     1      -7.417  -0.931 126.392  0.00  0.00    +0.000 C 
ENDROOT
BRANCH   1   2
ATOM      2  C   UNL     1      -6.965  -1.860 127.534  0.00  0.00    +0.000 A 
ATOM      3  C   UNL     1      -7.882  -2.412 128.443  0.00  0.00    +0.000 A 
ATOM      4  C   UNL     1      -7.457  -3.202 129.513  0.00  0.00    +0.000 A 
ATOM      5  C   UNL     1      -6.102  -3.412 129.725  0.00  0.00    +0.000 A 
ATOM      6 BR   UNL     1      -5.522  -4.449 131.191  0.00  0.00    +0.000 Br
ATOM      7  C   UNL     1      -5.170  -2.897 128.838  0.00  0.00    +0.000 A 
ATOM      8  C   UNL     1      -5.614  -2.206 127.710  0.00  0.00    +0.000 A 
ENDBRANCH   1   2
BRANCH   1   9
ATOM      9  C   UNL     1      -7.867  -1.689 125.132  0.00  0.00    +0.000 A 
ATOM     10  C   UNL     1      -8.841  -2.683 125.216  0.00  0.00    +0.000 A 
ATOM     11  C   UNL     1      -9.316  -3.254 124.037  0.00  0.00    +0.000 A 
ATOM     12  C   UNL     1      -8.814  -2.828 122.814  0.00  0.00    +0.000 A 
ATOM     13  C   UNL     1      -7.853  -1.836 122.810  0.00  0.00    +0.000 A 
ATOM     14  N   UNL     1      -7.380  -1.263 123.936  0.00  0.00    +0.000 NA
ENDBRANCH   1   9
BRANCH   1  15
ATOM     15  C   UNL     1      -8.570   0.045 126.769  0.00  0.00    +0.000 C 
BRANCH  15  16
ATOM     16  C   UNL     1      -8.266   1.514 126.488  0.00  0.00    +0.000 C 
BRANCH  16  18
ATOM     17  C   UNL     1      -8.131   2.772 124.477  0.00  0.00    +0.000 C 
ATOM     18  N   UNL     1      -9.055   2.158 125.437  0.00  0.00    +0.000 NA
ATOM     19  C   UNL     1      -9.955   1.224 124.778  0.00  0.00    +0.000 C 
ENDBRANCH  16  18
ENDBRANCH  15  16
ENDBRANCH   1  15
TORSDOF 5
ENDMDL
MODEL 8
REMARK VINA RESULT:      -5.9      7.407      8.797
REMARK  Name = Dexbrompheniramine
REMARK  7 active torsions:
REMARK  status: ('A' for Active; 'I' for Inactive)
REMARK    1  A    between atoms: C_1  and  N_2
REMARK    2  A    between atoms: N_2  and  C_3
REMARK    3  A    between atoms: N_2  and  C_4
REMARK    4  A    between atoms: C_4  and  C_5
REMARK    5  A    between atoms: C_5  and  C_6
REMARK    6  A    between atoms: C_6  and  C_7
REMARK    7  A    between atoms: C_6  and  C_14
REMARK                            x       y       z     vdW  Elec       q    Type
REMARK                         _______ _______ _______ _____ _____    ______ ____
ROOT
ATOM      1  C   UNL     1      -9.014   6.589 131.443  0.00  0.00    +0.000 C 
ENDROOT
BRANCH   1   2
ATOM      2  C   UNL     1      -7.617   6.219 130.912  0.00  0.00    +0.000 A 
ATOM      3  C   UNL     1      -7.387   5.023 130.212  0.00  0.00    +0.000 A 
ATOM      4  C   UNL     1      -6.104   4.665 129.790  0.00  0.00    +0.000 A 
ATOM      5  C   UNL     1      -5.020   5.471 130.105  0.00  0.00    +0.000 A 
ATOM      6 BR   UNL     1      -3.282   4.972 129.567  0.00  0.00    +0.000 Br
ATOM      7  C   UNL     1      -5.213   6.666 130.779  0.00  0.00    +0.000 A 
ATOM      8  C   UNL     1      -6.511   7.067 131.095  0.00  0.00    +0.000 A 
ENDBRANCH   1   2
BRANCH   1   9
ATOM      9  C   UNL     1     -10.019   6.929 130.329  0.00  0.00    +0.000 A 
ATOM     10  C   UNL     1     -11.325   6.444 130.386  0.00  0.00    +0.000 A 
ATOM     11  C   UNL     1     -12.240   6.881 129.430  0.00  0.00    +0.000 A 
ATOM     12  C   UNL     1     -11.839   7.778 128.449  0.00  0.00    +0.000 A 
ATOM     13  C   UNL     1     -10.529   8.216 128.460  0.00  0.00    +0.000 A 
ATOM     14  N   UNL     1      -9.624   7.814 129.376  0.00  0.00    +0.000 NA
ENDBRANCH   1   9
BRANCH   1  15
ATOM     15  C   UNL     1      -9.678   5.499 132.335  0.00  0.00    +0.000 C 
BRANCH  15  16
ATOM     16  C   UNL     1      -8.882   5.145 133.588  0.00  0.00    +0.000 C 
BRANCH  16  18
ATOM     17  C   UNL     1      -9.373   2.951 132.817  0.00  0.00    +0.000 C 
ATOM     18  N   UNL     1      -8.676   3.721 133.854  0.00  0.00    +0.000 NA
ATOM     19  C   UNL     1      -7.265   3.372 133.908  0.00  0.00    +0.000 C 
ENDBRANCH  16  18
ENDBRANCH  15  16
ENDBRANCH   1  15
TORSDOF 5
ENDMDL
MODEL 9
REMARK VINA RESULT:      -5.8      7.830      9.873
REMARK  Name = Dexbrompheniramine
REMARK  7 active torsions:
REMARK  status: ('A' for Active; 'I' for Inactive)
REMARK    1  A    between atoms: C_1  and  N_2
REMARK    2  A    between atoms: N_2  and  C_3
REMARK    3  A    between atoms: N_2  and  C_4
REMARK    4  A    between atoms: C_4  and  C_5
REMARK    5  A    between atoms: C_5  and  C_6
REMARK    6  A    between atoms: C_6  and  C_7
REMARK    7  A    between atoms: C_6  and  C_14
REMARK                            x       y       z     vdW  Elec       q    Type
REMARK                         _______ _______ _______ _____ _____    ______ ____
ROOT
ATOM      1  C   UNL     1      -9.516   5.213 130.982  0.00  0.00    +0.000 C 
ENDROOT
BRANCH   1   2
ATOM      2  C   UNL     1     -10.483   6.297 130.473  0.00  0.00    +0.000 A 
ATOM      3  C   UNL     1     -10.194   7.070 129.337  0.00  0.00    +0.000 A 
ATOM      4  C   UNL     1     -11.046   8.094 128.918  0.00  0.00    +0.000 A 
ATOM      5  C   UNL     1     -12.179   8.400 129.660  0.00  0.00    +0.000 A 
ATOM      6 BR   UNL     1     -13.313   9.806 129.118  0.00  0.00    +0.000 Br
ATOM      7  C   UNL     1     -12.504   7.647 130.777  0.00  0.00    +0.000 A 
ATOM      8  C   UNL     1     -11.705   6.555 131.118  0.00  0.00    +0.000 A 
ENDBRANCH   1   2
BRANCH   1   9
ATOM      9  C   UNL     1      -8.036   5.554 130.738  0.00  0.00    +0.000 A 
ATOM     10  C   UNL     1      -7.431   6.604 131.427  0.00  0.00    +0.000 A 
ATOM     11  C   UNL     1      -6.059   6.797 131.278  0.00  0.00    +0.000 A 
ATOM     12  C   UNL     1      -5.329   5.952 130.453  0.00  0.00    +0.000 A 
ATOM     13  C   UNL     1      -5.998   4.932 129.805  0.00  0.00    +0.000 A 
ATOM     14  N   UNL     1      -7.324   4.718 129.937  0.00  0.00    +0.000 NA
ENDBRANCH   1   9
BRANCH   1  15
ATOM     15  C   UNL     1      -9.659   4.875 132.495  0.00  0.00    +0.000 C 
BRANCH  15  16
ATOM     16  C   UNL     1      -9.190   3.473 132.872  0.00  0.00    +0.000 C 
BRANCH  16  18
ATOM     17  C   UNL     1      -6.875   3.118 133.273  0.00  0.00    +0.000 C 
ATOM     18  N   UNL     1      -8.167   3.381 133.915  0.00  0.00    +0.000 NA
ATOM     19  C   UNL     1      -8.113   4.581 134.736  0.00  0.00    +0.000 C 
ENDBRANCH  16  18
ENDBRANCH  15  16
ENDBRANCH   1  15
TORSDOF 5
ENDMDL
