MODEL 1
REMARK VINA RESULT:      -6.3      0.000      0.000
REMARK  Name = Dexfenfluramine
REMARK  7 active torsions:
REMARK  status: ('A' for Active; 'I' for Inactive)
REMARK    1  A    between atoms: C_1  and  C_2
REMARK    2  A    between atoms: C_2  and  N_3
REMARK    3  A    between atoms: N_3  and  C_4
REMARK    4  A    between atoms: C_4  and  C_5
REMARK    5  A    between atoms: C_4  and  C_6
REMARK    6  A    between atoms: C_6  and  C_7
REMARK    7  A    between atoms: C_11  and  C_13
REMARK                            x       y       z     vdW  Elec       q    Type
REMARK                         _______ _______ _______ _____ _____    ______ ____
ROOT
ATOM      1  C   UNL     1     -11.521   6.905 130.302  0.00  0.00    +0.000 A 
ATOM      2  C   UNL     1     -12.359   7.961 130.666  0.00  0.00    +0.000 A 
ATOM      3  C   UNL     1     -12.796   8.874 129.693  0.00  0.00    +0.000 A 
ATOM      4  C   UNL     1     -12.431   8.715 128.353  0.00  0.00    +0.000 A 
ATOM      5  C   UNL     1     -11.572   7.686 127.980  0.00  0.00    +0.000 A 
ATOM      6  C   UNL     1     -11.041   6.878 128.988  0.00  0.00    +0.000 A 
ENDROOT
BRANCH   5   7
ATOM      7  C   UNL     1     -11.248   7.360 126.544  0.00  0.00    +0.000 C 
ATOM      8  F   UNL     1     -10.238   6.455 126.429  0.00  0.00    +0.000 F 
ATOM      9  F   UNL     1     -12.307   6.845 125.868  0.00  0.00    +0.000 F 
ATOM     10  F   UNL     1     -10.840   8.447 125.823  0.00  0.00    +0.000 F 
ENDBRANCH   5   7
BRANCH   1  11
ATOM     11  C   UNL     1     -11.238   5.760 131.267  0.00  0.00    +0.000 C 
BRANCH  11  12
ATOM     12  C   UNL     1     -10.157   6.073 132.345  0.00  0.00    +0.000 C 
ATOM     13  C   UNL     1      -8.764   6.330 131.718  0.00  0.00    +0.000 C 
BRANCH  12  14
ATOM     14  N   UNL     1     -10.034   4.974 133.320  0.00  0.00    +0.000 NA
ATOM     15  H   UNL     1      -9.936   5.357 134.261  0.00  0.00    +0.000 HD
BRANCH  14  17
ATOM     16  C   UNL     1      -9.260   2.676 132.988  0.00  0.00    +0.000 C 
ATOM     17  C   UNL     1      -8.869   4.135 133.019  0.00  0.00    +0.000 C 
ENDBRANCH  14  17
ENDBRANCH  12  14
ENDBRANCH  11  12
ENDBRANCH   1  11
TORSDOF 5
ENDMDL
MODEL 2
REMARK VINA RESULT:      -6.2      4.350      6.559
REMARK  Name = Dexfenfluramine
REMARK  7 active torsions:
REMARK  status: ('A' for Active; 'I' for Inactive)
REMARK    1  A    between atoms: C_1  and  C_2
REMARK    2  A    between atoms: C_2  and  N_3
REMARK    3  A    between atoms: N_3  and  C_4
REMARK    4  A    between atoms: C_4  and  C_5
REMARK    5  A    between atoms: C_4  and  C_6
REMARK    6  A    between atoms: C_6  and  C_7
REMARK    7  A    between atoms: C_11  and  C_13
REMARK                            x       y       z     vdW  Elec       q    Type
REMARK                         _______ _______ _______ _____ _____    ______ ____
ROOT
ATOM      1  C   UNL     1     -10.148   6.504 131.415  0.00  0.00    +0.000 A 
ATOM      2  C   UNL     1      -9.072   7.023 130.694  0.00  0.00    +0.000 A 
ATOM      3  C   UNL     1      -7.758   6.779 131.125  0.00  0.00    +0.000 A 
ATOM      4  C   UNL     1      -7.514   5.988 132.251  0.00  0.00    +0.000 A 
ATOM      5  C   UNL     1      -8.577   5.489 132.997  0.00  0.00    +0.000 A 
ATOM      6  C   UNL     1      -9.871   5.863 132.627  0.00  0.00    +0.000 A 
ENDROOT
BRANCH   5   7
ATOM      7  C   UNL     1      -8.402   4.513 134.134  0.00  0.00    +0.000 C 
ATOM      8  F   UNL     1      -8.180   5.133 135.326  0.00  0.00    +0.000 F 
ATOM      9  F   UNL     1      -9.483   3.711 134.312  0.00  0.00    +0.000 F 
ATOM     10  F   UNL     1      -7.338   3.672 133.964  0.00  0.00    +0.000 F 
ENDBRANCH   5   7
BRANCH   1  11
ATOM     11  C   UNL     1     -11.561   6.529 130.844  0.00  0.00    +0.000 C 
BRANCH  11  12
ATOM     12  C   UNL     1     -11.711   7.342 129.523  0.00  0.00    +0.000 C 
ATOM     13  C   UNL     1     -12.637   8.572 129.698  0.00  0.00    +0.000 C 
BRANCH  12  14
ATOM     14  N   UNL     1     -12.247   6.507 128.433  0.00  0.00    +0.000 NA
ATOM     15  H   UNL     1     -11.644   5.695 128.291  0.00  0.00    +0.000 HD
BRANCH  14  17
ATOM     16  C   UNL     1     -10.950   7.502 126.611  0.00  0.00    +0.000 C 
ATOM     17  C   UNL     1     -12.330   7.269 127.183  0.00  0.00    +0.000 C 
ENDBRANCH  14  17
ENDBRANCH  12  14
ENDBRANCH  11  12
ENDBRANCH   1  11
TORSDOF 5
ENDMDL
MODEL 3
REMARK VINA RESULT:      -6.2      1.771      2.406
REMARK  Name = Dexfenfluramine
REMARK  7 active torsions:
REMARK  status: ('A' for Active; 'I' for Inactive)
REMARK    1  A    between atoms: C_1  and  C_2
REMARK    2  A    between atoms: C_2  and  N_3
REMARK    3  A    between atoms: N_3  and  C_4
REMARK    4  A    between atoms: C_4  and  C_5
REMARK    5  A    between atoms: C_4  and  C_6
REMARK    6  A    between atoms: C_6  and  C_7
REMARK    7  A    between atoms: C_11  and  C_13
REMARK                            x       y       z     vdW  Elec       q    Type
REMARK                         _______ _______ _______ _____ _____    ______ ____
ROOT
ATOM      1  C   UNL     1     -10.058   6.737 130.633  0.00  0.00    +0.000 A 
ATOM      2  C   UNL     1     -10.871   6.412 131.720  0.00  0.00    +0.000 A 
ATOM      3  C   UNL     1     -12.215   6.815 131.734  0.00  0.00    +0.000 A 
ATOM      4  C   UNL     1     -12.761   7.509 130.650  0.00  0.00    +0.000 A 
ATOM      5  C   UNL     1     -11.957   7.866 129.573  0.00  0.00    +0.000 A 
ATOM      6  C   UNL     1     -10.593   7.575 129.649  0.00  0.00    +0.000 A 
ENDROOT
BRANCH   5   7
ATOM      7  C   UNL     1     -12.496   8.483 128.307  0.00  0.00    +0.000 C 
ATOM      8  F   UNL     1     -11.530   8.682 127.369  0.00  0.00    +0.000 F 
ATOM      9  F   UNL     1     -13.456   7.725 127.718  0.00  0.00    +0.000 F 
ATOM     10  F   UNL     1     -13.062   9.712 128.505  0.00  0.00    +0.000 F 
ENDBRANCH   5   7
BRANCH   1  11
ATOM     11  C   UNL     1      -8.682   6.103 130.464  0.00  0.00    +0.000 C 
BRANCH  11  12
ATOM     12  C   UNL     1      -7.712   6.332 131.662  0.00  0.00    +0.000 C 
ATOM     13  C   UNL     1      -6.350   6.914 131.206  0.00  0.00    +0.000 C 
BRANCH  12  14
ATOM     14  N   UNL     1      -7.461   5.080 132.400  0.00  0.00    +0.000 NA
ATOM     15  H   UNL     1      -7.857   4.292 131.887  0.00  0.00    +0.000 HD
BRANCH  14  17
ATOM     16  C   UNL     1      -8.953   3.936 133.966  0.00  0.00    +0.000 C 
ATOM     17  C   UNL     1      -8.059   5.133 133.737  0.00  0.00    +0.000 C 
ENDBRANCH  14  17
ENDBRANCH  12  14
ENDBRANCH  11  12
ENDBRANCH   1  11
TORSDOF 5
ENDMDL
MODEL 4
REMARK VINA RESULT:      -6.1      8.434      9.822
REMARK  Name = Dexfenfluramine
REMARK  7 active torsions:
REMARK  status: ('A' for Active; 'I' for Inactive)
REMARK    1  A    between atoms: C_1  and  C_2
REMARK    2  A    between atoms: C_2  and  N_3
REMARK    3  A    between atoms: N_3  and  C_4
REMARK    4  A    between atoms: C_4  and  C_5
REMARK    5  A    between atoms: C_4  and  C_6
REMARK    6  A    between atoms: C_6  and  C_7
REMARK    7  A    between atoms: C_11  and  C_13
REMARK                            x       y       z     vdW  Elec       q    Type
REMARK                         _______ _______ _______ _____ _____    ______ ____
ROOT
ATOM      1  C   UNL     1      -7.886   2.400 122.819  0.00  0.00    +0.000 A 
ATOM      2  C   UNL     1      -8.995   2.696 122.023  0.00  0.00    +0.000 A 
ATOM      3  C   UNL     1      -8.847   3.521 120.897  0.00  0.00    +0.000 A 
ATOM      4  C   UNL     1      -7.591   4.020 120.540  0.00  0.00    +0.000 A 
ATOM      5  C   UNL     1      -6.483   3.759 121.340  0.00  0.00    +0.000 A 
ATOM      6  C   UNL     1      -6.684   3.054 122.529  0.00  0.00    +0.000 A 
ENDROOT
BRANCH   5   7
ATOM      7  C   UNL     1      -5.076   4.136 120.950  0.00  0.00    +0.000 C 
ATOM      8  F   UNL     1      -5.036   4.954 119.862  0.00  0.00    +0.000 F 
ATOM      9  F   UNL     1      -4.408   4.780 121.942  0.00  0.00    +0.000 F 
ATOM     10  F   UNL     1      -4.301   3.060 120.617  0.00  0.00    +0.000 F 
ENDBRANCH   5   7
BRANCH   1  11
ATOM     11  C   UNL     1      -7.954   1.315 123.887  0.00  0.00    +0.000 C 
BRANCH  11  12
ATOM     12  C   UNL     1      -9.395   0.841 124.238  0.00  0.00    +0.000 C 
ATOM     13  C   UNL     1      -9.584   0.626 125.761  0.00  0.00    +0.000 C 
BRANCH  12  14
ATOM     14  N   UNL     1      -9.735  -0.415 123.544  0.00  0.00    +0.000 NA
ATOM     15  H   UNL     1     -10.444  -0.922 124.075  0.00  0.00    +0.000 HD
BRANCH  14  17
ATOM     16  C   UNL     1      -8.951  -2.714 123.242  0.00  0.00    +0.000 C 
ATOM     17  C   UNL     1      -8.550  -1.265 123.391  0.00  0.00    +0.000 C 
ENDBRANCH  14  17
ENDBRANCH  12  14
ENDBRANCH  11  12
ENDBRANCH   1  11
TORSDOF 5
ENDMDL
MODEL 5
REMARK VINA RESULT:      -6.1      1.741      2.531
REMARK  Name = Dexfenfluramine
REMARK  7 active torsions:
REMARK  status: ('A' for Active; 'I' for Inactive)
REMARK    1  A    between atoms: C_1  and  C_2
REMARK    2  A    between atoms: C_2  and  N_3
REMARK    3  A    between atoms: N_3  and  C_4
REMARK    4  A    between atoms: C_4  and  C_5
REMARK    5  A    between atoms: C_4  and  C_6
REMARK    6  A    between atoms: C_6  and  C_7
REMARK    7  A    between atoms: C_11  and  C_13
REMARK                            x       y       z     vdW  Elec       q    Type
REMARK                         _______ _______ _______ _____ _____    ______ ____
ROOT
ATOM      1  C   UNL     1     -10.080   6.666 130.631  0.00  0.00    +0.000 A 
ATOM      2  C   UNL     1     -10.882   6.390 131.740  0.00  0.00    +0.000 A 
ATOM      3  C   UNL     1     -12.202   6.866 131.785  0.00  0.00    +0.000 A 
ATOM      4  C   UNL     1     -12.737   7.583 130.710  0.00  0.00    +0.000 A 
ATOM      5  C   UNL     1     -11.941   7.892 129.612  0.00  0.00    +0.000 A 
ATOM      6  C   UNL     1     -10.593   7.528 129.655  0.00  0.00    +0.000 A 
ENDROOT
BRANCH   5   7
ATOM      7  C   UNL     1     -12.478   8.531 128.356  0.00  0.00    +0.000 C 
ATOM      8  F   UNL     1     -13.029   9.755 128.587  0.00  0.00    +0.000 F 
ATOM      9  F   UNL     1     -11.525   8.710 127.405  0.00  0.00    +0.000 F 
ATOM     10  F   UNL     1     -13.467   7.800 127.758  0.00  0.00    +0.000 F 
ENDBRANCH   5   7
BRANCH   1  11
ATOM     11  C   UNL     1      -8.745   5.958 130.432  0.00  0.00    +0.000 C 
BRANCH  11  12
ATOM     12  C   UNL     1      -7.989   5.619 131.751  0.00  0.00    +0.000 C 
ATOM     13  C   UNL     1      -6.658   6.401 131.879  0.00  0.00    +0.000 C 
BRANCH  12  14
ATOM     14  N   UNL     1      -7.694   4.177 131.848  0.00  0.00    +0.000 NA
ATOM     15  H   UNL     1      -7.445   3.813 130.927  0.00  0.00    +0.000 HD
BRANCH  14  17
ATOM     16  C   UNL     1      -9.104   3.786 133.810  0.00  0.00    +0.000 C 
ATOM     17  C   UNL     1      -8.852   3.439 132.361  0.00  0.00    +0.000 C 
ENDBRANCH  14  17
ENDBRANCH  12  14
ENDBRANCH  11  12
ENDBRANCH   1  11
TORSDOF 5
ENDMDL
MODEL 6
REMARK VINA RESULT:      -6.0      9.296     10.983
REMARK  Name = Dexfenfluramine
REMARK  7 active torsions:
REMARK  status: ('A' for Active; 'I' for Inactive)
REMARK    1  A    between atoms: C_1  and  C_2
REMARK    2  A    between atoms: C_2  and  N_3
REMARK    3  A    between atoms: N_3  and  C_4
REMARK    4  A    between atoms: C_4  and  C_5
REMARK    5  A    between atoms: C_4  and  C_6
REMARK    6  A    between atoms: C_6  and  C_7
REMARK    7  A    between atoms: C_11  and  C_13
REMARK                            x       y       z     vdW  Elec       q    Type
REMARK                         _______ _______ _______ _____ _____    ______ ____
ROOT
ATOM      1  C   UNL     1      -8.408  -3.030 126.383  0.00  0.00    +0.000 A 
ATOM      2  C   UNL     1      -9.514  -3.185 125.545  0.00  0.00    +0.000 A 
ATOM      3  C   UNL     1      -9.346  -3.151 124.152  0.00  0.00    +0.000 A 
ATOM      4  C   UNL     1      -8.075  -3.002 123.592  0.00  0.00    +0.000 A 
ATOM      5  C   UNL     1      -6.967  -2.816 124.413  0.00  0.00    +0.000 A 
ATOM      6  C   UNL     1      -7.181  -2.713 125.789  0.00  0.00    +0.000 A 
ENDROOT
BRANCH   5   7
ATOM      7  C   UNL     1      -5.550  -2.792 123.897  0.00  0.00    +0.000 C 
ATOM      8  F   UNL     1      -4.885  -3.955 124.143  0.00  0.00    +0.000 F 
ATOM      9  F   UNL     1      -5.479  -2.583 122.557  0.00  0.00    +0.000 F 
ATOM     10  F   UNL     1      -4.784  -1.814 124.467  0.00  0.00    +0.000 F 
ENDBRANCH   5   7
BRANCH   1  11
ATOM     11  C   UNL     1      -8.509  -3.316 127.876  0.00  0.00    +0.000 C 
BRANCH  11  12
ATOM     12  C   UNL     1      -7.342  -2.733 128.728  0.00  0.00    +0.000 C 
ATOM     13  C   UNL     1      -6.889  -3.708 129.844  0.00  0.00    +0.000 C 
BRANCH  12  14
ATOM     14  N   UNL     1      -7.719  -1.451 129.354  0.00  0.00    +0.000 NA
ATOM     15  H   UNL     1      -8.723  -1.300 129.252  0.00  0.00    +0.000 HD
BRANCH  14  17
ATOM     16  C   UNL     1      -7.917   0.446 127.821  0.00  0.00    +0.000 C 
ATOM     17  C   UNL     1      -6.999  -0.335 128.734  0.00  0.00    +0.000 C 
ENDBRANCH  14  17
ENDBRANCH  12  14
ENDBRANCH  11  12
ENDBRANCH   1  11
TORSDOF 5
ENDMDL
MODEL 7
REMARK VINA RESULT:      -6.0     10.115     11.697
REMARK  Name = Dexfenfluramine
REMARK  7 active torsions:
REMARK  status: ('A' for Active; 'I' for Inactive)
REMARK    1  A    between atoms: C_1  and  C_2
REMARK    2  A    between atoms: C_2  and  N_3
REMARK    3  A    between atoms: N_3  and  C_4
REMARK    4  A    between atoms: C_4  and  C_5
REMARK    5  A    between atoms: C_4  and  C_6
REMARK    6  A    between atoms: C_6  and  C_7
REMARK    7  A    between atoms: C_11  and  C_13
REMARK                            x       y       z     vdW  Elec       q    Type
REMARK                         _______ _______ _______ _____ _____    ______ ____
ROOT
ATOM      1  C   UNL     1      -7.326  -1.194 123.436  0.00  0.00    +0.000 A 
ATOM      2  C   UNL     1      -8.478  -1.809 123.929  0.00  0.00    +0.000 A 
ATOM      3  C   UNL     1      -8.428  -3.145 124.358  0.00  0.00    +0.000 A 
ATOM      4  C   UNL     1      -7.225  -3.856 124.332  0.00  0.00    +0.000 A 
ATOM      5  C   UNL     1      -6.076  -3.266 123.816  0.00  0.00    +0.000 A 
ATOM      6  C   UNL     1      -6.186  -1.986 123.267  0.00  0.00    +0.000 A 
ENDROOT
BRANCH   5   7
ATOM      7  C   UNL     1      -4.714  -3.910 123.886  0.00  0.00    +0.000 C 
ATOM      8  F   UNL     1      -3.755  -3.175 123.256  0.00  0.00    +0.000 F 
ATOM      9  F   UNL     1      -4.282  -4.096 125.159  0.00  0.00    +0.000 F 
ATOM     10  F   UNL     1      -4.667  -5.141 123.293  0.00  0.00    +0.000 F 
ENDBRANCH   5   7
BRANCH   1  11
ATOM     11  C   UNL     1      -7.279   0.312 123.206  0.00  0.00    +0.000 C 
BRANCH  11  12
ATOM     12  C   UNL     1      -8.351   1.122 123.995  0.00  0.00    +0.000 C 
ATOM     13  C   UNL     1      -8.823   2.377 123.217  0.00  0.00    +0.000 C 
BRANCH  12  14
ATOM     14  N   UNL     1      -7.843   1.553 125.310  0.00  0.00    +0.000 NA
ATOM     15  H   UNL     1      -6.906   1.176 125.459  0.00  0.00    +0.000 HD
BRANCH  14  17
ATOM     16  C   UNL     1      -8.051   0.004 127.193  0.00  0.00    +0.000 C 
ATOM     17  C   UNL     1      -8.723   1.092 126.388  0.00  0.00    +0.000 C 
ENDBRANCH  14  17
ENDBRANCH  12  14
ENDBRANCH  11  12
ENDBRANCH   1  11
TORSDOF 5
ENDMDL
MODEL 8
REMARK VINA RESULT:      -5.9      2.408      3.541
REMARK  Name = Dexfenfluramine
REMARK  7 active torsions:
REMARK  status: ('A' for Active; 'I' for Inactive)
REMARK    1  A    between atoms: C_1  and  C_2
REMARK    2  A    between atoms: C_2  and  N_3
REMARK    3  A    between atoms: N_3  and  C_4
REMARK    4  A    between atoms: C_4  and  C_5
REMARK    5  A    between atoms: C_4  and  C_6
REMARK    6  A    between atoms: C_6  and  C_7
REMARK    7  A    between atoms: C_11  and  C_13
REMARK                            x       y       z     vdW  Elec       q    Type
REMARK                         _______ _______ _______ _____ _____    ______ ____
ROOT
ATOM      1  C   UNL     1      -9.554   6.727 131.133  0.00  0.00    +0.000 A 
ATOM      2  C   UNL     1     -10.591   6.271 131.949  0.00  0.00    +0.000 A 
ATOM      3  C   UNL     1     -11.926   6.472 131.563  0.00  0.00    +0.000 A 
ATOM      4  C   UNL     1     -12.229   7.093 130.347  0.00  0.00    +0.000 A 
ATOM      5  C   UNL     1     -11.208   7.581 129.538  0.00  0.00    +0.000 A 
ATOM      6  C   UNL     1      -9.897   7.492 130.013  0.00  0.00    +0.000 A 
ENDROOT
BRANCH   5   7
ATOM      7  C   UNL     1     -11.441   8.129 128.153  0.00  0.00    +0.000 C 
ATOM      8  F   UNL     1     -12.469   9.022 128.110  0.00  0.00    +0.000 F 
ATOM      9  F   UNL     1     -10.354   8.768 127.648  0.00  0.00    +0.000 F 
ATOM     10  F   UNL     1     -11.765   7.166 127.239  0.00  0.00    +0.000 F 
ENDBRANCH   5   7
BRANCH   1  11
ATOM     11  C   UNL     1      -8.112   6.305 131.387  0.00  0.00    +0.000 C 
BRANCH  11  12
ATOM     12  C   UNL     1      -7.489   5.422 130.266  0.00  0.00    +0.000 C 
ATOM     13  C   UNL     1      -7.595   3.909 130.587  0.00  0.00    +0.000 C 
BRANCH  12  14
ATOM     14  N   UNL     1      -6.068   5.752 130.045  0.00  0.00    +0.000 NA
ATOM     15  H   UNL     1      -5.493   4.923 130.199  0.00  0.00    +0.000 HD
BRANCH  14  17
ATOM     16  C   UNL     1      -4.582   7.681 130.295  0.00  0.00    +0.000 C 
ATOM     17  C   UNL     1      -5.632   6.816 130.954  0.00  0.00    +0.000 C 
ENDBRANCH  14  17
ENDBRANCH  12  14
ENDBRANCH  11  12
ENDBRANCH   1  11
TORSDOF 5
ENDMDL
MODEL 9
REMARK VINA RESULT:      -5.8      9.684     11.514
REMARK  Name = Dexfenfluramine
REMARK  7 active torsions:
REMARK  status: ('A' for Active; 'I' for Inactive)
REMARK    1  A    between atoms: C_1  and  C_2
REMARK    2  A    between atoms: C_2  and  N_3
REMARK    3  A    between atoms: N_3  and  C_4
REMARK    4  A    between atoms: C_4  and  C_5
REMARK    5  A    between atoms: C_4  and  C_6
REMARK    6  A    between atoms: C_6  and  C_7
REMARK    7  A    between atoms: C_11  and  C_13
REMARK                            x       y       z     vdW  Elec       q    Type
REMARK                         _______ _______ _______ _____ _____    ______ ____
ROOT
ATOM      1  C   UNL     1      -6.727   0.338 124.127  0.00  0.00    +0.000 A 
ATOM      2  C   UNL     1      -6.350   0.735 125.412  0.00  0.00    +0.000 A 
ATOM      3  C   UNL     1      -5.759  -0.191 126.285  0.00  0.00    +0.000 A 
ATOM      4  C   UNL     1      -5.506  -1.501 125.868  0.00  0.00    +0.000 A 
ATOM      5  C   UNL     1      -5.903  -1.920 124.603  0.00  0.00    +0.000 A 
ATOM      6  C   UNL     1      -6.615  -1.019 123.807  0.00  0.00    +0.000 A 
ENDROOT
BRANCH   5   7
ATOM      7  C   UNL     1      -5.541  -3.266 124.026  0.00  0.00    +0.000 C 
ATOM      8  F   UNL     1      -5.181  -3.193 122.715  0.00  0.00    +0.000 F 
ATOM      9  F   UNL     1      -4.507  -3.858 124.678  0.00  0.00    +0.000 F 
ATOM     10  F   UNL     1      -6.570  -4.165 124.066  0.00  0.00    +0.000 F 
ENDBRANCH   5   7
BRANCH   1  11
ATOM     11  C   UNL     1      -7.130   1.364 123.075  0.00  0.00    +0.000 C 
BRANCH  11  12
ATOM     12  C   UNL     1      -8.368   2.230 123.455  0.00  0.00    +0.000 C 
ATOM     13  C   UNL     1      -9.703   1.511 123.135  0.00  0.00    +0.000 C 
BRANCH  12  14
ATOM     14  N   UNL     1      -8.357   3.526 122.751  0.00  0.00    +0.000 NA
ATOM     15  H   UNL     1      -9.004   4.171 123.206  0.00  0.00    +0.000 HD
BRANCH  14  17
ATOM     16  C   UNL     1      -7.676   3.907 120.432  0.00  0.00    +0.000 C 
ATOM     17  C   UNL     1      -8.747   3.362 121.348  0.00  0.00    +0.000 C 
ENDBRANCH  14  17
ENDBRANCH  12  14
ENDBRANCH  11  12
ENDBRANCH   1  11
TORSDOF 5
ENDMDL
