MODEL 1
REMARK VINA RESULT:      -6.5      0.000      0.000
REMARK  Name = Dexibuprofen
REMARK  8 active torsions:
REMARK  status: ('A' for Active; 'I' for Inactive)
REMARK    1  A    between atoms: C_1  and  C_2
REMARK    2  A    between atoms: C_2  and  C_3
REMARK    3  A    between atoms: C_2  and  C_4
REMARK    4  A    between atoms: C_4  and  C_5
REMARK    5  A    between atoms: C_8  and  C_11
REMARK    6  A    between atoms: C_11  and  C_12
REMARK    7  A    between atoms: C_11  and  C_13
REMARK    8  A    between atoms: C_13  and  O_14
REMARK                            x       y       z     vdW  Elec       q    Type
REMARK                         _______ _______ _______ _____ _____    ______ ____
ROOT
ATOM      1  C   UNL     1     -10.376   6.385 131.447  0.00  0.00    +0.000 A 
ATOM      2  C   UNL     1      -9.476   6.911 130.523  0.00  0.00    +0.000 A 
ATOM      3  C   UNL     1      -9.944   7.685 129.464  0.00  0.00    +0.000 A 
ATOM      4  C   UNL     1     -11.320   7.891 129.273  0.00  0.00    +0.000 A 
ATOM      5  C   UNL     1     -12.214   7.390 130.216  0.00  0.00    +0.000 A 
ATOM      6  C   UNL     1     -11.748   6.580 131.232  0.00  0.00    +0.000 A 
ENDROOT
BRANCH   4   7
ATOM      7  C   UNL     1     -11.895   8.463 127.991  0.00  0.00    +0.000 C 
ATOM      8  C   UNL     1     -13.406   8.643 128.221  0.00  0.00    +0.000 C 
BRANCH   7   9
ATOM      9  C   UNL     1     -11.547   7.636 126.757  0.00  0.00    +0.000 C 
ATOM     10  O   UNL     1     -10.733   8.012 125.911  0.00  0.00    +0.000 OA
BRANCH   9  11
ATOM     11  O   UNL     1     -12.136   6.429 126.638  0.00  0.00    +0.000 OA
ATOM     12  H   UNL     1     -12.063   5.821 127.395  0.00  0.00    +0.000 HD
ENDBRANCH   9  11
ENDBRANCH   7   9
ENDBRANCH   4   7
BRANCH   1  13
ATOM     13  C   UNL     1      -9.861   5.712 132.698  0.00  0.00    +0.000 C 
BRANCH  13  15
ATOM     14  C   UNL     1      -8.840   3.628 133.695  0.00  0.00    +0.000 C 
ATOM     15  C   UNL     1      -9.084   4.410 132.413  0.00  0.00    +0.000 C 
ATOM     16  C   UNL     1      -9.819   3.495 131.413  0.00  0.00    +0.000 C 
ENDBRANCH  13  15
ENDBRANCH   1  13
TORSDOF 5
ENDMDL
MODEL 2
REMARK VINA RESULT:      -6.2      9.892     10.656
REMARK  Name = Dexibuprofen
REMARK  8 active torsions:
REMARK  status: ('A' for Active; 'I' for Inactive)
REMARK    1  A    between atoms: C_1  and  C_2
REMARK    2  A    between atoms: C_2  and  C_3
REMARK    3  A    between atoms: C_2  and  C_4
REMARK    4  A    between atoms: C_4  and  C_5
REMARK    5  A    between atoms: C_8  and  C_11
REMARK    6  A    between atoms: C_11  and  C_12
REMARK    7  A    between atoms: C_11  and  C_13
REMARK    8  A    between atoms: C_13  and  O_14
REMARK                            x       y       z     vdW  Elec       q    Type
REMARK                         _______ _______ _______ _____ _____    ______ ____
ROOT
ATOM      1  C   UNL     1      -7.752  -2.884 128.899  0.00  0.00    +0.000 A 
ATOM      2  C   UNL     1      -6.879  -2.208 128.049  0.00  0.00    +0.000 A 
ATOM      3  C   UNL     1      -7.059  -2.282 126.670  0.00  0.00    +0.000 A 
ATOM      4  C   UNL     1      -8.070  -3.085 126.116  0.00  0.00    +0.000 A 
ATOM      5  C   UNL     1      -8.959  -3.735 126.969  0.00  0.00    +0.000 A 
ATOM      6  C   UNL     1      -8.742  -3.699 128.331  0.00  0.00    +0.000 A 
ENDROOT
BRANCH   4   7
ATOM      7  C   UNL     1      -8.124  -3.437 124.640  0.00  0.00    +0.000 C 
ATOM      8  C   UNL     1      -6.737  -3.118 124.055  0.00  0.00    +0.000 C 
BRANCH   7   9
ATOM      9  C   UNL     1      -9.281  -2.766 123.906  0.00  0.00    +0.000 C 
ATOM     10  O   UNL     1      -9.356  -1.545 123.757  0.00  0.00    +0.000 OA
BRANCH   9  11
ATOM     11  O   UNL     1     -10.220  -3.571 123.371  0.00  0.00    +0.000 OA
ATOM     12  H   UNL     1     -10.604  -4.254 123.949  0.00  0.00    +0.000 HD
ENDBRANCH   9  11
ENDBRANCH   7   9
ENDBRANCH   4   7
BRANCH   1  13
ATOM     13  C   UNL     1      -7.679  -2.652 130.390  0.00  0.00    +0.000 C 
BRANCH  13  15
ATOM     14  C   UNL     1      -6.528  -3.315 132.538  0.00  0.00    +0.000 C 
ATOM     15  C   UNL     1      -6.382  -3.192 131.029  0.00  0.00    +0.000 C 
ATOM     16  C   UNL     1      -5.978  -4.567 130.461  0.00  0.00    +0.000 C 
ENDBRANCH  13  15
ENDBRANCH   1  13
TORSDOF 5
ENDMDL
MODEL 3
REMARK VINA RESULT:      -6.0      3.099      5.867
REMARK  Name = Dexibuprofen
REMARK  8 active torsions:
REMARK  status: ('A' for Active; 'I' for Inactive)
REMARK    1  A    between atoms: C_1  and  C_2
REMARK    2  A    between atoms: C_2  and  C_3
REMARK    3  A    between atoms: C_2  and  C_4
REMARK    4  A    between atoms: C_4  and  C_5
REMARK    5  A    between atoms: C_8  and  C_11
REMARK    6  A    between atoms: C_11  and  C_12
REMARK    7  A    between atoms: C_11  and  C_13
REMARK    8  A    between atoms: C_13  and  O_14
REMARK                            x       y       z     vdW  Elec       q    Type
REMARK                         _______ _______ _______ _____ _____    ______ ____
ROOT
ATOM      1  C   UNL     1     -11.442   6.916 130.603  0.00  0.00    +0.000 A 
ATOM      2  C   UNL     1     -11.293   6.260 131.823  0.00  0.00    +0.000 A 
ATOM      3  C   UNL     1     -10.019   6.070 132.356  0.00  0.00    +0.000 A 
ATOM      4  C   UNL     1      -8.874   6.471 131.649  0.00  0.00    +0.000 A 
ATOM      5  C   UNL     1      -9.029   7.152 130.444  0.00  0.00    +0.000 A 
ATOM      6  C   UNL     1     -10.289   7.289 129.898  0.00  0.00    +0.000 A 
ENDROOT
BRANCH   4   7
ATOM      7  C   UNL     1      -7.474   6.027 132.033  0.00  0.00    +0.000 C 
ATOM      8  C   UNL     1      -6.495   6.851 131.178  0.00  0.00    +0.000 C 
BRANCH   7   9
ATOM      9  C   UNL     1      -7.275   4.518 131.928  0.00  0.00    +0.000 C 
ATOM     10  O   UNL     1      -7.098   3.799 132.914  0.00  0.00    +0.000 OA
BRANCH   9  11
ATOM     11  O   UNL     1      -7.345   3.971 130.697  0.00  0.00    +0.000 OA
ATOM     12  H   UNL     1      -7.370   2.999 130.642  0.00  0.00    +0.000 HD
ENDBRANCH   9  11
ENDBRANCH   7   9
ENDBRANCH   4   7
BRANCH   1  13
ATOM     13  C   UNL     1     -12.821   7.294 130.117  0.00  0.00    +0.000 C 
BRANCH  13  15
ATOM     14  C   UNL     1     -13.806   7.645 127.818  0.00  0.00    +0.000 C 
ATOM     15  C   UNL     1     -12.802   8.159 128.839  0.00  0.00    +0.000 C 
ATOM     16  C   UNL     1     -13.112   9.641 129.130  0.00  0.00    +0.000 C 
ENDBRANCH  13  15
ENDBRANCH   1  13
TORSDOF 5
ENDMDL
MODEL 4
REMARK VINA RESULT:      -6.0      3.852      6.481
REMARK  Name = Dexibuprofen
REMARK  8 active torsions:
REMARK  status: ('A' for Active; 'I' for Inactive)
REMARK    1  A    between atoms: C_1  and  C_2
REMARK    2  A    between atoms: C_2  and  C_3
REMARK    3  A    between atoms: C_2  and  C_4
REMARK    4  A    between atoms: C_4  and  C_5
REMARK    5  A    between atoms: C_8  and  C_11
REMARK    6  A    between atoms: C_11  and  C_12
REMARK    7  A    between atoms: C_11  and  C_13
REMARK    8  A    between atoms: C_13  and  O_14
REMARK                            x       y       z     vdW  Elec       q    Type
REMARK                         _______ _______ _______ _____ _____    ______ ____
ROOT
ATOM      1  C   UNL     1     -10.215   7.109 130.423  0.00  0.00    +0.000 A 
ATOM      2  C   UNL     1     -10.960   6.466 131.409  0.00  0.00    +0.000 A 
ATOM      3  C   UNL     1     -10.311   5.865 132.485  0.00  0.00    +0.000 A 
ATOM      4  C   UNL     1      -8.909   5.837 132.560  0.00  0.00    +0.000 A 
ATOM      5  C   UNL     1      -8.169   6.506 131.588  0.00  0.00    +0.000 A 
ATOM      6  C   UNL     1      -8.815   7.053 130.498  0.00  0.00    +0.000 A 
ENDROOT
BRANCH   4   7
ATOM      7  C   UNL     1      -8.155   4.951 133.534  0.00  0.00    +0.000 C 
ATOM      8  C   UNL     1      -9.112   3.815 133.937  0.00  0.00    +0.000 C 
BRANCH   7   9
ATOM      9  C   UNL     1      -7.570   5.721 134.714  0.00  0.00    +0.000 C 
ATOM     10  O   UNL     1      -6.363   5.947 134.830  0.00  0.00    +0.000 OA
BRANCH   9  11
ATOM     11  O   UNL     1      -8.437   6.201 135.628  0.00  0.00    +0.000 OA
ATOM     12  H   UNL     1      -9.329   6.437 135.315  0.00  0.00    +0.000 HD
ENDBRANCH   9  11
ENDBRANCH   7   9
ENDBRANCH   4   7
BRANCH   1  13
ATOM     13  C   UNL     1     -10.916   7.924 129.362  0.00  0.00    +0.000 C 
BRANCH  13  15
ATOM     14  C   UNL     1     -12.879   9.511 129.455  0.00  0.00    +0.000 C 
ATOM     15  C   UNL     1     -12.434   8.064 129.605  0.00  0.00    +0.000 C 
ATOM     16  C   UNL     1     -13.264   7.192 128.642  0.00  0.00    +0.000 C 
ENDBRANCH  13  15
ENDBRANCH   1  13
TORSDOF 5
ENDMDL
MODEL 5
REMARK VINA RESULT:      -5.7      9.552     10.451
REMARK  Name = Dexibuprofen
REMARK  8 active torsions:
REMARK  status: ('A' for Active; 'I' for Inactive)
REMARK    1  A    between atoms: C_1  and  C_2
REMARK    2  A    between atoms: C_2  and  C_3
REMARK    3  A    between atoms: C_2  and  C_4
REMARK    4  A    between atoms: C_4  and  C_5
REMARK    5  A    between atoms: C_8  and  C_11
REMARK    6  A    between atoms: C_11  and  C_12
REMARK    7  A    between atoms: C_11  and  C_13
REMARK    8  A    between atoms: C_13  and  O_14
REMARK                            x       y       z     vdW  Elec       q    Type
REMARK                         _______ _______ _______ _____ _____    ______ ____
ROOT
ATOM      1  C   UNL     1      -7.663  -3.014 129.330  0.00  0.00    +0.000 A 
ATOM      2  C   UNL     1      -8.764  -3.739 128.880  0.00  0.00    +0.000 A 
ATOM      3  C   UNL     1      -9.049  -3.791 127.517  0.00  0.00    +0.000 A 
ATOM      4  C   UNL     1      -8.280  -3.068 126.590  0.00  0.00    +0.000 A 
ATOM      5  C   UNL     1      -7.163  -2.369 127.041  0.00  0.00    +0.000 A 
ATOM      6  C   UNL     1      -6.918  -2.279 128.396  0.00  0.00    +0.000 A 
ENDROOT
BRANCH   4   7
ATOM      7  C   UNL     1      -8.717  -2.848 125.154  0.00  0.00    +0.000 C 
ATOM      8  C   UNL     1      -7.714  -3.602 124.263  0.00  0.00    +0.000 C 
BRANCH   7   9
ATOM      9  C   UNL     1      -8.882  -1.374 124.797  0.00  0.00    +0.000 C 
ATOM     10  O   UNL     1      -9.715  -0.646 125.341  0.00  0.00    +0.000 OA
BRANCH   9  11
ATOM     11  O   UNL     1      -8.037  -0.864 123.877  0.00  0.00    +0.000 OA
ATOM     12  H   UNL     1      -7.493  -1.495 123.374  0.00  0.00    +0.000 HD
ENDBRANCH   9  11
ENDBRANCH   7   9
ENDBRANCH   4   7
BRANCH   1  13
ATOM     13  C   UNL     1      -7.240  -3.112 130.776  0.00  0.00    +0.000 C 
BRANCH  13  15
ATOM     14  C   UNL     1      -5.249  -3.176 132.330  0.00  0.00    +0.000 C 
ATOM     15  C   UNL     1      -5.773  -3.558 130.954  0.00  0.00    +0.000 C 
ATOM     16  C   UNL     1      -5.596  -5.078 130.766  0.00  0.00    +0.000 C 
ENDBRANCH  13  15
ENDBRANCH   1  13
TORSDOF 5
ENDMDL
MODEL 6
REMARK VINA RESULT:      -5.7      9.827     11.775
REMARK  Name = Dexibuprofen
REMARK  8 active torsions:
REMARK  status: ('A' for Active; 'I' for Inactive)
REMARK    1  A    between atoms: C_1  and  C_2
REMARK    2  A    between atoms: C_2  and  C_3
REMARK    3  A    between atoms: C_2  and  C_4
REMARK    4  A    between atoms: C_4  and  C_5
REMARK    5  A    between atoms: C_8  and  C_11
REMARK    6  A    between atoms: C_11  and  C_12
REMARK    7  A    between atoms: C_11  and  C_13
REMARK    8  A    between atoms: C_13  and  O_14
REMARK                            x       y       z     vdW  Elec       q    Type
REMARK                         _______ _______ _______ _____ _____    ______ ____
ROOT
ATOM      1  C   UNL     1      -8.595  -2.435 126.911  0.00  0.00    +0.000 A 
ATOM      2  C   UNL     1      -7.750  -1.516 127.529  0.00  0.00    +0.000 A 
ATOM      3  C   UNL     1      -7.200  -1.810 128.775  0.00  0.00    +0.000 A 
ATOM      4  C   UNL     1      -7.538  -2.993 129.452  0.00  0.00    +0.000 A 
ATOM      5  C   UNL     1      -8.359  -3.922 128.818  0.00  0.00    +0.000 A 
ATOM      6  C   UNL     1      -8.941  -3.601 127.609  0.00  0.00    +0.000 A 
ENDROOT
BRANCH   4   7
ATOM      7  C   UNL     1      -7.213  -3.222 130.917  0.00  0.00    +0.000 C 
ATOM      8  C   UNL     1      -7.486  -1.896 131.647  0.00  0.00    +0.000 C 
BRANCH   7   9
ATOM      9  C   UNL     1      -5.810  -3.779 131.139  0.00  0.00    +0.000 C 
ATOM     10  O   UNL     1      -4.961  -3.195 131.815  0.00  0.00    +0.000 OA
BRANCH   9  11
ATOM     11  O   UNL     1      -5.533  -4.983 130.599  0.00  0.00    +0.000 OA
ATOM     12  H   UNL     1      -4.843  -5.517 131.031  0.00  0.00    +0.000 HD
ENDBRANCH   9  11
ENDBRANCH   7   9
ENDBRANCH   4   7
BRANCH   1  13
ATOM     13  C   UNL     1      -9.036  -2.209 125.484  0.00  0.00    +0.000 C 
BRANCH  13  15
ATOM     14  C   UNL     1      -9.523  -3.264 123.242  0.00  0.00    +0.000 C 
ATOM     15  C   UNL     1      -8.806  -3.433 124.573  0.00  0.00    +0.000 C 
ATOM     16  C   UNL     1      -7.310  -3.685 124.297  0.00  0.00    +0.000 C 
ENDBRANCH  13  15
ENDBRANCH   1  13
TORSDOF 5
ENDMDL
MODEL 7
REMARK VINA RESULT:      -5.6      8.112     10.359
REMARK  Name = Dexibuprofen
REMARK  8 active torsions:
REMARK  status: ('A' for Active; 'I' for Inactive)
REMARK    1  A    between atoms: C_1  and  C_2
REMARK    2  A    between atoms: C_2  and  C_3
REMARK    3  A    between atoms: C_2  and  C_4
REMARK    4  A    between atoms: C_4  and  C_5
REMARK    5  A    between atoms: C_8  and  C_11
REMARK    6  A    between atoms: C_11  and  C_12
REMARK    7  A    between atoms: C_11  and  C_13
REMARK    8  A    between atoms: C_13  and  O_14
REMARK                            x       y       z     vdW  Elec       q    Type
REMARK                         _______ _______ _______ _____ _____    ______ ____
ROOT
ATOM      1  C   UNL     1      -7.830  -2.754 128.807  0.00  0.00    +0.000 A 
ATOM      2  C   UNL     1      -8.796  -3.606 128.279  0.00  0.00    +0.000 A 
ATOM      3  C   UNL     1      -8.792  -3.899 126.917  0.00  0.00    +0.000 A 
ATOM      4  C   UNL     1      -7.865  -3.295 126.052  0.00  0.00    +0.000 A 
ATOM      5  C   UNL     1      -6.882  -2.467 126.588  0.00  0.00    +0.000 A 
ATOM      6  C   UNL     1      -6.926  -2.140 127.928  0.00  0.00    +0.000 A 
ENDROOT
BRANCH   4   7
ATOM      7  C   UNL     1      -8.000  -3.341 124.541  0.00  0.00    +0.000 C 
ATOM      8  C   UNL     1      -6.705  -2.747 123.959  0.00  0.00    +0.000 C 
BRANCH   7   9
ATOM      9  C   UNL     1      -9.275  -2.674 124.033  0.00  0.00    +0.000 C 
ATOM     10  O   UNL     1      -9.492  -1.467 124.158  0.00  0.00    +0.000 OA
BRANCH   9  11
ATOM     11  O   UNL     1     -10.163  -3.456 123.384  0.00  0.00    +0.000 OA
ATOM     12  H   UNL     1     -10.024  -4.418 123.427  0.00  0.00    +0.000 HD
ENDBRANCH   9  11
ENDBRANCH   7   9
ENDBRANCH   4   7
BRANCH   1  13
ATOM     13  C   UNL     1      -7.712  -2.586 130.304  0.00  0.00    +0.000 C 
BRANCH  13  15
ATOM     14  C   UNL     1      -8.430  -0.245 130.923  0.00  0.00    +0.000 C 
ATOM     15  C   UNL     1      -7.245  -1.177 130.725  0.00  0.00    +0.000 C 
ATOM     16  C   UNL     1      -6.416  -1.200 132.026  0.00  0.00    +0.000 C 
ENDBRANCH  13  15
ENDBRANCH   1  13
TORSDOF 5
ENDMDL
MODEL 8
REMARK VINA RESULT:      -5.6      3.336      5.958
REMARK  Name = Dexibuprofen
REMARK  8 active torsions:
REMARK  status: ('A' for Active; 'I' for Inactive)
REMARK    1  A    between atoms: C_1  and  C_2
REMARK    2  A    between atoms: C_2  and  C_3
REMARK    3  A    between atoms: C_2  and  C_4
REMARK    4  A    between atoms: C_4  and  C_5
REMARK    5  A    between atoms: C_8  and  C_11
REMARK    6  A    between atoms: C_11  and  C_12
REMARK    7  A    between atoms: C_11  and  C_13
REMARK    8  A    between atoms: C_13  and  O_14
REMARK                            x       y       z     vdW  Elec       q    Type
REMARK                         _______ _______ _______ _____ _____    ______ ____
ROOT
ATOM      1  C   UNL     1     -11.165   6.693 130.484  0.00  0.00    +0.000 A 
ATOM      2  C   UNL     1      -9.822   6.765 130.846  0.00  0.00    +0.000 A 
ATOM      3  C   UNL     1      -9.061   5.600 130.920  0.00  0.00    +0.000 A 
ATOM      4  C   UNL     1      -9.645   4.342 130.699  0.00  0.00    +0.000 A 
ATOM      5  C   UNL     1     -10.980   4.277 130.308  0.00  0.00    +0.000 A 
ATOM      6  C   UNL     1     -11.740   5.429 130.289  0.00  0.00    +0.000 A 
ENDROOT
BRANCH   4   7
ATOM      7  C   UNL     1      -8.950   3.040 131.055  0.00  0.00    +0.000 C 
ATOM      8  C   UNL     1      -8.787   2.249 129.745  0.00  0.00    +0.000 C 
BRANCH   7   9
ATOM      9  C   UNL     1      -9.657   2.268 132.165  0.00  0.00    +0.000 C 
ATOM     10  O   UNL     1     -10.057   1.111 132.022  0.00  0.00    +0.000 OA
BRANCH   9  11
ATOM     11  O   UNL     1      -9.795   2.888 133.355  0.00  0.00    +0.000 OA
ATOM     12  H   UNL     1     -10.692   2.941 133.729  0.00  0.00    +0.000 HD
ENDBRANCH   9  11
ENDBRANCH   7   9
ENDBRANCH   4   7
BRANCH   1  13
ATOM     13  C   UNL     1     -11.940   7.962 130.215  0.00  0.00    +0.000 C 
BRANCH  13  15
ATOM     14  C   UNL     1     -13.263   9.317 128.544  0.00  0.00    +0.000 C 
ATOM     15  C   UNL     1     -12.303   8.151 128.727  0.00  0.00    +0.000 C 
ATOM     16  C   UNL     1     -11.060   8.397 127.848  0.00  0.00    +0.000 C 
ENDBRANCH  13  15
ENDBRANCH   1  13
TORSDOF 5
ENDMDL
MODEL 9
REMARK VINA RESULT:      -5.5      1.501      2.265
REMARK  Name = Dexibuprofen
REMARK  8 active torsions:
REMARK  status: ('A' for Active; 'I' for Inactive)
REMARK    1  A    between atoms: C_1  and  C_2
REMARK    2  A    between atoms: C_2  and  C_3
REMARK    3  A    between atoms: C_2  and  C_4
REMARK    4  A    between atoms: C_4  and  C_5
REMARK    5  A    between atoms: C_8  and  C_11
REMARK    6  A    between atoms: C_11  and  C_12
REMARK    7  A    between atoms: C_11  and  C_13
REMARK    8  A    between atoms: C_13  and  O_14
REMARK                            x       y       z     vdW  Elec       q    Type
REMARK                         _______ _______ _______ _____ _____    ______ ____
ROOT
ATOM      1  C   UNL     1      -9.720   4.114 130.265  0.00  0.00    +0.000 A 
ATOM      2  C   UNL     1      -8.881   5.197 130.013  0.00  0.00    +0.000 A 
ATOM      3  C   UNL     1      -9.417   6.479 129.914  0.00  0.00    +0.000 A 
ATOM      4  C   UNL     1     -10.803   6.691 129.999  0.00  0.00    +0.000 A 
ATOM      5  C   UNL     1     -11.634   5.610 130.281  0.00  0.00    +0.000 A 
ATOM      6  C   UNL     1     -11.103   4.337 130.324  0.00  0.00    +0.000 A 
ENDROOT
BRANCH   4   7
ATOM      7  C   UNL     1     -11.459   8.002 129.605  0.00  0.00    +0.000 C 
ATOM      8  C   UNL     1     -12.759   8.113 130.422  0.00  0.00    +0.000 C 
BRANCH   7   9
ATOM      9  C   UNL     1     -11.656   8.143 128.098  0.00  0.00    +0.000 C 
ATOM     10  O   UNL     1     -10.763   8.533 127.343  0.00  0.00    +0.000 OA
BRANCH   9  11
ATOM     11  O   UNL     1     -12.853   7.777 127.596  0.00  0.00    +0.000 OA
ATOM     12  H   UNL     1     -13.557   7.562 128.234  0.00  0.00    +0.000 HD
ENDBRANCH   9  11
ENDBRANCH   7   9
ENDBRANCH   4   7
BRANCH   1  13
ATOM     13  C   UNL     1      -9.126   2.757 130.564  0.00  0.00    +0.000 C 
BRANCH  13  15
ATOM     14  C   UNL     1      -9.352   0.621 131.892  0.00  0.00    +0.000 C 
ATOM     15  C   UNL     1      -9.722   2.095 131.824  0.00  0.00    +0.000 C 
ATOM     16  C   UNL     1      -9.253   2.779 133.123  0.00  0.00    +0.000 C 
ENDBRANCH  13  15
ENDBRANCH   1  13
TORSDOF 5
ENDMDL
