MODEL 1
REMARK VINA RESULT:      -7.3      0.000      0.000
REMARK  Name = Dexketoprofen
REMARK  6 active torsions:
REMARK  status: ('A' for Active; 'I' for Inactive)
REMARK    1  A    between atoms: C_2  and  C_3
REMARK    2  A    between atoms: C_2  and  C_4
REMARK    3  A    between atoms: C_2  and  C_7
REMARK    4  A    between atoms: C_4  and  O_5
REMARK    5  A    between atoms: C_9  and  C_13
REMARK    6  A    between atoms: C_13  and  C_15
REMARK                            x       y       z     vdW  Elec       q    Type
REMARK                         _______ _______ _______ _____ _____    ______ ____
ROOT
ATOM      1  C   UNL     1     -11.687   7.815 129.331  0.00  0.00    +0.000 A 
ATOM      2  C   UNL     1     -10.384   7.388 129.625  0.00  0.00    +0.000 A 
ATOM      3  C   UNL     1     -10.124   6.683 130.802  0.00  0.00    +0.000 A 
ATOM      4  C   UNL     1     -11.121   6.572 131.772  0.00  0.00    +0.000 A 
ATOM      5  C   UNL     1     -12.411   7.014 131.507  0.00  0.00    +0.000 A 
ATOM      6  C   UNL     1     -12.699   7.603 130.283  0.00  0.00    +0.000 A 
ENDROOT
BRANCH   1   7
ATOM      7  C   UNL     1     -12.060   8.449 128.000  0.00  0.00    +0.000 C 
ATOM      8  C   UNL     1     -13.545   8.814 127.906  0.00  0.00    +0.000 C 
BRANCH   7   9
ATOM      9  C   UNL     1     -11.650   7.651 126.765  0.00  0.00    +0.000 C 
ATOM     10  O   UNL     1     -10.749   8.022 126.013  0.00  0.00    +0.000 OA
BRANCH   9  11
ATOM     11  O   UNL     1     -12.305   6.495 126.526  0.00  0.00    +0.000 OA
ATOM     12  H   UNL     1     -11.920   5.920 125.835  0.00  0.00    +0.000 HD
ENDBRANCH   9  11
ENDBRANCH   7   9
ENDBRANCH   1   7
BRANCH   3  13
ATOM     13  C   UNL     1      -8.820   5.987 130.932  0.00  0.00    +0.000 C 
ATOM     14  O   UNL     1      -8.025   5.962 129.996  0.00  0.00    +0.000 OA
BRANCH  13  15
ATOM     15  C   UNL     1      -8.475   5.251 132.163  0.00  0.00    +0.000 A 
ATOM     16  C   UNL     1      -8.862   3.914 132.252  0.00  0.00    +0.000 A 
ATOM     17  C   UNL     1      -8.663   3.227 133.446  0.00  0.00    +0.000 A 
ATOM     18  C   UNL     1      -8.012   3.849 134.514  0.00  0.00    +0.000 A 
ATOM     19  C   UNL     1      -7.589   5.175 134.407  0.00  0.00    +0.000 A 
ATOM     20  C   UNL     1      -7.843   5.888 133.239  0.00  0.00    +0.000 A 
ENDBRANCH  13  15
ENDBRANCH   3  13
TORSDOF 5
ENDMDL
MODEL 2
REMARK VINA RESULT:      -7.3      0.796      1.240
REMARK  Name = Dexketoprofen
REMARK  6 active torsions:
REMARK  status: ('A' for Active; 'I' for Inactive)
REMARK    1  A    between atoms: C_2  and  C_3
REMARK    2  A    between atoms: C_2  and  C_4
REMARK    3  A    between atoms: C_2  and  C_7
REMARK    4  A    between atoms: C_4  and  O_5
REMARK    5  A    between atoms: C_9  and  C_13
REMARK    6  A    between atoms: C_13  and  C_15
REMARK                            x       y       z     vdW  Elec       q    Type
REMARK                         _______ _______ _______ _____ _____    ______ ____
ROOT
ATOM      1  C   UNL     1     -11.685   7.782 129.324  0.00  0.00    +0.000 A 
ATOM      2  C   UNL     1     -10.400   7.284 129.582  0.00  0.00    +0.000 A 
ATOM      3  C   UNL     1     -10.145   6.574 130.757  0.00  0.00    +0.000 A 
ATOM      4  C   UNL     1     -11.117   6.526 131.757  0.00  0.00    +0.000 A 
ATOM      5  C   UNL     1     -12.387   7.039 131.527  0.00  0.00    +0.000 A 
ATOM      6  C   UNL     1     -12.678   7.635 130.307  0.00  0.00    +0.000 A 
ENDROOT
BRANCH   1   7
ATOM      7  C   UNL     1     -12.062   8.427 127.999  0.00  0.00    +0.000 C 
ATOM      8  C   UNL     1     -13.547   8.794 127.912  0.00  0.00    +0.000 C 
BRANCH   7   9
ATOM      9  C   UNL     1     -11.657   7.638 126.756  0.00  0.00    +0.000 C 
ATOM     10  O   UNL     1     -10.785   8.034 125.982  0.00  0.00    +0.000 OA
BRANCH   9  11
ATOM     11  O   UNL     1     -12.281   6.462 126.535  0.00  0.00    +0.000 OA
ATOM     12  H   UNL     1     -11.989   5.964 125.746  0.00  0.00    +0.000 HD
ENDBRANCH   9  11
ENDBRANCH   7   9
ENDBRANCH   1   7
BRANCH   3  13
ATOM     13  C   UNL     1      -8.878   5.806 130.854  0.00  0.00    +0.000 C 
ATOM     14  O   UNL     1      -7.836   6.252 130.382  0.00  0.00    +0.000 OA
BRANCH  13  15
ATOM     15  C   UNL     1      -8.854   4.461 131.458  0.00  0.00    +0.000 A 
ATOM     16  C   UNL     1      -9.357   3.400 130.707  0.00  0.00    +0.000 A 
ATOM     17  C   UNL     1      -9.464   2.142 131.292  0.00  0.00    +0.000 A 
ATOM     18  C   UNL     1      -8.997   1.931 132.592  0.00  0.00    +0.000 A 
ATOM     19  C   UNL     1      -8.457   2.986 133.328  0.00  0.00    +0.000 A 
ATOM     20  C   UNL     1      -8.406   4.261 132.771  0.00  0.00    +0.000 A 
ENDBRANCH  13  15
ENDBRANCH   3  13
TORSDOF 5
ENDMDL
MODEL 3
REMARK VINA RESULT:      -7.2      2.171      6.873
REMARK  Name = Dexketoprofen
REMARK  6 active torsions:
REMARK  status: ('A' for Active; 'I' for Inactive)
REMARK    1  A    between atoms: C_2  and  C_3
REMARK    2  A    between atoms: C_2  and  C_4
REMARK    3  A    between atoms: C_2  and  C_7
REMARK    4  A    between atoms: C_4  and  O_5
REMARK    5  A    between atoms: C_9  and  C_13
REMARK    6  A    between atoms: C_13  and  C_15
REMARK                            x       y       z     vdW  Elec       q    Type
REMARK                         _______ _______ _______ _____ _____    ______ ____
ROOT
ATOM      1  C   UNL     1      -8.688   5.440 132.889  0.00  0.00    +0.000 A 
ATOM      2  C   UNL     1      -9.933   5.488 132.246  0.00  0.00    +0.000 A 
ATOM      3  C   UNL     1     -10.058   6.108 131.001  0.00  0.00    +0.000 A 
ATOM      4  C   UNL     1      -8.988   6.843 130.488  0.00  0.00    +0.000 A 
ATOM      5  C   UNL     1      -7.755   6.826 131.127  0.00  0.00    +0.000 A 
ATOM      6  C   UNL     1      -7.597   6.105 132.303  0.00  0.00    +0.000 A 
ENDROOT
BRANCH   1   7
ATOM      7  C   UNL     1      -8.457   4.649 134.167  0.00  0.00    +0.000 C 
ATOM      8  C   UNL     1      -7.660   5.428 135.218  0.00  0.00    +0.000 C 
BRANCH   7   9
ATOM      9  C   UNL     1      -7.833   3.269 133.972  0.00  0.00    +0.000 C 
ATOM     10  O   UNL     1      -8.431   2.351 133.411  0.00  0.00    +0.000 OA
BRANCH   9  11
ATOM     11  O   UNL     1      -6.574   3.086 134.424  0.00  0.00    +0.000 OA
ATOM     12  H   UNL     1      -5.866   3.145 133.753  0.00  0.00    +0.000 HD
ENDBRANCH   9  11
ENDBRANCH   7   9
ENDBRANCH   1   7
BRANCH   3  13
ATOM     13  C   UNL     1     -11.298   5.875 130.220  0.00  0.00    +0.000 C 
ATOM     14  O   UNL     1     -11.677   4.734 129.969  0.00  0.00    +0.000 OA
BRANCH  13  15
ATOM     15  C   UNL     1     -12.066   7.006 129.666  0.00  0.00    +0.000 A 
ATOM     16  C   UNL     1     -12.492   6.918 128.341  0.00  0.00    +0.000 A 
ATOM     17  C   UNL     1     -13.109   8.016 127.751  0.00  0.00    +0.000 A 
ATOM     18  C   UNL     1     -13.369   9.164 128.503  0.00  0.00    +0.000 A 
ATOM     19  C   UNL     1     -12.979   9.234 129.841  0.00  0.00    +0.000 A 
ATOM     20  C   UNL     1     -12.303   8.163 130.420  0.00  0.00    +0.000 A 
ENDBRANCH  13  15
ENDBRANCH   3  13
TORSDOF 5
ENDMDL
MODEL 4
REMARK VINA RESULT:      -7.1      9.185     11.368
REMARK  Name = Dexketoprofen
REMARK  6 active torsions:
REMARK  status: ('A' for Active; 'I' for Inactive)
REMARK    1  A    between atoms: C_2  and  C_3
REMARK    2  A    between atoms: C_2  and  C_4
REMARK    3  A    between atoms: C_2  and  C_7
REMARK    4  A    between atoms: C_4  and  O_5
REMARK    5  A    between atoms: C_9  and  C_13
REMARK    6  A    between atoms: C_13  and  C_15
REMARK                            x       y       z     vdW  Elec       q    Type
REMARK                         _______ _______ _______ _____ _____    ______ ____
ROOT
ATOM      1  C   UNL     1      -8.162  -0.122 123.647  0.00  0.00    +0.000 A 
ATOM      2  C   UNL     1      -7.190   0.805 123.244  0.00  0.00    +0.000 A 
ATOM      3  C   UNL     1      -7.534   2.144 123.051  0.00  0.00    +0.000 A 
ATOM      4  C   UNL     1      -8.878   2.520 123.073  0.00  0.00    +0.000 A 
ATOM      5  C   UNL     1      -9.856   1.607 123.446  0.00  0.00    +0.000 A 
ATOM      6  C   UNL     1      -9.497   0.303 123.760  0.00  0.00    +0.000 A 
ENDROOT
BRANCH   1   7
ATOM      7  C   UNL     1      -7.819  -1.556 124.021  0.00  0.00    +0.000 C 
ATOM      8  C   UNL     1      -6.702  -2.149 123.158  0.00  0.00    +0.000 C 
BRANCH   7   9
ATOM      9  C   UNL     1      -9.005  -2.517 124.054  0.00  0.00    +0.000 C 
ATOM     10  O   UNL     1      -9.380  -3.132 123.055  0.00  0.00    +0.000 OA
BRANCH   9  11
ATOM     11  O   UNL     1      -9.631  -2.692 125.237  0.00  0.00    +0.000 OA
ATOM     12  H   UNL     1      -9.201  -2.282 126.013  0.00  0.00    +0.000 HD
ENDBRANCH   9  11
ENDBRANCH   7   9
ENDBRANCH   1   7
BRANCH   3  13
ATOM     13  C   UNL     1      -6.441   3.141 122.928  0.00  0.00    +0.000 C 
ATOM     14  O   UNL     1      -5.774   3.465 123.907  0.00  0.00    +0.000 OA
BRANCH  13  15
ATOM     15  C   UNL     1      -6.175   3.818 121.645  0.00  0.00    +0.000 A 
ATOM     16  C   UNL     1      -4.975   4.515 121.513  0.00  0.00    +0.000 A 
ATOM     17  C   UNL     1      -4.748   5.267 120.364  0.00  0.00    +0.000 A 
ATOM     18  C   UNL     1      -5.681   5.258 119.323  0.00  0.00    +0.000 A 
ATOM     19  C   UNL     1      -6.863   4.526 119.442  0.00  0.00    +0.000 A 
ATOM     20  C   UNL     1      -7.125   3.824 120.615  0.00  0.00    +0.000 A 
ENDBRANCH  13  15
ENDBRANCH   3  13
TORSDOF 5
ENDMDL
MODEL 5
REMARK VINA RESULT:      -7.0      8.682     10.795
REMARK  Name = Dexketoprofen
REMARK  6 active torsions:
REMARK  status: ('A' for Active; 'I' for Inactive)
REMARK    1  A    between atoms: C_2  and  C_3
REMARK    2  A    between atoms: C_2  and  C_4
REMARK    3  A    between atoms: C_2  and  C_7
REMARK    4  A    between atoms: C_4  and  O_5
REMARK    5  A    between atoms: C_9  and  C_13
REMARK    6  A    between atoms: C_13  and  C_15
REMARK                            x       y       z     vdW  Elec       q    Type
REMARK                         _______ _______ _______ _____ _____    ______ ____
ROOT
ATOM      1  C   UNL     1      -6.982  -0.549 124.575  0.00  0.00    +0.000 A 
ATOM      2  C   UNL     1      -7.521   0.695 124.218  0.00  0.00    +0.000 A 
ATOM      3  C   UNL     1      -6.924   1.875 124.666  0.00  0.00    +0.000 A 
ATOM      4  C   UNL     1      -5.908   1.813 125.620  0.00  0.00    +0.000 A 
ATOM      5  C   UNL     1      -5.379   0.587 126.004  0.00  0.00    +0.000 A 
ATOM      6  C   UNL     1      -5.892  -0.584 125.462  0.00  0.00    +0.000 A 
ENDROOT
BRANCH   1   7
ATOM      7  C   UNL     1      -7.493  -1.860 123.997  0.00  0.00    +0.000 C 
ATOM      8  C   UNL     1      -7.187  -2.015 122.504  0.00  0.00    +0.000 C 
BRANCH   7   9
ATOM      9  C   UNL     1      -8.971  -2.146 124.248  0.00  0.00    +0.000 C 
ATOM     10  O   UNL     1      -9.702  -2.631 123.384  0.00  0.00    +0.000 OA
BRANCH   9  11
ATOM     11  O   UNL     1      -9.459  -1.866 125.475  0.00  0.00    +0.000 OA
ATOM     12  H   UNL     1      -8.806  -1.851 126.202  0.00  0.00    +0.000 HD
ENDBRANCH   9  11
ENDBRANCH   7   9
ENDBRANCH   1   7
BRANCH   3  13
ATOM     13  C   UNL     1      -7.326   3.153 124.029  0.00  0.00    +0.000 C 
ATOM     14  O   UNL     1      -8.302   3.779 124.437  0.00  0.00    +0.000 OA
BRANCH  13  15
ATOM     15  C   UNL     1      -6.609   3.669 122.847  0.00  0.00    +0.000 A 
ATOM     16  C   UNL     1      -7.181   3.457 121.594  0.00  0.00    +0.000 A 
ATOM     17  C   UNL     1      -6.472   3.819 120.452  0.00  0.00    +0.000 A 
ATOM     18  C   UNL     1      -5.235   4.459 120.568  0.00  0.00    +0.000 A 
ATOM     19  C   UNL     1      -4.684   4.707 121.826  0.00  0.00    +0.000 A 
ATOM     20  C   UNL     1      -5.359   4.289 122.969  0.00  0.00    +0.000 A 
ENDBRANCH  13  15
ENDBRANCH   3  13
TORSDOF 5
ENDMDL
MODEL 6
REMARK VINA RESULT:      -6.8      8.310      9.419
REMARK  Name = Dexketoprofen
REMARK  6 active torsions:
REMARK  status: ('A' for Active; 'I' for Inactive)
REMARK    1  A    between atoms: C_2  and  C_3
REMARK    2  A    between atoms: C_2  and  C_4
REMARK    3  A    between atoms: C_2  and  C_7
REMARK    4  A    between atoms: C_4  and  O_5
REMARK    5  A    between atoms: C_9  and  C_13
REMARK    6  A    between atoms: C_13  and  C_15
REMARK                            x       y       z     vdW  Elec       q    Type
REMARK                         _______ _______ _______ _____ _____    ______ ____
ROOT
ATOM      1  C   UNL     1      -7.521   1.146 123.889  0.00  0.00    +0.000 A 
ATOM      2  C   UNL     1      -7.184  -0.192 124.138  0.00  0.00    +0.000 A 
ATOM      3  C   UNL     1      -6.304  -0.515 125.172  0.00  0.00    +0.000 A 
ATOM      4  C   UNL     1      -5.614   0.503 125.832  0.00  0.00    +0.000 A 
ATOM      5  C   UNL     1      -5.918   1.835 125.579  0.00  0.00    +0.000 A 
ATOM      6  C   UNL     1      -6.886   2.153 124.636  0.00  0.00    +0.000 A 
ENDROOT
BRANCH   1   7
ATOM      7  C   UNL     1      -8.587   1.548 122.882  0.00  0.00    +0.000 C 
ATOM      8  C   UNL     1      -8.470   3.009 122.437  0.00  0.00    +0.000 C 
BRANCH   7   9
ATOM      9  C   UNL     1     -10.024   1.257 123.308  0.00  0.00    +0.000 C 
ATOM     10  O   UNL     1     -10.761   0.509 122.665  0.00  0.00    +0.000 OA
BRANCH   9  11
ATOM     11  O   UNL     1     -10.467   1.840 124.442  0.00  0.00    +0.000 OA
ATOM     12  H   UNL     1      -9.889   2.531 124.822  0.00  0.00    +0.000 HD
ENDBRANCH   9  11
ENDBRANCH   7   9
ENDBRANCH   1   7
BRANCH   3  13
ATOM     13  C   UNL     1      -6.211  -1.933 125.601  0.00  0.00    +0.000 C 
ATOM     14  O   UNL     1      -5.427  -2.704 125.055  0.00  0.00    +0.000 OA
BRANCH  13  15
ATOM     15  C   UNL     1      -7.106  -2.467 126.646  0.00  0.00    +0.000 A 
ATOM     16  C   UNL     1      -6.714  -2.323 127.976  0.00  0.00    +0.000 A 
ATOM     17  C   UNL     1      -7.471  -2.924 128.977  0.00  0.00    +0.000 A 
ATOM     18  C   UNL     1      -8.652  -3.597 128.655  0.00  0.00    +0.000 A 
ATOM     19  C   UNL     1      -9.064  -3.705 127.326  0.00  0.00    +0.000 A 
ATOM     20  C   UNL     1      -8.277  -3.161 126.314  0.00  0.00    +0.000 A 
ENDBRANCH  13  15
ENDBRANCH   3  13
TORSDOF 5
ENDMDL
MODEL 7
REMARK VINA RESULT:      -6.8      2.343      6.067
REMARK  Name = Dexketoprofen
REMARK  6 active torsions:
REMARK  status: ('A' for Active; 'I' for Inactive)
REMARK    1  A    between atoms: C_2  and  C_3
REMARK    2  A    between atoms: C_2  and  C_4
REMARK    3  A    between atoms: C_2  and  C_7
REMARK    4  A    between atoms: C_4  and  O_5
REMARK    5  A    between atoms: C_9  and  C_13
REMARK    6  A    between atoms: C_13  and  C_15
REMARK                            x       y       z     vdW  Elec       q    Type
REMARK                         _______ _______ _______ _____ _____    ______ ____
ROOT
ATOM      1  C   UNL     1      -9.672   3.743 131.035  0.00  0.00    +0.000 A 
ATOM      2  C   UNL     1     -10.792   4.521 130.710  0.00  0.00    +0.000 A 
ATOM      3  C   UNL     1     -11.026   5.727 131.374  0.00  0.00    +0.000 A 
ATOM      4  C   UNL     1     -10.253   6.061 132.487  0.00  0.00    +0.000 A 
ATOM      5  C   UNL     1      -9.155   5.287 132.837  0.00  0.00    +0.000 A 
ATOM      6  C   UNL     1      -8.848   4.152 132.097  0.00  0.00    +0.000 A 
ENDROOT
BRANCH   1   7
ATOM      7  C   UNL     1      -9.280   2.502 130.246  0.00  0.00    +0.000 C 
ATOM      8  C   UNL     1      -8.683   1.398 131.124  0.00  0.00    +0.000 C 
BRANCH   7   9
ATOM      9  C   UNL     1      -8.365   2.757 129.051  0.00  0.00    +0.000 C 
ATOM     10  O   UNL     1      -8.753   2.634 127.889  0.00  0.00    +0.000 OA
BRANCH   9  11
ATOM     11  O   UNL     1      -7.098   3.145 129.309  0.00  0.00    +0.000 OA
ATOM     12  H   UNL     1      -6.845   3.179 130.252  0.00  0.00    +0.000 HD
ENDBRANCH   9  11
ENDBRANCH   7   9
ENDBRANCH   1   7
BRANCH   3  13
ATOM     13  C   UNL     1     -12.028   6.661 130.804  0.00  0.00    +0.000 C 
ATOM     14  O   UNL     1     -13.000   7.020 131.465  0.00  0.00    +0.000 OA
BRANCH  13  15
ATOM     15  C   UNL     1     -11.922   7.126 129.408  0.00  0.00    +0.000 A 
ATOM     16  C   UNL     1     -12.934   6.763 128.521  0.00  0.00    +0.000 A 
ATOM     17  C   UNL     1     -12.802   7.078 127.172  0.00  0.00    +0.000 A 
ATOM     18  C   UNL     1     -11.704   7.820 126.729  0.00  0.00    +0.000 A 
ATOM     19  C   UNL     1     -10.712   8.217 127.627  0.00  0.00    +0.000 A 
ATOM     20  C   UNL     1     -10.806   7.849 128.966  0.00  0.00    +0.000 A 
ENDBRANCH  13  15
ENDBRANCH   3  13
TORSDOF 5
ENDMDL
MODEL 8
REMARK VINA RESULT:      -6.7      8.497      9.673
REMARK  Name = Dexketoprofen
REMARK  6 active torsions:
REMARK  status: ('A' for Active; 'I' for Inactive)
REMARK    1  A    between atoms: C_2  and  C_3
REMARK    2  A    between atoms: C_2  and  C_4
REMARK    3  A    between atoms: C_2  and  C_7
REMARK    4  A    between atoms: C_4  and  O_5
REMARK    5  A    between atoms: C_9  and  C_13
REMARK    6  A    between atoms: C_13  and  C_15
REMARK                            x       y       z     vdW  Elec       q    Type
REMARK                         _______ _______ _______ _____ _____    ______ ____
ROOT
ATOM      1  C   UNL     1      -7.491   0.373 123.903  0.00  0.00    +0.000 A 
ATOM      2  C   UNL     1      -8.278  -0.369 124.795  0.00  0.00    +0.000 A 
ATOM      3  C   UNL     1      -8.287  -1.763 124.732  0.00  0.00    +0.000 A 
ATOM      4  C   UNL     1      -7.665  -2.408 123.662  0.00  0.00    +0.000 A 
ATOM      5  C   UNL     1      -6.903  -1.684 122.754  0.00  0.00    +0.000 A 
ATOM      6  C   UNL     1      -6.791  -0.307 122.892  0.00  0.00    +0.000 A 
ENDROOT
BRANCH   1   7
ATOM      7  C   UNL     1      -7.320   1.880 124.020  0.00  0.00    +0.000 C 
ATOM      8  C   UNL     1      -6.705   2.311 125.355  0.00  0.00    +0.000 C 
BRANCH   7   9
ATOM      9  C   UNL     1      -8.580   2.698 123.750  0.00  0.00    +0.000 C 
ATOM     10  O   UNL     1      -8.963   2.956 122.609  0.00  0.00    +0.000 OA
BRANCH   9  11
ATOM     11  O   UNL     1      -9.287   3.123 124.819  0.00  0.00    +0.000 OA
ATOM     12  H   UNL     1     -10.054   2.573 125.071  0.00  0.00    +0.000 HD
ENDBRANCH   9  11
ENDBRANCH   7   9
ENDBRANCH   1   7
BRANCH   3  13
ATOM     13  C   UNL     1      -8.876  -2.516 125.868  0.00  0.00    +0.000 C 
ATOM     14  O   UNL     1     -10.045  -2.893 125.833  0.00  0.00    +0.000 OA
BRANCH  13  15
ATOM     15  C   UNL     1      -8.095  -2.769 127.094  0.00  0.00    +0.000 A 
ATOM     16  C   UNL     1      -8.715  -3.470 128.128  0.00  0.00    +0.000 A 
ATOM     17  C   UNL     1      -8.052  -3.617 129.342  0.00  0.00    +0.000 A 
ATOM     18  C   UNL     1      -6.749  -3.135 129.493  0.00  0.00    +0.000 A 
ATOM     19  C   UNL     1      -6.116  -2.470 128.443  0.00  0.00    +0.000 A 
ATOM     20  C   UNL     1      -6.798  -2.263 127.247  0.00  0.00    +0.000 A 
ENDBRANCH  13  15
ENDBRANCH   3  13
TORSDOF 5
ENDMDL
MODEL 9
REMARK VINA RESULT:      -6.7      8.912     11.142
REMARK  Name = Dexketoprofen
REMARK  6 active torsions:
REMARK  status: ('A' for Active; 'I' for Inactive)
REMARK    1  A    between atoms: C_2  and  C_3
REMARK    2  A    between atoms: C_2  and  C_4
REMARK    3  A    between atoms: C_2  and  C_7
REMARK    4  A    between atoms: C_4  and  O_5
REMARK    5  A    between atoms: C_9  and  C_13
REMARK    6  A    between atoms: C_13  and  C_15
REMARK                            x       y       z     vdW  Elec       q    Type
REMARK                         _______ _______ _______ _____ _____    ______ ____
ROOT
ATOM      1  C   UNL     1      -7.561  -1.619 128.766  0.00  0.00    +0.000 A 
ATOM      2  C   UNL     1      -7.607  -1.784 127.375  0.00  0.00    +0.000 A 
ATOM      3  C   UNL     1      -8.320  -2.847 126.817  0.00  0.00    +0.000 A 
ATOM      4  C   UNL     1      -8.824  -3.849 127.648  0.00  0.00    +0.000 A 
ATOM      5  C   UNL     1      -8.763  -3.712 129.029  0.00  0.00    +0.000 A 
ATOM      6  C   UNL     1      -8.163  -2.590 129.584  0.00  0.00    +0.000 A 
ENDROOT
BRANCH   1   7
ATOM      7  C   UNL     1      -6.933  -0.400 129.425  0.00  0.00    +0.000 C 
ATOM      8  C   UNL     1      -7.900   0.783 129.541  0.00  0.00    +0.000 C 
BRANCH   7   9
ATOM      9  C   UNL     1      -5.622   0.071 128.801  0.00  0.00    +0.000 C 
ATOM     10  O   UNL     1      -5.539   1.120 128.162  0.00  0.00    +0.000 OA
BRANCH   9  11
ATOM     11  O   UNL     1      -4.531  -0.701 128.990  0.00  0.00    +0.000 OA
ATOM     12  H   UNL     1      -4.138  -0.675 129.884  0.00  0.00    +0.000 HD
ENDBRANCH   9  11
ENDBRANCH   7   9
ENDBRANCH   1   7
BRANCH   3  13
ATOM     13  C   UNL     1      -8.603  -2.818 125.361  0.00  0.00    +0.000 C 
ATOM     14  O   UNL     1      -9.756  -2.894 124.943  0.00  0.00    +0.000 OA
BRANCH  13  15
ATOM     15  C   UNL     1      -7.505  -2.767 124.377  0.00  0.00    +0.000 A 
ATOM     16  C   UNL     1      -6.440  -3.651 124.544  0.00  0.00    +0.000 A 
ATOM     17  C   UNL     1      -5.331  -3.545 123.709  0.00  0.00    +0.000 A 
ATOM     18  C   UNL     1      -5.323  -2.614 122.667  0.00  0.00    +0.000 A 
ATOM     19  C   UNL     1      -6.409  -1.758 122.478  0.00  0.00    +0.000 A 
ATOM     20  C   UNL     1      -7.493  -1.815 123.349  0.00  0.00    +0.000 A 
ENDBRANCH  13  15
ENDBRANCH   3  13
TORSDOF 5
ENDMDL
