MODEL 1
REMARK VINA RESULT:      -8.4      0.000      0.000
REMARK  Name = Dexlansoprazole
REMARK  7 active torsions:
REMARK  status: ('A' for Active; 'I' for Inactive)
REMARK    1  A    between atoms: C_1  and  C_2
REMARK    2  A    between atoms: C_3  and  O_4
REMARK    3  A    between atoms: O_4  and  C_5
REMARK    4  A    between atoms: C_5  and  C_6
REMARK    5  A    between atoms: C_13  and  C_14
REMARK    6  A    between atoms: C_14  and  S_15
REMARK    7  A    between atoms: S_15  and  C_17
REMARK                            x       y       z     vdW  Elec       q    Type
REMARK                         _______ _______ _______ _____ _____    ______ ____
ROOT
ATOM      1  C   UNL     1      -6.107  -0.370 125.389  0.00  0.00    +0.000 C 
ATOM      2  C   UNL     1      -7.234  -0.706 124.473  0.00  0.00    +0.000 A 
ATOM      3  C   UNL     1      -7.106  -1.612 123.407  0.00  0.00    +0.000 A 
ATOM      4  C   UNL     1      -8.221  -1.862 122.610  0.00  0.00    +0.000 A 
ATOM      5  C   UNL     1      -9.406  -1.200 122.882  0.00  0.00    +0.000 A 
ATOM      6  N   UNL     1      -9.550  -0.274 123.860  0.00  0.00    +0.000 NA
ATOM      7  C   UNL     1      -8.466   0.010 124.633  0.00  0.00    +0.000 A 
ENDROOT
BRANCH   3   8
ATOM      8  O   UNL     1      -5.973  -2.298 123.008  0.00  0.00    +0.000 OA
BRANCH   8   9
ATOM      9  C   UNL     1      -5.665  -3.479 123.747  0.00  0.00    +0.000 C 
BRANCH   9  10
ATOM     10  C   UNL     1      -4.303  -4.092 123.609  0.00  0.00    +0.000 C 
ATOM     11  F   UNL     1      -4.335  -5.164 122.796  0.00  0.00    +0.000 F 
ATOM     12  F   UNL     1      -3.393  -3.209 123.165  0.00  0.00    +0.000 F 
ATOM     13  F   UNL     1      -3.895  -4.526 124.833  0.00  0.00    +0.000 F 
ENDBRANCH   9  10
ENDBRANCH   8   9
ENDBRANCH   3   8
BRANCH   7  14
ATOM     14  C   UNL     1      -8.715   1.147 125.657  0.00  0.00    +0.000 C 
BRANCH  14  15
ATOM     15  S   UNL     1      -8.299   2.789 125.117  0.00  0.00    +0.000 S 
ATOM     16  O   UNL     1      -7.366   3.561 125.987  0.00  0.00    +0.000 OA
BRANCH  15  17
ATOM     17  C   UNL     1      -7.845   2.946 123.525  0.00  0.00    +0.000 A 
ATOM     18  N   UNL     1      -8.746   3.120 122.576  0.00  0.00    +0.000 NA
ATOM     19  C   UNL     1      -8.032   3.530 121.504  0.00  0.00    +0.000 A 
ATOM     20  C   UNL     1      -8.479   3.909 120.239  0.00  0.00    +0.000 A 
ATOM     21  C   UNL     1      -7.515   4.352 119.331  0.00  0.00    +0.000 A 
ATOM     22  C   UNL     1      -6.164   4.443 119.694  0.00  0.00    +0.000 A 
ATOM     23  C   UNL     1      -5.711   4.073 120.959  0.00  0.00    +0.000 A 
ATOM     24  C   UNL     1      -6.676   3.587 121.816  0.00  0.00    +0.000 A 
ATOM     25  N   UNL     1      -6.588   3.100 123.083  0.00  0.00    +0.000 N 
ATOM     26  H   UNL     1      -5.757   3.101 123.667  0.00  0.00    +0.000 HD
ENDBRANCH  15  17
ENDBRANCH  14  15
ENDBRANCH   7  14
TORSDOF 6
ENDMDL
MODEL 2
REMARK VINA RESULT:      -7.9      3.518      6.450
REMARK  Name = Dexlansoprazole
REMARK  7 active torsions:
REMARK  status: ('A' for Active; 'I' for Inactive)
REMARK    1  A    between atoms: C_1  and  C_2
REMARK    2  A    between atoms: C_3  and  O_4
REMARK    3  A    between atoms: O_4  and  C_5
REMARK    4  A    between atoms: C_5  and  C_6
REMARK    5  A    between atoms: C_13  and  C_14
REMARK    6  A    between atoms: C_14  and  S_15
REMARK    7  A    between atoms: S_15  and  C_17
REMARK                            x       y       z     vdW  Elec       q    Type
REMARK                         _______ _______ _______ _____ _____    ______ ____
ROOT
ATOM      1  C   UNL     1      -6.122   3.399 122.514  0.00  0.00    +0.000 C 
ATOM      2  C   UNL     1      -6.692   3.552 123.883  0.00  0.00    +0.000 A 
ATOM      3  C   UNL     1      -5.920   3.940 124.992  0.00  0.00    +0.000 A 
ATOM      4  C   UNL     1      -6.548   4.058 126.229  0.00  0.00    +0.000 A 
ATOM      5  C   UNL     1      -7.899   3.773 126.329  0.00  0.00    +0.000 A 
ATOM      6  N   UNL     1      -8.661   3.336 125.298  0.00  0.00    +0.000 NA
ATOM      7  C   UNL     1      -8.063   3.183 124.084  0.00  0.00    +0.000 A 
ENDROOT
BRANCH   3   8
ATOM      8  O   UNL     1      -4.563   4.207 125.029  0.00  0.00    +0.000 OA
BRANCH   8   9
ATOM      9  C   UNL     1      -3.959   4.193 126.321  0.00  0.00    +0.000 C 
BRANCH   9  10
ATOM     10  C   UNL     1      -2.873   3.200 126.609  0.00  0.00    +0.000 C 
ATOM     11  F   UNL     1      -1.746   3.506 125.938  0.00  0.00    +0.000 F 
ATOM     12  F   UNL     1      -2.610   3.105 127.923  0.00  0.00    +0.000 F 
ATOM     13  F   UNL     1      -3.278   1.974 126.179  0.00  0.00    +0.000 F 
ENDBRANCH   9  10
ENDBRANCH   8   9
ENDBRANCH   3   8
BRANCH   7  14
ATOM     14  C   UNL     1      -9.000   2.591 123.001  0.00  0.00    +0.000 C 
BRANCH  14  15
ATOM     15  S   UNL     1      -9.776   1.044 123.402  0.00  0.00    +0.000 S 
ATOM     16  O   UNL     1     -10.758   0.513 122.412  0.00  0.00    +0.000 OA
BRANCH  15  17
ATOM     17  C   UNL     1      -8.765  -0.178 123.903  0.00  0.00    +0.000 A 
ATOM     18  N   UNL     1      -9.249  -1.340 124.298  0.00  0.00    +0.000 NA
ATOM     19  C   UNL     1      -8.178  -2.165 124.308  0.00  0.00    +0.000 A 
ATOM     20  C   UNL     1      -8.117  -3.528 124.597  0.00  0.00    +0.000 A 
ATOM     21  C   UNL     1      -6.873  -4.149 124.470  0.00  0.00    +0.000 A 
ATOM     22  C   UNL     1      -5.746  -3.436 124.036  0.00  0.00    +0.000 A 
ATOM     23  C   UNL     1      -5.802  -2.075 123.739  0.00  0.00    +0.000 A 
ATOM     24  C   UNL     1      -7.029  -1.477 123.926  0.00  0.00    +0.000 A 
ATOM     25  N   UNL     1      -7.429  -0.183 123.783  0.00  0.00    +0.000 N 
ATOM     26  H   UNL     1      -6.871   0.576 123.406  0.00  0.00    +0.000 HD
ENDBRANCH  15  17
ENDBRANCH  14  15
ENDBRANCH   7  14
TORSDOF 6
ENDMDL
MODEL 3
REMARK VINA RESULT:      -7.9      1.508      1.939
REMARK  Name = Dexlansoprazole
REMARK  7 active torsions:
REMARK  status: ('A' for Active; 'I' for Inactive)
REMARK    1  A    between atoms: C_1  and  C_2
REMARK    2  A    between atoms: C_3  and  O_4
REMARK    3  A    between atoms: O_4  and  C_5
REMARK    4  A    between atoms: C_5  and  C_6
REMARK    5  A    between atoms: C_13  and  C_14
REMARK    6  A    between atoms: C_14  and  S_15
REMARK    7  A    between atoms: S_15  and  C_17
REMARK                            x       y       z     vdW  Elec       q    Type
REMARK                         _______ _______ _______ _____ _____    ______ ____
ROOT
ATOM      1  C   UNL     1      -8.093  -0.514 123.286  0.00  0.00    +0.000 C 
ATOM      2  C   UNL     1      -7.982  -0.939 124.710  0.00  0.00    +0.000 A 
ATOM      3  C   UNL     1      -7.633  -2.246 125.091  0.00  0.00    +0.000 A 
ATOM      4  C   UNL     1      -7.552  -2.542 126.450  0.00  0.00    +0.000 A 
ATOM      5  C   UNL     1      -7.835  -1.550 127.374  0.00  0.00    +0.000 A 
ATOM      6  N   UNL     1      -8.236  -0.300 127.046  0.00  0.00    +0.000 NA
ATOM      7  C   UNL     1      -8.352   0.006 125.723  0.00  0.00    +0.000 A 
ENDROOT
BRANCH   3   8
ATOM      8  O   UNL     1      -7.373  -3.328 124.270  0.00  0.00    +0.000 OA
BRANCH   8   9
ATOM      9  C   UNL     1      -6.015  -3.762 124.220  0.00  0.00    +0.000 C 
BRANCH   9  10
ATOM     10  C   UNL     1      -5.009  -2.929 123.483  0.00  0.00    +0.000 C 
ATOM     11  F   UNL     1      -3.866  -3.612 123.285  0.00  0.00    +0.000 F 
ATOM     12  F   UNL     1      -5.484  -2.485 122.307  0.00  0.00    +0.000 F 
ATOM     13  F   UNL     1      -4.704  -1.841 124.242  0.00  0.00    +0.000 F 
ENDBRANCH   9  10
ENDBRANCH   8   9
ENDBRANCH   3   8
BRANCH   7  14
ATOM     14  C   UNL     1      -8.906   1.430 125.462  0.00  0.00    +0.000 C 
BRANCH  14  15
ATOM     15  S   UNL     1      -7.731   2.629 124.878  0.00  0.00    +0.000 S 
ATOM     16  O   UNL     1      -6.353   2.544 125.441  0.00  0.00    +0.000 OA
BRANCH  15  17
ATOM     17  C   UNL     1      -7.654   2.840 123.230  0.00  0.00    +0.000 A 
ATOM     18  N   UNL     1      -8.749   3.009 122.515  0.00  0.00    +0.000 NA
ATOM     19  C   UNL     1      -8.306   3.468 121.322  0.00  0.00    +0.000 A 
ATOM     20  C   UNL     1      -9.037   3.864 120.203  0.00  0.00    +0.000 A 
ATOM     21  C   UNL     1      -8.314   4.358 119.115  0.00  0.00    +0.000 A 
ATOM     22  C   UNL     1      -6.918   4.481 119.167  0.00  0.00    +0.000 A 
ATOM     23  C   UNL     1      -6.182   4.093 120.285  0.00  0.00    +0.000 A 
ATOM     24  C   UNL     1      -6.916   3.558 121.321  0.00  0.00    +0.000 A 
ATOM     25  N   UNL     1      -6.533   3.042 122.521  0.00  0.00    +0.000 N 
ATOM     26  H   UNL     1      -5.591   3.053 122.902  0.00  0.00    +0.000 HD
ENDBRANCH  15  17
ENDBRANCH  14  15
ENDBRANCH   7  14
TORSDOF 6
ENDMDL
MODEL 4
REMARK VINA RESULT:      -7.6      2.535      3.278
REMARK  Name = Dexlansoprazole
REMARK  7 active torsions:
REMARK  status: ('A' for Active; 'I' for Inactive)
REMARK    1  A    between atoms: C_1  and  C_2
REMARK    2  A    between atoms: C_3  and  O_4
REMARK    3  A    between atoms: O_4  and  C_5
REMARK    4  A    between atoms: C_5  and  C_6
REMARK    5  A    between atoms: C_13  and  C_14
REMARK    6  A    between atoms: C_14  and  S_15
REMARK    7  A    between atoms: S_15  and  C_17
REMARK                            x       y       z     vdW  Elec       q    Type
REMARK                         _______ _______ _______ _____ _____    ______ ____
ROOT
ATOM      1  C   UNL     1      -6.295  -0.388 124.281  0.00  0.00    +0.000 C 
ATOM      2  C   UNL     1      -7.316  -1.223 124.975  0.00  0.00    +0.000 A 
ATOM      3  C   UNL     1      -6.985  -2.176 125.954  0.00  0.00    +0.000 A 
ATOM      4  C   UNL     1      -8.014  -2.903 126.547  0.00  0.00    +0.000 A 
ATOM      5  C   UNL     1      -9.319  -2.678 126.142  0.00  0.00    +0.000 A 
ATOM      6  N   UNL     1      -9.670  -1.816 125.159  0.00  0.00    +0.000 NA
ATOM      7  C   UNL     1      -8.679  -1.114 124.543  0.00  0.00    +0.000 A 
ENDROOT
BRANCH   3   8
ATOM      8  O   UNL     1      -5.726  -2.522 126.409  0.00  0.00    +0.000 OA
BRANCH   8   9
ATOM      9  C   UNL     1      -5.308  -1.901 127.623  0.00  0.00    +0.000 C 
BRANCH   9  10
ATOM     10  C   UNL     1      -4.825  -2.759 128.755  0.00  0.00    +0.000 C 
ATOM     11  F   UNL     1      -5.846  -3.419 129.332  0.00  0.00    +0.000 F 
ATOM     12  F   UNL     1      -3.882  -3.631 128.361  0.00  0.00    +0.000 F 
ATOM     13  F   UNL     1      -4.274  -1.956 129.706  0.00  0.00    +0.000 F 
ENDBRANCH   9  10
ENDBRANCH   8   9
ENDBRANCH   3   8
BRANCH   7  14
ATOM     14  C   UNL     1      -9.180  -0.229 123.374  0.00  0.00    +0.000 C 
BRANCH  14  15
ATOM     15  S   UNL     1      -9.470   1.482 123.758  0.00  0.00    +0.000 S 
ATOM     16  O   UNL     1      -9.570   1.834 125.204  0.00  0.00    +0.000 OA
BRANCH  15  17
ATOM     17  C   UNL     1      -8.501   2.585 122.976  0.00  0.00    +0.000 A 
ATOM     18  N   UNL     1      -7.346   2.960 123.491  0.00  0.00    +0.000 NA
ATOM     19  C   UNL     1      -6.706   3.575 122.472  0.00  0.00    +0.000 A 
ATOM     20  C   UNL     1      -5.423   4.121 122.437  0.00  0.00    +0.000 A 
ATOM     21  C   UNL     1      -4.991   4.647 121.218  0.00  0.00    +0.000 A 
ATOM     22  C   UNL     1      -5.801   4.593 120.075  0.00  0.00    +0.000 A 
ATOM     23  C   UNL     1      -7.081   4.042 120.101  0.00  0.00    +0.000 A 
ATOM     24  C   UNL     1      -7.503   3.581 121.329  0.00  0.00    +0.000 A 
ATOM     25  N   UNL     1      -8.686   3.037 121.726  0.00  0.00    +0.000 N 
ATOM     26  H   UNL     1      -9.462   2.787 121.120  0.00  0.00    +0.000 HD
ENDBRANCH  15  17
ENDBRANCH  14  15
ENDBRANCH   7  14
TORSDOF 6
ENDMDL
MODEL 5
REMARK VINA RESULT:      -7.6      2.541      3.165
REMARK  Name = Dexlansoprazole
REMARK  7 active torsions:
REMARK  status: ('A' for Active; 'I' for Inactive)
REMARK    1  A    between atoms: C_1  and  C_2
REMARK    2  A    between atoms: C_3  and  O_4
REMARK    3  A    between atoms: O_4  and  C_5
REMARK    4  A    between atoms: C_5  and  C_6
REMARK    5  A    between atoms: C_13  and  C_14
REMARK    6  A    between atoms: C_14  and  S_15
REMARK    7  A    between atoms: S_15  and  C_17
REMARK                            x       y       z     vdW  Elec       q    Type
REMARK                         _______ _______ _______ _____ _____    ______ ____
ROOT
ATOM      1  C   UNL     1      -6.469  -0.154 124.820  0.00  0.00    +0.000 C 
ATOM      2  C   UNL     1      -6.913  -0.120 126.242  0.00  0.00    +0.000 A 
ATOM      3  C   UNL     1      -7.292  -1.273 126.951  0.00  0.00    +0.000 A 
ATOM      4  C   UNL     1      -7.687  -1.136 128.280  0.00  0.00    +0.000 A 
ATOM      5  C   UNL     1      -7.711   0.127 128.849  0.00  0.00    +0.000 A 
ATOM      6  N   UNL     1      -7.415   1.266 128.180  0.00  0.00    +0.000 NA
ATOM      7  C   UNL     1      -7.055   1.161 126.871  0.00  0.00    +0.000 A 
ENDROOT
BRANCH   3   8
ATOM      8  O   UNL     1      -7.352  -2.574 126.486  0.00  0.00    +0.000 OA
BRANCH   8   9
ATOM      9  C   UNL     1      -8.533  -2.927 125.769  0.00  0.00    +0.000 C 
BRANCH   9  10
ATOM     10  C   UNL     1      -8.409  -3.707 124.494  0.00  0.00    +0.000 C 
ATOM     11  F   UNL     1      -7.926  -4.942 124.726  0.00  0.00    +0.000 F 
ATOM     12  F   UNL     1      -9.578  -3.790 123.836  0.00  0.00    +0.000 F 
ATOM     13  F   UNL     1      -7.521  -3.073 123.680  0.00  0.00    +0.000 F 
ENDBRANCH   9  10
ENDBRANCH   8   9
ENDBRANCH   3   8
BRANCH   7  14
ATOM     14  C   UNL     1      -6.829   2.529 126.178  0.00  0.00    +0.000 C 
BRANCH  14  15
ATOM     15  S   UNL     1      -8.157   3.114 125.152  0.00  0.00    +0.000 S 
ATOM     16  O   UNL     1      -8.819   4.382 125.575  0.00  0.00    +0.000 OA
BRANCH  15  17
ATOM     17  C   UNL     1      -7.861   3.151 123.516  0.00  0.00    +0.000 A 
ATOM     18  N   UNL     1      -8.850   3.256 122.649  0.00  0.00    +0.000 NA
ATOM     19  C   UNL     1      -8.246   3.583 121.486  0.00  0.00    +0.000 A 
ATOM     20  C   UNL     1      -8.816   3.867 120.245  0.00  0.00    +0.000 A 
ATOM     21  C   UNL     1      -7.947   4.239 119.217  0.00  0.00    +0.000 A 
ATOM     22  C   UNL     1      -6.567   4.354 119.439  0.00  0.00    +0.000 A 
ATOM     23  C   UNL     1      -5.991   4.078 120.678  0.00  0.00    +0.000 A 
ATOM     24  C   UNL     1      -6.866   3.660 121.658  0.00  0.00    +0.000 A 
ATOM     25  N   UNL     1      -6.653   3.269 122.944  0.00  0.00    +0.000 N 
ATOM     26  H   UNL     1      -5.769   3.311 123.443  0.00  0.00    +0.000 HD
ENDBRANCH  15  17
ENDBRANCH  14  15
ENDBRANCH   7  14
TORSDOF 6
ENDMDL
MODEL 6
REMARK VINA RESULT:      -7.6      1.243      1.996
REMARK  Name = Dexlansoprazole
REMARK  7 active torsions:
REMARK  status: ('A' for Active; 'I' for Inactive)
REMARK    1  A    between atoms: C_1  and  C_2
REMARK    2  A    between atoms: C_3  and  O_4
REMARK    3  A    between atoms: O_4  and  C_5
REMARK    4  A    between atoms: C_5  and  C_6
REMARK    5  A    between atoms: C_13  and  C_14
REMARK    6  A    between atoms: C_14  and  S_15
REMARK    7  A    between atoms: S_15  and  C_17
REMARK                            x       y       z     vdW  Elec       q    Type
REMARK                         _______ _______ _______ _____ _____    ______ ____
ROOT
ATOM      1  C   UNL     1      -5.275  -0.303 125.854  0.00  0.00    +0.000 C 
ATOM      2  C   UNL     1      -6.571  -0.211 125.124  0.00  0.00    +0.000 A 
ATOM      3  C   UNL     1      -6.839  -0.936 123.951  0.00  0.00    +0.000 A 
ATOM      4  C   UNL     1      -8.084  -0.783 123.346  0.00  0.00    +0.000 A 
ATOM      5  C   UNL     1      -9.004   0.088 123.907  0.00  0.00    +0.000 A 
ATOM      6  N   UNL     1      -8.759   0.850 124.998  0.00  0.00    +0.000 NA
ATOM      7  C   UNL     1      -7.537   0.741 125.590  0.00  0.00    +0.000 A 
ENDROOT
BRANCH   3   8
ATOM      8  O   UNL     1      -5.995  -1.797 123.274  0.00  0.00    +0.000 OA
BRANCH   8   9
ATOM      9  C   UNL     1      -6.058  -3.168 123.661  0.00  0.00    +0.000 C 
BRANCH   9  10
ATOM     10  C   UNL     1      -4.787  -3.894 123.986  0.00  0.00    +0.000 C 
ATOM     11  F   UNL     1      -4.471  -3.760 125.288  0.00  0.00    +0.000 F 
ATOM     12  F   UNL     1      -4.853  -5.197 123.665  0.00  0.00    +0.000 F 
ATOM     13  F   UNL     1      -3.772  -3.342 123.266  0.00  0.00    +0.000 F 
ENDBRANCH   9  10
ENDBRANCH   8   9
ENDBRANCH   3   8
BRANCH   7  14
ATOM     14  C   UNL     1      -7.330   1.723 126.771  0.00  0.00    +0.000 C 
BRANCH  14  15
ATOM     15  S   UNL     1      -7.407   3.453 126.371  0.00  0.00    +0.000 S 
ATOM     16  O   UNL     1      -6.712   4.386 127.305  0.00  0.00    +0.000 OA
BRANCH  15  17
ATOM     17  C   UNL     1      -7.049   3.860 124.799  0.00  0.00    +0.000 A 
ATOM     18  N   UNL     1      -5.841   4.269 124.461  0.00  0.00    +0.000 NA
ATOM     19  C   UNL     1      -5.823   4.189 123.112  0.00  0.00    +0.000 A 
ATOM     20  C   UNL     1      -4.777   4.449 122.226  0.00  0.00    +0.000 A 
ATOM     21  C   UNL     1      -5.022   4.224 120.871  0.00  0.00    +0.000 A 
ATOM     22  C   UNL     1      -6.256   3.723 120.429  0.00  0.00    +0.000 A 
ATOM     23  C   UNL     1      -7.302   3.454 121.309  0.00  0.00    +0.000 A 
ATOM     24  C   UNL     1      -7.051   3.738 122.634  0.00  0.00    +0.000 A 
ATOM     25  N   UNL     1      -7.842   3.646 123.738  0.00  0.00    +0.000 N 
ATOM     26  H   UNL     1      -8.774   3.243 123.773  0.00  0.00    +0.000 HD
ENDBRANCH  15  17
ENDBRANCH  14  15
ENDBRANCH   7  14
TORSDOF 6
ENDMDL
MODEL 7
REMARK VINA RESULT:      -7.5      3.037      4.026
REMARK  Name = Dexlansoprazole
REMARK  7 active torsions:
REMARK  status: ('A' for Active; 'I' for Inactive)
REMARK    1  A    between atoms: C_1  and  C_2
REMARK    2  A    between atoms: C_3  and  O_4
REMARK    3  A    between atoms: O_4  and  C_5
REMARK    4  A    between atoms: C_5  and  C_6
REMARK    5  A    between atoms: C_13  and  C_14
REMARK    6  A    between atoms: C_14  and  S_15
REMARK    7  A    between atoms: S_15  and  C_17
REMARK                            x       y       z     vdW  Elec       q    Type
REMARK                         _______ _______ _______ _____ _____    ______ ____
ROOT
ATOM      1  C   UNL     1      -5.843  -0.105 125.516  0.00  0.00    +0.000 C 
ATOM      2  C   UNL     1      -7.029  -0.384 124.657  0.00  0.00    +0.000 A 
ATOM      3  C   UNL     1      -7.009  -1.320 123.609  0.00  0.00    +0.000 A 
ATOM      4  C   UNL     1      -8.172  -1.511 122.867  0.00  0.00    +0.000 A 
ATOM      5  C   UNL     1      -9.297  -0.764 123.173  0.00  0.00    +0.000 A 
ATOM      6  N   UNL     1      -9.337   0.190 124.133  0.00  0.00    +0.000 NA
ATOM      7  C   UNL     1      -8.203   0.417 124.852  0.00  0.00    +0.000 A 
ENDROOT
BRANCH   3   8
ATOM      8  O   UNL     1      -5.943  -2.089 123.179  0.00  0.00    +0.000 OA
BRANCH   8   9
ATOM      9  C   UNL     1      -5.868  -3.409 123.715  0.00  0.00    +0.000 C 
BRANCH   9  10
ATOM     10  C   UNL     1      -4.532  -4.083 123.813  0.00  0.00    +0.000 C 
ATOM     11  F   UNL     1      -4.573  -5.319 123.280  0.00  0.00    +0.000 F 
ATOM     12  F   UNL     1      -3.559  -3.365 123.227  0.00  0.00    +0.000 F 
ATOM     13  F   UNL     1      -4.209  -4.221 125.128  0.00  0.00    +0.000 F 
ENDBRANCH   9  10
ENDBRANCH   8   9
ENDBRANCH   3   8
BRANCH   7  14
ATOM     14  C   UNL     1      -8.330   1.590 125.857  0.00  0.00    +0.000 C 
BRANCH  14  15
ATOM     15  S   UNL     1      -7.870   3.194 125.247  0.00  0.00    +0.000 S 
ATOM     16  O   UNL     1      -8.890   4.275 125.371  0.00  0.00    +0.000 OA
BRANCH  15  17
ATOM     17  C   UNL     1      -6.384   3.766 125.728  0.00  0.00    +0.000 A 
ATOM     18  N   UNL     1      -6.275   4.613 126.734  0.00  0.00    +0.000 NA
ATOM     19  C   UNL     1      -4.961   4.597 127.048  0.00  0.00    +0.000 A 
ATOM     20  C   UNL     1      -4.290   5.267 128.071  0.00  0.00    +0.000 A 
ATOM     21  C   UNL     1      -2.923   5.017 128.204  0.00  0.00    +0.000 A 
ATOM     22  C   UNL     1      -2.267   4.103 127.365  0.00  0.00    +0.000 A 
ATOM     23  C   UNL     1      -2.932   3.425 126.346  0.00  0.00    +0.000 A 
ATOM     24  C   UNL     1      -4.268   3.733 126.203  0.00  0.00    +0.000 A 
ATOM     25  N   UNL     1      -5.197   3.307 125.303  0.00  0.00    +0.000 N 
ATOM     26  H   UNL     1      -5.064   2.580 124.606  0.00  0.00    +0.000 HD
ENDBRANCH  15  17
ENDBRANCH  14  15
ENDBRANCH   7  14
TORSDOF 6
ENDMDL
MODEL 8
REMARK VINA RESULT:      -7.5      2.938      3.367
REMARK  Name = Dexlansoprazole
REMARK  7 active torsions:
REMARK  status: ('A' for Active; 'I' for Inactive)
REMARK    1  A    between atoms: C_1  and  C_2
REMARK    2  A    between atoms: C_3  and  O_4
REMARK    3  A    between atoms: O_4  and  C_5
REMARK    4  A    between atoms: C_5  and  C_6
REMARK    5  A    between atoms: C_13  and  C_14
REMARK    6  A    between atoms: C_14  and  S_15
REMARK    7  A    between atoms: S_15  and  C_17
REMARK                            x       y       z     vdW  Elec       q    Type
REMARK                         _______ _______ _______ _____ _____    ______ ____
ROOT
ATOM      1  C   UNL     1      -6.730  -0.501 127.075  0.00  0.00    +0.000 C 
ATOM      2  C   UNL     1      -7.417  -0.818 125.791  0.00  0.00    +0.000 A 
ATOM      3  C   UNL     1      -7.841  -2.115 125.453  0.00  0.00    +0.000 A 
ATOM      4  C   UNL     1      -8.479  -2.307 124.230  0.00  0.00    +0.000 A 
ATOM      5  C   UNL     1      -8.657  -1.224 123.385  0.00  0.00    +0.000 A 
ATOM      6  N   UNL     1      -8.207   0.025 123.647  0.00  0.00    +0.000 NA
ATOM      7  C   UNL     1      -7.553   0.232 124.824  0.00  0.00    +0.000 A 
ENDROOT
BRANCH   3   8
ATOM      8  O   UNL     1      -7.683  -3.277 126.185  0.00  0.00    +0.000 OA
BRANCH   8   9
ATOM      9  C   UNL     1      -8.812  -3.691 126.952  0.00  0.00    +0.000 C 
BRANCH   9  10
ATOM     10  C   UNL     1      -8.724  -3.674 128.450  0.00  0.00    +0.000 C 
ATOM     11  F   UNL     1      -8.589  -2.417 128.913  0.00  0.00    +0.000 F 
ATOM     12  F   UNL     1      -9.787  -4.260 129.025  0.00  0.00    +0.000 F 
ATOM     13  F   UNL     1      -7.615  -4.365 128.829  0.00  0.00    +0.000 F 
ENDBRANCH   9  10
ENDBRANCH   8   9
ENDBRANCH   3   8
BRANCH   7  14
ATOM     14  C   UNL     1      -7.000   1.672 124.981  0.00  0.00    +0.000 C 
BRANCH  14  15
ATOM     15  S   UNL     1      -7.868   2.943 124.094  0.00  0.00    +0.000 S 
ATOM     16  O   UNL     1      -8.129   4.213 124.830  0.00  0.00    +0.000 OA
BRANCH  15  17
ATOM     17  C   UNL     1      -7.310   3.284 122.564  0.00  0.00    +0.000 A 
ATOM     18  N   UNL     1      -8.133   3.317 121.533  0.00  0.00    +0.000 NA
ATOM     19  C   UNL     1      -7.426   3.929 120.557  0.00  0.00    +0.000 A 
ATOM     20  C   UNL     1      -7.822   4.276 119.266  0.00  0.00    +0.000 A 
ATOM     21  C   UNL     1      -6.895   4.964 118.481  0.00  0.00    +0.000 A 
ATOM     22  C   UNL     1      -5.636   5.318 118.987  0.00  0.00    +0.000 A 
ATOM     23  C   UNL     1      -5.236   4.981 120.278  0.00  0.00    +0.000 A 
ATOM     24  C   UNL     1      -6.150   4.254 121.011  0.00  0.00    +0.000 A 
ATOM     25  N   UNL     1      -6.079   3.725 122.263  0.00  0.00    +0.000 N 
ATOM     26  H   UNL     1      -5.327   3.868 122.931  0.00  0.00    +0.000 HD
ENDBRANCH  15  17
ENDBRANCH  14  15
ENDBRANCH   7  14
TORSDOF 6
ENDMDL
MODEL 9
REMARK VINA RESULT:      -7.5      1.922      2.513
REMARK  Name = Dexlansoprazole
REMARK  7 active torsions:
REMARK  status: ('A' for Active; 'I' for Inactive)
REMARK    1  A    between atoms: C_1  and  C_2
REMARK    2  A    between atoms: C_3  and  O_4
REMARK    3  A    between atoms: O_4  and  C_5
REMARK    4  A    between atoms: C_5  and  C_6
REMARK    5  A    between atoms: C_13  and  C_14
REMARK    6  A    between atoms: C_14  and  S_15
REMARK    7  A    between atoms: S_15  and  C_17
REMARK                            x       y       z     vdW  Elec       q    Type
REMARK                         _______ _______ _______ _____ _____    ______ ____
ROOT
ATOM      1  C   UNL     1      -5.503  -0.378 126.417  0.00  0.00    +0.000 C 
ATOM      2  C   UNL     1      -6.953  -0.101 126.211  0.00  0.00    +0.000 A 
ATOM      3  C   UNL     1      -7.827  -1.021 125.606  0.00  0.00    +0.000 A 
ATOM      4  C   UNL     1      -9.167  -0.668 125.463  0.00  0.00    +0.000 A 
ATOM      5  C   UNL     1      -9.586   0.578 125.900  0.00  0.00    +0.000 A 
ATOM      6  N   UNL     1      -8.763   1.514 126.428  0.00  0.00    +0.000 NA
ATOM      7  C   UNL     1      -7.442   1.204 126.551  0.00  0.00    +0.000 A 
ENDROOT
BRANCH   3   8
ATOM      8  O   UNL     1      -7.523  -2.268 125.092  0.00  0.00    +0.000 OA
BRANCH   8   9
ATOM      9  C   UNL     1      -7.429  -2.352 123.671  0.00  0.00    +0.000 C 
BRANCH   9  10
ATOM     10  C   UNL     1      -6.207  -1.815 122.987  0.00  0.00    +0.000 C 
ATOM     11  F   UNL     1      -5.097  -2.077 123.702  0.00  0.00    +0.000 F 
ATOM     12  F   UNL     1      -6.072  -2.300 121.741  0.00  0.00    +0.000 F 
ATOM     13  F   UNL     1      -6.318  -0.462 122.894  0.00  0.00    +0.000 F 
ENDBRANCH   9  10
ENDBRANCH   8   9
ENDBRANCH   3   8
BRANCH   7  14
ATOM     14  C   UNL     1      -6.577   2.376 127.078  0.00  0.00    +0.000 C 
BRANCH  14  15
ATOM     15  S   UNL     1      -6.640   3.880 126.134  0.00  0.00    +0.000 S 
ATOM     16  O   UNL     1      -5.910   5.053 126.696  0.00  0.00    +0.000 OA
BRANCH  15  17
ATOM     17  C   UNL     1      -6.315   3.741 124.508  0.00  0.00    +0.000 A 
ATOM     18  N   UNL     1      -7.248   3.349 123.661  0.00  0.00    +0.000 NA
ATOM     19  C   UNL     1      -6.751   3.665 122.444  0.00  0.00    +0.000 A 
ATOM     20  C   UNL     1      -7.339   3.521 121.187  0.00  0.00    +0.000 A 
ATOM     21  C   UNL     1      -6.614   3.991 120.090  0.00  0.00    +0.000 A 
ATOM     22  C   UNL     1      -5.368   4.613 120.256  0.00  0.00    +0.000 A 
ATOM     23  C   UNL     1      -4.778   4.766 121.509  0.00  0.00    +0.000 A 
ATOM     24  C   UNL     1      -5.490   4.242 122.567  0.00  0.00    +0.000 A 
ATOM     25  N   UNL     1      -5.202   4.171 123.896  0.00  0.00    +0.000 N 
ATOM     26  H   UNL     1      -4.406   4.600 124.358  0.00  0.00    +0.000 HD
ENDBRANCH  15  17
ENDBRANCH  14  15
ENDBRANCH   7  14
TORSDOF 6
ENDMDL
