MODEL 1
REMARK VINA RESULT:      -6.3      0.000      0.000
REMARK  Name = Dexmedetomidine
REMARK  5 active torsions:
REMARK  status: ('A' for Active; 'I' for Inactive)
REMARK    1  A    between atoms: C_1  and  C_2
REMARK    2  A    between atoms: C_2  and  C_3
REMARK    3  A    between atoms: C_2  and  C_8
REMARK    4  A    between atoms: C_9  and  C_10
REMARK    5  A    between atoms: C_11  and  C_12
REMARK                            x       y       z     vdW  Elec       q    Type
REMARK                         _______ _______ _______ _____ _____    ______ ____
ROOT
ATOM      1  C   UNL     1      -8.010   3.481 124.776  0.00  0.00    +0.000 C 
ATOM      2  C   UNL     1      -8.333   2.999 123.356  0.00  0.00    +0.000 C 
ENDROOT
BRANCH   2   3
ATOM      3  C   UNL     1      -7.358   3.483 122.269  0.00  0.00    +0.000 A 
ATOM      4  C   UNL     1      -7.766   3.781 120.939  0.00  0.00    +0.000 A 
ATOM      5  C   UNL     1      -9.201   3.682 120.486  0.00  0.00    +0.000 C 
ATOM      6  C   UNL     1      -6.798   4.178 119.981  0.00  0.00    +0.000 A 
ATOM      7  C   UNL     1      -7.148   4.439 118.540  0.00  0.00    +0.000 C 
ATOM      8  C   UNL     1      -5.458   4.340 120.359  0.00  0.00    +0.000 A 
ATOM      9  C   UNL     1      -5.064   4.124 121.667  0.00  0.00    +0.000 A 
ATOM     10  C   UNL     1      -6.001   3.697 122.603  0.00  0.00    +0.000 A 
ENDBRANCH   2   3
BRANCH   2  11
ATOM     11  C   UNL     1      -8.355   1.490 123.306  0.00  0.00    +0.000 A 
ATOM     12  C   UNL     1      -9.420   0.662 122.995  0.00  0.00    +0.000 A 
ATOM     13  N   UNL     1      -8.903  -0.600 122.944  0.00  0.00    +0.000 N 
ATOM     14  C   UNL     1      -7.597  -0.516 123.331  0.00  0.00    +0.000 A 
ATOM     15  N   UNL     1      -7.240   0.721 123.574  0.00  0.00    +0.000 NA
ATOM     16  H   UNL     1      -9.387  -1.436 122.657  0.00  0.00    +0.000 HD
ENDBRANCH   2  11
TORSDOF 2
ENDMDL
MODEL 2
REMARK VINA RESULT:      -6.0      8.276      9.865
REMARK  Name = Dexmedetomidine
REMARK  5 active torsions:
REMARK  status: ('A' for Active; 'I' for Inactive)
REMARK    1  A    between atoms: C_1  and  C_2
REMARK    2  A    between atoms: C_2  and  C_3
REMARK    3  A    between atoms: C_2  and  C_8
REMARK    4  A    between atoms: C_9  and  C_10
REMARK    5  A    between atoms: C_11  and  C_12
REMARK                            x       y       z     vdW  Elec       q    Type
REMARK                         _______ _______ _______ _____ _____    ______ ____
ROOT
ATOM      1  C   UNL     1     -12.730   7.211 130.784  0.00  0.00    +0.000 C 
ATOM      2  C   UNL     1     -11.336   7.160 130.147  0.00  0.00    +0.000 C 
ENDROOT
BRANCH   2   3
ATOM      3  C   UNL     1     -10.568   5.846 130.370  0.00  0.00    +0.000 A 
ATOM      4  C   UNL     1      -9.176   5.801 130.659  0.00  0.00    +0.000 A 
ATOM      5  C   UNL     1      -8.335   7.044 130.807  0.00  0.00    +0.000 C 
ATOM      6  C   UNL     1      -8.530   4.547 130.806  0.00  0.00    +0.000 A 
ATOM      7  C   UNL     1      -7.049   4.423 131.040  0.00  0.00    +0.000 C 
ATOM      8  C   UNL     1      -9.273   3.359 130.733  0.00  0.00    +0.000 A 
ATOM      9  C   UNL     1     -10.640   3.396 130.526  0.00  0.00    +0.000 A 
ATOM     10  C   UNL     1     -11.273   4.620 130.343  0.00  0.00    +0.000 A 
ENDBRANCH   2   3
BRANCH   2  11
ATOM     11  C   UNL     1     -11.430   7.383 128.657  0.00  0.00    +0.000 A 
ATOM     12  C   UNL     1     -10.609   8.159 127.857  0.00  0.00    +0.000 A 
ATOM     13  N   UNL     1     -11.012   7.921 126.574  0.00  0.00    +0.000 N 
ATOM     14  C   UNL     1     -12.115   7.118 126.642  0.00  0.00    +0.000 A 
ATOM     15  N   UNL     1     -12.404   6.792 127.877  0.00  0.00    +0.000 NA
ATOM     16  H   UNL     1     -10.570   8.257 125.734  0.00  0.00    +0.000 HD
ENDBRANCH   2  11
TORSDOF 2
ENDMDL
MODEL 3
REMARK VINA RESULT:      -5.9      3.672      6.907
REMARK  Name = Dexmedetomidine
REMARK  5 active torsions:
REMARK  status: ('A' for Active; 'I' for Inactive)
REMARK    1  A    between atoms: C_1  and  C_2
REMARK    2  A    between atoms: C_2  and  C_3
REMARK    3  A    between atoms: C_2  and  C_8
REMARK    4  A    between atoms: C_9  and  C_10
REMARK    5  A    between atoms: C_11  and  C_12
REMARK                            x       y       z     vdW  Elec       q    Type
REMARK                         _______ _______ _______ _____ _____    ______ ____
ROOT
ATOM      1  C   UNL     1      -6.393  -1.788 122.473  0.00  0.00    +0.000 C 
ATOM      2  C   UNL     1      -7.599  -1.871 123.415  0.00  0.00    +0.000 C 
ENDROOT
BRANCH   2   3
ATOM      3  C   UNL     1      -7.251  -2.044 124.902  0.00  0.00    +0.000 A 
ATOM      4  C   UNL     1      -8.115  -2.687 125.832  0.00  0.00    +0.000 A 
ATOM      5  C   UNL     1      -9.438  -3.288 125.432  0.00  0.00    +0.000 C 
ATOM      6  C   UNL     1      -7.741  -2.765 127.199  0.00  0.00    +0.000 A 
ATOM      7  C   UNL     1      -8.638  -3.365 128.248  0.00  0.00    +0.000 C 
ATOM      8  C   UNL     1      -6.497  -2.272 127.618  0.00  0.00    +0.000 A 
ATOM      9  C   UNL     1      -5.619  -1.712 126.709  0.00  0.00    +0.000 A 
ATOM     10  C   UNL     1      -5.994  -1.597 125.375  0.00  0.00    +0.000 A 
ENDBRANCH   2   3
BRANCH   2  11
ATOM     11  C   UNL     1      -8.452  -0.632 123.289  0.00  0.00    +0.000 A 
ATOM     12  C   UNL     1      -8.106   0.676 123.583  0.00  0.00    +0.000 A 
ATOM     13  N   UNL     1      -9.159   1.438 123.168  0.00  0.00    +0.000 N 
ATOM     14  C   UNL     1     -10.138   0.581 122.753  0.00  0.00    +0.000 A 
ATOM     15  N   UNL     1      -9.753  -0.669 122.830  0.00  0.00    +0.000 NA
ATOM     16  H   UNL     1      -9.202   2.445 123.152  0.00  0.00    +0.000 HD
ENDBRANCH   2  11
TORSDOF 2
ENDMDL
MODEL 4
REMARK VINA RESULT:      -5.9      8.488     10.267
REMARK  Name = Dexmedetomidine
REMARK  5 active torsions:
REMARK  status: ('A' for Active; 'I' for Inactive)
REMARK    1  A    between atoms: C_1  and  C_2
REMARK    2  A    between atoms: C_2  and  C_3
REMARK    3  A    between atoms: C_2  and  C_8
REMARK    4  A    between atoms: C_9  and  C_10
REMARK    5  A    between atoms: C_11  and  C_12
REMARK                            x       y       z     vdW  Elec       q    Type
REMARK                         _______ _______ _______ _____ _____    ______ ____
ROOT
ATOM      1  C   UNL     1      -9.927   3.825 130.282  0.00  0.00    +0.000 C 
ATOM      2  C   UNL     1      -9.620   5.284 129.923  0.00  0.00    +0.000 C 
ENDROOT
BRANCH   2   3
ATOM      3  C   UNL     1     -10.773   6.270 130.173  0.00  0.00    +0.000 A 
ATOM      4  C   UNL     1     -11.226   7.199 129.196  0.00  0.00    +0.000 A 
ATOM      5  C   UNL     1     -10.636   7.276 127.810  0.00  0.00    +0.000 C 
ATOM      6  C   UNL     1     -12.266   8.109 129.520  0.00  0.00    +0.000 A 
ATOM      7  C   UNL     1     -12.744   9.165 128.560  0.00  0.00    +0.000 C 
ATOM      8  C   UNL     1     -12.889   8.047 130.775  0.00  0.00    +0.000 A 
ATOM      9  C   UNL     1     -12.506   7.099 131.706  0.00  0.00    +0.000 A 
ATOM     10  C   UNL     1     -11.462   6.230 131.408  0.00  0.00    +0.000 A 
ENDBRANCH   2   3
BRANCH   2  11
ATOM     11  C   UNL     1      -8.424   5.778 130.700  0.00  0.00    +0.000 A 
ATOM     12  C   UNL     1      -7.807   5.181 131.786  0.00  0.00    +0.000 A 
ATOM     13  N   UNL     1      -6.695   5.932 132.037  0.00  0.00    +0.000 N 
ATOM     14  C   UNL     1      -6.733   7.002 131.189  0.00  0.00    +0.000 A 
ATOM     15  N   UNL     1      -7.767   6.950 130.387  0.00  0.00    +0.000 NA
ATOM     16  H   UNL     1      -5.971   5.727 132.706  0.00  0.00    +0.000 HD
ENDBRANCH   2  11
TORSDOF 2
ENDMDL
MODEL 5
REMARK VINA RESULT:      -5.9      5.617      7.943
REMARK  Name = Dexmedetomidine
REMARK  5 active torsions:
REMARK  status: ('A' for Active; 'I' for Inactive)
REMARK    1  A    between atoms: C_1  and  C_2
REMARK    2  A    between atoms: C_2  and  C_3
REMARK    3  A    between atoms: C_2  and  C_8
REMARK    4  A    between atoms: C_9  and  C_10
REMARK    5  A    between atoms: C_11  and  C_12
REMARK                            x       y       z     vdW  Elec       q    Type
REMARK                         _______ _______ _______ _____ _____    ______ ____
ROOT
ATOM      1  C   UNL     1      -9.388  -3.250 123.886  0.00  0.00    +0.000 C 
ATOM      2  C   UNL     1      -8.323  -2.421 124.614  0.00  0.00    +0.000 C 
ENDROOT
BRANCH   2   3
ATOM      3  C   UNL     1      -8.310  -2.581 126.144  0.00  0.00    +0.000 A 
ATOM      4  C   UNL     1      -7.812  -1.580 127.024  0.00  0.00    +0.000 A 
ATOM      5  C   UNL     1      -7.283  -0.256 126.534  0.00  0.00    +0.000 C 
ATOM      6  C   UNL     1      -7.790  -1.823 128.422  0.00  0.00    +0.000 A 
ATOM      7  C   UNL     1      -7.212  -0.839 129.403  0.00  0.00    +0.000 C 
ATOM      8  C   UNL     1      -8.320  -3.014 128.938  0.00  0.00    +0.000 A 
ATOM      9  C   UNL     1      -8.873  -3.962 128.096  0.00  0.00    +0.000 A 
ATOM     10  C   UNL     1      -8.862  -3.748 126.722  0.00  0.00    +0.000 A 
ENDBRANCH   2   3
BRANCH   2  11
ATOM     11  C   UNL     1      -6.945  -2.775 124.109  0.00  0.00    +0.000 A 
ATOM     12  C   UNL     1      -6.055  -1.967 123.422  0.00  0.00    +0.000 A 
ATOM     13  N   UNL     1      -4.903  -2.693 123.320  0.00  0.00    +0.000 N 
ATOM     14  C   UNL     1      -5.161  -3.932 123.832  0.00  0.00    +0.000 A 
ATOM     15  N   UNL     1      -6.382  -4.021 124.297  0.00  0.00    +0.000 NA
ATOM     16  H   UNL     1      -4.021  -2.370 122.953  0.00  0.00    +0.000 HD
ENDBRANCH   2  11
TORSDOF 2
ENDMDL
MODEL 6
REMARK VINA RESULT:      -5.7      5.405      7.118
REMARK  Name = Dexmedetomidine
REMARK  5 active torsions:
REMARK  status: ('A' for Active; 'I' for Inactive)
REMARK    1  A    between atoms: C_1  and  C_2
REMARK    2  A    between atoms: C_2  and  C_3
REMARK    3  A    between atoms: C_2  and  C_8
REMARK    4  A    between atoms: C_9  and  C_10
REMARK    5  A    between atoms: C_11  and  C_12
REMARK                            x       y       z     vdW  Elec       q    Type
REMARK                         _______ _______ _______ _____ _____    ______ ____
ROOT
ATOM      1  C   UNL     1      -8.903  -3.872 127.876  0.00  0.00    +0.000 C 
ATOM      2  C   UNL     1      -7.837  -3.024 127.171  0.00  0.00    +0.000 C 
ENDROOT
BRANCH   2   3
ATOM      3  C   UNL     1      -8.019  -2.887 125.650  0.00  0.00    +0.000 A 
ATOM      4  C   UNL     1      -6.955  -2.547 124.770  0.00  0.00    +0.000 A 
ATOM      5  C   UNL     1      -5.542  -2.324 125.248  0.00  0.00    +0.000 C 
ATOM      6  C   UNL     1      -7.213  -2.393 123.383  0.00  0.00    +0.000 A 
ATOM      7  C   UNL     1      -6.152  -1.965 122.406  0.00  0.00    +0.000 C 
ATOM      8  C   UNL     1      -8.496  -2.642 122.874  0.00  0.00    +0.000 A 
ATOM      9  C   UNL     1      -9.520  -3.045 123.712  0.00  0.00    +0.000 A 
ATOM     10  C   UNL     1      -9.283  -3.160 125.077  0.00  0.00    +0.000 A 
ENDBRANCH   2   3
BRANCH   2  11
ATOM     11  C   UNL     1      -7.804  -1.631 127.752  0.00  0.00    +0.000 A 
ATOM     12  C   UNL     1      -7.355  -1.237 129.001  0.00  0.00    +0.000 A 
ATOM     13  N   UNL     1      -7.395   0.128 128.993  0.00  0.00    +0.000 N 
ATOM     14  C   UNL     1      -7.962   0.507 127.811  0.00  0.00    +0.000 A 
ATOM     15  N   UNL     1      -8.236  -0.524 127.050  0.00  0.00    +0.000 NA
ATOM     16  H   UNL     1      -7.052   0.741 129.715  0.00  0.00    +0.000 HD
ENDBRANCH   2  11
TORSDOF 2
ENDMDL
MODEL 7
REMARK VINA RESULT:      -5.6      4.776      8.010
REMARK  Name = Dexmedetomidine
REMARK  5 active torsions:
REMARK  status: ('A' for Active; 'I' for Inactive)
REMARK    1  A    between atoms: C_1  and  C_2
REMARK    2  A    between atoms: C_2  and  C_3
REMARK    3  A    between atoms: C_2  and  C_8
REMARK    4  A    between atoms: C_9  and  C_10
REMARK    5  A    between atoms: C_11  and  C_12
REMARK                            x       y       z     vdW  Elec       q    Type
REMARK                         _______ _______ _______ _____ _____    ______ ____
ROOT
ATOM      1  C   UNL     1      -7.655   0.297 125.213  0.00  0.00    +0.000 C 
ATOM      2  C   UNL     1      -6.754  -0.865 125.649  0.00  0.00    +0.000 C 
ENDROOT
BRANCH   2   3
ATOM      3  C   UNL     1      -7.417  -1.882 126.593  0.00  0.00    +0.000 A 
ATOM      4  C   UNL     1      -6.969  -2.112 127.923  0.00  0.00    +0.000 A 
ATOM      5  C   UNL     1      -5.822  -1.352 128.539  0.00  0.00    +0.000 C 
ATOM      6  C   UNL     1      -7.605  -3.102 128.716  0.00  0.00    +0.000 A 
ATOM      7  C   UNL     1      -7.138  -3.449 130.104  0.00  0.00    +0.000 C 
ATOM      8  C   UNL     1      -8.713  -3.802 128.215  0.00  0.00    +0.000 A 
ATOM      9  C   UNL     1      -9.202  -3.532 126.950  0.00  0.00    +0.000 A 
ATOM     10  C   UNL     1      -8.559  -2.591 126.153  0.00  0.00    +0.000 A 
ENDBRANCH   2   3
BRANCH   2  11
ATOM     11  C   UNL     1      -6.253  -1.624 124.444  0.00  0.00    +0.000 A 
ATOM     12  C   UNL     1      -6.581  -1.425 123.114  0.00  0.00    +0.000 A 
ATOM     13  N   UNL     1      -5.763  -2.258 122.405  0.00  0.00    +0.000 N 
ATOM     14  C   UNL     1      -5.064  -3.002 123.311  0.00  0.00    +0.000 A 
ATOM     15  N   UNL     1      -5.347  -2.660 124.543  0.00  0.00    +0.000 NA
ATOM     16  H   UNL     1      -5.676  -2.303 121.402  0.00  0.00    +0.000 HD
ENDBRANCH   2  11
TORSDOF 2
ENDMDL
MODEL 8
REMARK VINA RESULT:      -5.6      2.410      5.959
REMARK  Name = Dexmedetomidine
REMARK  5 active torsions:
REMARK  status: ('A' for Active; 'I' for Inactive)
REMARK    1  A    between atoms: C_1  and  C_2
REMARK    2  A    between atoms: C_2  and  C_3
REMARK    3  A    between atoms: C_2  and  C_8
REMARK    4  A    between atoms: C_9  and  C_10
REMARK    5  A    between atoms: C_11  and  C_12
REMARK                            x       y       z     vdW  Elec       q    Type
REMARK                         _______ _______ _______ _____ _____    ______ ____
ROOT
ATOM      1  C   UNL     1      -9.298   0.847 126.205  0.00  0.00    +0.000 C 
ATOM      2  C   UNL     1      -8.046   0.621 125.348  0.00  0.00    +0.000 C 
ENDROOT
BRANCH   2   3
ATOM      3  C   UNL     1      -7.842  -0.825 124.866  0.00  0.00    +0.000 A 
ATOM      4  C   UNL     1      -6.573  -1.470 124.863  0.00  0.00    +0.000 A 
ATOM      5  C   UNL     1      -5.319  -0.801 125.365  0.00  0.00    +0.000 C 
ATOM      6  C   UNL     1      -6.459  -2.791 124.359  0.00  0.00    +0.000 A 
ATOM      7  C   UNL     1      -5.138  -3.506 124.258  0.00  0.00    +0.000 C 
ATOM      8  C   UNL     1      -7.601  -3.482 123.929  0.00  0.00    +0.000 A 
ATOM      9  C   UNL     1      -8.849  -2.891 123.998  0.00  0.00    +0.000 A 
ATOM     10  C   UNL     1      -8.963  -1.582 124.455  0.00  0.00    +0.000 A 
ENDBRANCH   2   3
BRANCH   2  11
ATOM     11  C   UNL     1      -8.079   1.506 124.125  0.00  0.00    +0.000 A 
ATOM     12  C   UNL     1      -9.187   2.017 123.471  0.00  0.00    +0.000 A 
ATOM     13  N   UNL     1      -8.695   2.867 122.523  0.00  0.00    +0.000 N 
ATOM     14  C   UNL     1      -7.334   2.760 122.553  0.00  0.00    +0.000 A 
ATOM     15  N   UNL     1      -6.932   1.938 123.490  0.00  0.00    +0.000 NA
ATOM     16  H   UNL     1      -9.232   3.475 121.926  0.00  0.00    +0.000 HD
ENDBRANCH   2  11
TORSDOF 2
ENDMDL
MODEL 9
REMARK VINA RESULT:      -5.5      6.924      9.623
REMARK  Name = Dexmedetomidine
REMARK  5 active torsions:
REMARK  status: ('A' for Active; 'I' for Inactive)
REMARK    1  A    between atoms: C_1  and  C_2
REMARK    2  A    between atoms: C_2  and  C_3
REMARK    3  A    between atoms: C_2  and  C_8
REMARK    4  A    between atoms: C_9  and  C_10
REMARK    5  A    between atoms: C_11  and  C_12
REMARK                            x       y       z     vdW  Elec       q    Type
REMARK                         _______ _______ _______ _____ _____    ______ ____
ROOT
ATOM      1  C   UNL     1      -7.073   7.061 131.022  0.00  0.00    +0.000 C 
ATOM      2  C   UNL     1      -8.317   6.177 130.875  0.00  0.00    +0.000 C 
ENDROOT
BRANCH   2   3
ATOM      3  C   UNL     1      -9.574   6.904 130.369  0.00  0.00    +0.000 A 
ATOM      4  C   UNL     1     -10.814   6.887 131.066  0.00  0.00    +0.000 A 
ATOM      5  C   UNL     1     -10.996   6.180 132.385  0.00  0.00    +0.000 C 
ATOM      6  C   UNL     1     -11.941   7.543 130.509  0.00  0.00    +0.000 A 
ATOM      7  C   UNL     1     -13.300   7.505 131.155  0.00  0.00    +0.000 C 
ATOM      8  C   UNL     1     -11.817   8.263 129.311  0.00  0.00    +0.000 A 
ATOM      9  C   UNL     1     -10.597   8.347 128.664  0.00  0.00    +0.000 A 
ATOM     10  C   UNL     1      -9.498   7.673 129.184  0.00  0.00    +0.000 A 
ENDBRANCH   2   3
BRANCH   2  11
ATOM     11  C   UNL     1      -8.041   5.033 129.928  0.00  0.00    +0.000 A 
ATOM     12  C   UNL     1      -8.774   3.871 129.758  0.00  0.00    +0.000 A 
ATOM     13  N   UNL     1      -8.206   3.231 128.694  0.00  0.00    +0.000 N 
ATOM     14  C   UNL     1      -7.102   3.948 128.335  0.00  0.00    +0.000 A 
ATOM     15  N   UNL     1      -6.963   5.026 129.067  0.00  0.00    +0.000 NA
ATOM     16  H   UNL     1      -8.547   2.396 128.245  0.00  0.00    +0.000 HD
ENDBRANCH   2  11
TORSDOF 2
ENDMDL
