MODEL 1
REMARK VINA RESULT:      -6.7      0.000      0.000
REMARK  Name = Dexmethylphenidate
REMARK  5 active torsions:
REMARK  status: ('A' for Active; 'I' for Inactive)
REMARK    1  A    between atoms: C_2  and  C_3
REMARK    2  A    between atoms: C_2  and  C_7
REMARK    3  A    between atoms: C_2  and  C_13
REMARK    4  A    between atoms: C_3  and  O_5
REMARK    5  A    between atoms: O_5  and  C_6
REMARK                            x       y       z     vdW  Elec       q    Type
REMARK                         _______ _______ _______ _____ _____    ______ ____
ROOT
ATOM      1  C   UNL     1     -10.236   6.742 129.776  0.00  0.00    +0.000 C 
ENDROOT
BRANCH   1   2
ATOM      2  C   UNL     1     -11.874   6.574 129.814  0.00  0.00    +0.000 C 
ATOM      3  C   UNL     1     -12.642   7.628 130.667  0.00  0.00    +0.000 C 
ATOM      4  C   UNL     1     -12.720   8.994 130.015  0.00  0.00    +0.000 C 
ATOM      5  C   UNL     1     -13.222   8.822 128.502  0.00  0.00    +0.000 C 
ATOM      6  C   UNL     1     -12.723   7.521 127.695  0.00  0.00    +0.000 C 
ATOM      7  N   UNL     1     -12.633   6.340 128.546  0.00  0.00    +0.000 NA
ATOM      8  H   UNL     1     -12.191   5.584 128.020  0.00  0.00    +0.000 HD
ENDBRANCH   1   2
BRANCH   1   9
ATOM      9  C   UNL     1      -9.367   6.501 131.043  0.00  0.00    +0.000 A 
ATOM     10  C   UNL     1      -8.036   6.800 131.008  0.00  0.00    +0.000 A 
ATOM     11  C   UNL     1      -6.963   6.474 131.806  0.00  0.00    +0.000 A 
ATOM     12  C   UNL     1      -7.311   5.996 133.014  0.00  0.00    +0.000 A 
ATOM     13  C   UNL     1      -8.686   5.832 133.270  0.00  0.00    +0.000 A 
ATOM     14  C   UNL     1      -9.710   6.045 132.289  0.00  0.00    +0.000 A 
ENDBRANCH   1   9
BRANCH   1  15
ATOM     15  C   UNL     1      -9.694   5.908 128.611  0.00  0.00    +0.000 C 
ATOM     16  O   UNL     1      -9.600   6.327 127.447  0.00  0.00    +0.000 OA
BRANCH  15  17
ATOM     17  O   UNL     1      -9.317   4.648 128.967  0.00  0.00    +0.000 OA
ATOM     18  C   UNL     1      -8.074   4.254 128.366  0.00  0.00    +0.000 C 
ENDBRANCH  15  17
ENDBRANCH   1  15
TORSDOF 4
ENDMDL
MODEL 2
REMARK VINA RESULT:      -6.6      7.957      9.844
REMARK  Name = Dexmethylphenidate
REMARK  5 active torsions:
REMARK  status: ('A' for Active; 'I' for Inactive)
REMARK    1  A    between atoms: C_2  and  C_3
REMARK    2  A    between atoms: C_2  and  C_7
REMARK    3  A    between atoms: C_2  and  C_13
REMARK    4  A    between atoms: C_3  and  O_5
REMARK    5  A    between atoms: O_5  and  C_6
REMARK                            x       y       z     vdW  Elec       q    Type
REMARK                         _______ _______ _______ _____ _____    ______ ____
ROOT
ATOM      1  C   UNL     1      -7.935   0.915 122.973  0.00  0.00    +0.000 C 
ENDROOT
BRANCH   1   2
ATOM      2  C   UNL     1      -7.708   2.537 123.153  0.00  0.00    +0.000 C 
ATOM      3  C   UNL     1      -6.268   3.054 122.859  0.00  0.00    +0.000 C 
ATOM      4  C   UNL     1      -5.927   3.092 121.383  0.00  0.00    +0.000 C 
ATOM      5  C   UNL     1      -7.109   3.835 120.593  0.00  0.00    +0.000 C 
ATOM      6  C   UNL     1      -8.614   3.599 121.113  0.00  0.00    +0.000 C 
ATOM      7  N   UNL     1      -8.692   3.500 122.566  0.00  0.00    +0.000 NA
ATOM      8  H   UNL     1      -9.639   3.222 122.831  0.00  0.00    +0.000 HD
ENDBRANCH   1   2
BRANCH   1   9
ATOM      9  C   UNL     1      -6.957  -0.115 123.606  0.00  0.00    +0.000 A 
ATOM     10  C   UNL     1      -6.548  -1.189 122.870  0.00  0.00    +0.000 A 
ATOM     11  C   UNL     1      -5.941  -2.384 123.183  0.00  0.00    +0.000 A 
ATOM     12  C   UNL     1      -5.383  -2.406 124.405  0.00  0.00    +0.000 A 
ATOM     13  C   UNL     1      -5.547  -1.261 125.209  0.00  0.00    +0.000 A 
ATOM     14  C   UNL     1      -6.355  -0.136 124.837  0.00  0.00    +0.000 A 
ENDBRANCH   1   9
BRANCH   1  15
ATOM     15  C   UNL     1      -9.373   0.582 123.382  0.00  0.00    +0.000 C 
ATOM     16  O   UNL     1     -10.054  -0.308 122.851  0.00  0.00    +0.000 OA
BRANCH  15  17
ATOM     17  O   UNL     1      -9.848   1.358 124.397  0.00  0.00    +0.000 OA
ATOM     18  C   UNL     1      -9.832   0.679 125.663  0.00  0.00    +0.000 C 
ENDBRANCH  15  17
ENDBRANCH   1  15
TORSDOF 4
ENDMDL
MODEL 3
REMARK VINA RESULT:      -6.6      7.151      9.589
REMARK  Name = Dexmethylphenidate
REMARK  5 active torsions:
REMARK  status: ('A' for Active; 'I' for Inactive)
REMARK    1  A    between atoms: C_2  and  C_3
REMARK    2  A    between atoms: C_2  and  C_7
REMARK    3  A    between atoms: C_2  and  C_13
REMARK    4  A    between atoms: C_3  and  O_5
REMARK    5  A    between atoms: O_5  and  C_6
REMARK                            x       y       z     vdW  Elec       q    Type
REMARK                         _______ _______ _______ _____ _____    ______ ____
ROOT
ATOM      1  C   UNL     1      -8.010   2.516 123.494  0.00  0.00    +0.000 C 
ENDROOT
BRANCH   1   2
ATOM      2  C   UNL     1      -9.439   1.730 123.727  0.00  0.00    +0.000 C 
ATOM      3  C   UNL     1      -9.671   0.473 122.837  0.00  0.00    +0.000 C 
ATOM      4  C   UNL     1      -8.852  -0.730 123.262  0.00  0.00    +0.000 C 
ATOM      5  C   UNL     1      -9.029  -0.951 124.840  0.00  0.00    +0.000 C 
ATOM      6  C   UNL     1      -9.159   0.360 125.765  0.00  0.00    +0.000 C 
ATOM      7  N   UNL     1      -9.910   1.428 125.115  0.00  0.00    +0.000 NA
ATOM      8  H   UNL     1      -9.850   2.273 125.687  0.00  0.00    +0.000 HD
ENDBRANCH   1   2
BRANCH   1   9
ATOM      9  C   UNL     1      -7.668   3.189 122.135  0.00  0.00    +0.000 A 
ATOM     10  C   UNL     1      -8.682   3.603 121.321  0.00  0.00    +0.000 A 
ATOM     11  C   UNL     1      -8.753   3.966 119.995  0.00  0.00    +0.000 A 
ATOM     12  C   UNL     1      -7.558   4.236 119.441  0.00  0.00    +0.000 A 
ATOM     13  C   UNL     1      -6.418   4.052 120.247  0.00  0.00    +0.000 A 
ATOM     14  C   UNL     1      -6.459   3.500 121.571  0.00  0.00    +0.000 A 
ENDBRANCH   1   9
BRANCH   1  15
ATOM     15  C   UNL     1      -7.826   3.526 124.632  0.00  0.00    +0.000 C 
ATOM     16  O   UNL     1      -8.756   4.170 125.141  0.00  0.00    +0.000 OA
BRANCH  15  17
ATOM     17  O   UNL     1      -6.534   3.658 125.045  0.00  0.00    +0.000 OA
ATOM     18  C   UNL     1      -5.936   2.400 125.394  0.00  0.00    +0.000 C 
ENDBRANCH  15  17
ENDBRANCH   1  15
TORSDOF 4
ENDMDL
MODEL 4
REMARK VINA RESULT:      -6.5      9.281     10.877
REMARK  Name = Dexmethylphenidate
REMARK  5 active torsions:
REMARK  status: ('A' for Active; 'I' for Inactive)
REMARK    1  A    between atoms: C_2  and  C_3
REMARK    2  A    between atoms: C_2  and  C_7
REMARK    3  A    between atoms: C_2  and  C_13
REMARK    4  A    between atoms: C_3  and  O_5
REMARK    5  A    between atoms: O_5  and  C_6
REMARK                            x       y       z     vdW  Elec       q    Type
REMARK                         _______ _______ _______ _____ _____    ______ ____
ROOT
ATOM      1  C   UNL     1      -8.014  -2.215 125.354  0.00  0.00    +0.000 C 
ENDROOT
BRANCH   1   2
ATOM      2  C   UNL     1      -6.664  -1.397 124.880  0.00  0.00    +0.000 C 
ATOM      3  C   UNL     1      -5.306  -2.074 125.235  0.00  0.00    +0.000 C 
ATOM      4  C   UNL     1      -4.981  -3.271 124.365  0.00  0.00    +0.000 C 
ATOM      5  C   UNL     1      -5.176  -2.867 122.826  0.00  0.00    +0.000 C 
ATOM      6  C   UNL     1      -6.379  -1.858 122.469  0.00  0.00    +0.000 C 
ATOM      7  N   UNL     1      -6.573  -0.839 123.495  0.00  0.00    +0.000 NA
ATOM      8  H   UNL     1      -7.424  -0.313 123.284  0.00  0.00    +0.000 HD
ENDBRANCH   1   2
BRANCH   1   9
ATOM      9  C   UNL     1      -8.232  -2.628 126.837  0.00  0.00    +0.000 A 
ATOM     10  C   UNL     1      -7.737  -1.834 127.831  0.00  0.00    +0.000 A 
ATOM     11  C   UNL     1      -7.511  -2.021 129.176  0.00  0.00    +0.000 A 
ATOM     12  C   UNL     1      -8.146  -3.088 129.691  0.00  0.00    +0.000 A 
ATOM     13  C   UNL     1      -8.883  -3.891 128.800  0.00  0.00    +0.000 A 
ATOM     14  C   UNL     1      -8.902  -3.693 127.379  0.00  0.00    +0.000 A 
ENDBRANCH   1   9
BRANCH   1  15
ATOM     15  C   UNL     1      -9.241  -1.451 124.844  0.00  0.00    +0.000 C 
ATOM     16  O   UNL     1      -9.803  -0.545 125.478  0.00  0.00    +0.000 OA
BRANCH  15  17
ATOM     17  O   UNL     1      -9.669  -1.859 123.616  0.00  0.00    +0.000 OA
ATOM     18  C   UNL     1      -9.589  -3.283 123.449  0.00  0.00    +0.000 C 
ENDBRANCH  15  17
ENDBRANCH   1  15
TORSDOF 4
ENDMDL
MODEL 5
REMARK VINA RESULT:      -6.5      8.038     10.249
REMARK  Name = Dexmethylphenidate
REMARK  5 active torsions:
REMARK  status: ('A' for Active; 'I' for Inactive)
REMARK    1  A    between atoms: C_2  and  C_3
REMARK    2  A    between atoms: C_2  and  C_7
REMARK    3  A    between atoms: C_2  and  C_13
REMARK    4  A    between atoms: C_3  and  O_5
REMARK    5  A    between atoms: O_5  and  C_6
REMARK                            x       y       z     vdW  Elec       q    Type
REMARK                         _______ _______ _______ _____ _____    ______ ____
ROOT
ATOM      1  C   UNL     1      -8.171  -1.044 125.367  0.00  0.00    +0.000 C 
ENDROOT
BRANCH   1   2
ATOM      2  C   UNL     1      -6.775  -0.569 124.632  0.00  0.00    +0.000 C 
ATOM      3  C   UNL     1      -5.472  -1.242 125.158  0.00  0.00    +0.000 C 
ATOM      4  C   UNL     1      -5.310  -2.681 124.710  0.00  0.00    +0.000 C 
ATOM      5  C   UNL     1      -5.546  -2.763 123.126  0.00  0.00    +0.000 C 
ATOM      6  C   UNL     1      -6.662  -1.794 122.489  0.00  0.00    +0.000 C 
ATOM      7  N   UNL     1      -6.704  -0.490 123.139  0.00  0.00    +0.000 NA
ATOM      8  H   UNL     1      -7.509   0.033 122.788  0.00  0.00    +0.000 HD
ENDBRANCH   1   2
BRANCH   1   9
ATOM      9  C   UNL     1      -8.156  -1.780 126.737  0.00  0.00    +0.000 A 
ATOM     10  C   UNL     1      -8.579  -3.076 126.804  0.00  0.00    +0.000 A 
ATOM     11  C   UNL     1      -8.946  -3.907 127.838  0.00  0.00    +0.000 A 
ATOM     12  C   UNL     1      -8.560  -3.469 129.049  0.00  0.00    +0.000 A 
ATOM     13  C   UNL     1      -7.910  -2.221 129.106  0.00  0.00    +0.000 A 
ATOM     14  C   UNL     1      -7.737  -1.360 127.972  0.00  0.00    +0.000 A 
ENDBRANCH   1   9
BRANCH   1  15
ATOM     15  C   UNL     1      -9.112   0.163 125.439  0.00  0.00    +0.000 C 
ATOM     16  O   UNL     1     -10.310   0.088 125.751  0.00  0.00    +0.000 OA
BRANCH  15  17
ATOM     17  O   UNL     1      -8.511   1.346 125.127  0.00  0.00    +0.000 OA
ATOM     18  C   UNL     1      -9.271   2.119 124.185  0.00  0.00    +0.000 C 
ENDBRANCH  15  17
ENDBRANCH   1  15
TORSDOF 4
ENDMDL
MODEL 6
REMARK VINA RESULT:      -6.1      7.996      9.772
REMARK  Name = Dexmethylphenidate
REMARK  5 active torsions:
REMARK  status: ('A' for Active; 'I' for Inactive)
REMARK    1  A    between atoms: C_2  and  C_3
REMARK    2  A    between atoms: C_2  and  C_7
REMARK    3  A    between atoms: C_2  and  C_13
REMARK    4  A    between atoms: C_3  and  O_5
REMARK    5  A    between atoms: O_5  and  C_6
REMARK                            x       y       z     vdW  Elec       q    Type
REMARK                         _______ _______ _______ _____ _____    ______ ____
ROOT
ATOM      1  C   UNL     1      -7.971  -1.715 125.104  0.00  0.00    +0.000 C 
ENDROOT
BRANCH   1   2
ATOM      2  C   UNL     1      -8.978  -0.537 124.544  0.00  0.00    +0.000 C 
ATOM      3  C   UNL     1      -9.524   0.451 125.618  0.00  0.00    +0.000 C 
ATOM      4  C   UNL     1      -8.494   1.453 126.099  0.00  0.00    +0.000 C 
ATOM      5  C   UNL     1      -7.787   2.127 124.828  0.00  0.00    +0.000 C 
ATOM      6  C   UNL     1      -7.532   1.197 123.539  0.00  0.00    +0.000 C 
ATOM      7  N   UNL     1      -8.612   0.241 123.320  0.00  0.00    +0.000 NA
ATOM      8  H   UNL     1      -8.339  -0.404 122.575  0.00  0.00    +0.000 HD
ENDBRANCH   1   2
BRANCH   1   9
ATOM      9  C   UNL     1      -8.223  -2.414 126.471  0.00  0.00    +0.000 A 
ATOM     10  C   UNL     1      -7.593  -1.944 127.587  0.00  0.00    +0.000 A 
ATOM     11  C   UNL     1      -7.375  -2.457 128.845  0.00  0.00    +0.000 A 
ATOM     12  C   UNL     1      -8.157  -3.508 129.147  0.00  0.00    +0.000 A 
ATOM     13  C   UNL     1      -9.025  -3.975 128.141  0.00  0.00    +0.000 A 
ATOM     14  C   UNL     1      -9.039  -3.463 126.800  0.00  0.00    +0.000 A 
ENDBRANCH   1   9
BRANCH   1  15
ATOM     15  C   UNL     1      -7.808  -2.770 124.006  0.00  0.00    +0.000 C 
ATOM     16  O   UNL     1      -8.625  -2.943 123.088  0.00  0.00    +0.000 OA
BRANCH  15  17
ATOM     17  O   UNL     1      -6.672  -3.515 124.123  0.00  0.00    +0.000 OA
ATOM     18  C   UNL     1      -5.493  -2.782 123.756  0.00  0.00    +0.000 C 
ENDBRANCH  15  17
ENDBRANCH   1  15
TORSDOF 4
ENDMDL
MODEL 7
REMARK VINA RESULT:      -6.0      7.734      9.445
REMARK  Name = Dexmethylphenidate
REMARK  5 active torsions:
REMARK  status: ('A' for Active; 'I' for Inactive)
REMARK    1  A    between atoms: C_2  and  C_3
REMARK    2  A    between atoms: C_2  and  C_7
REMARK    3  A    between atoms: C_2  and  C_13
REMARK    4  A    between atoms: C_3  and  O_5
REMARK    5  A    between atoms: O_5  and  C_6
REMARK                            x       y       z     vdW  Elec       q    Type
REMARK                         _______ _______ _______ _____ _____    ______ ____
ROOT
ATOM      1  C   UNL     1      -8.304  -1.291 125.250  0.00  0.00    +0.000 C 
ENDROOT
BRANCH   1   2
ATOM      2  C   UNL     1      -9.453  -0.111 125.204  0.00  0.00    +0.000 C 
ATOM      3  C   UNL     1      -9.257   1.063 126.209  0.00  0.00    +0.000 C 
ATOM      4  C   UNL     1      -8.149   2.019 125.814  0.00  0.00    +0.000 C 
ATOM      5  C   UNL     1      -8.346   2.441 124.279  0.00  0.00    +0.000 C 
ATOM      6  C   UNL     1      -8.906   1.322 123.267  0.00  0.00    +0.000 C 
ATOM      7  N   UNL     1      -9.897   0.452 123.891  0.00  0.00    +0.000 NA
ATOM      8  H   UNL     1     -10.119  -0.313 123.250  0.00  0.00    +0.000 HD
ENDBRANCH   1   2
BRANCH   1   9
ATOM      9  C   UNL     1      -7.991  -2.066 126.562  0.00  0.00    +0.000 A 
ATOM     10  C   UNL     1      -8.753  -3.148 126.895  0.00  0.00    +0.000 A 
ATOM     11  C   UNL     1      -8.932  -3.867 128.055  0.00  0.00    +0.000 A 
ATOM     12  C   UNL     1      -7.979  -3.653 128.979  0.00  0.00    +0.000 A 
ATOM     13  C   UNL     1      -6.989  -2.698 128.675  0.00  0.00    +0.000 A 
ATOM     14  C   UNL     1      -7.007  -1.881 127.496  0.00  0.00    +0.000 A 
ENDBRANCH   1   9
BRANCH   1  15
ATOM     15  C   UNL     1      -8.588  -2.283 124.118  0.00  0.00    +0.000 C 
ATOM     16  O   UNL     1      -9.727  -2.560 123.713  0.00  0.00    +0.000 OA
BRANCH  15  17
ATOM     17  O   UNL     1      -7.466  -2.843 123.585  0.00  0.00    +0.000 OA
ATOM     18  C   UNL     1      -6.631  -1.881 122.922  0.00  0.00    +0.000 C 
ENDBRANCH  15  17
ENDBRANCH   1  15
TORSDOF 4
ENDMDL
MODEL 8
REMARK VINA RESULT:      -6.0      6.797      9.447
REMARK  Name = Dexmethylphenidate
REMARK  5 active torsions:
REMARK  status: ('A' for Active; 'I' for Inactive)
REMARK    1  A    between atoms: C_2  and  C_3
REMARK    2  A    between atoms: C_2  and  C_7
REMARK    3  A    between atoms: C_2  and  C_13
REMARK    4  A    between atoms: C_3  and  O_5
REMARK    5  A    between atoms: O_5  and  C_6
REMARK                            x       y       z     vdW  Elec       q    Type
REMARK                         _______ _______ _______ _____ _____    ______ ____
ROOT
ATOM      1  C   UNL     1      -7.806   0.548 124.680  0.00  0.00    +0.000 C 
ENDROOT
BRANCH   1   2
ATOM      2  C   UNL     1      -7.492   1.605 125.905  0.00  0.00    +0.000 C 
ATOM      3  C   UNL     1      -6.021   2.108 126.002  0.00  0.00    +0.000 C 
ATOM      4  C   UNL     1      -5.655   3.118 124.932  0.00  0.00    +0.000 C 
ATOM      5  C   UNL     1      -6.780   4.259 124.884  0.00  0.00    +0.000 C 
ATOM      6  C   UNL     1      -8.304   3.812 125.147  0.00  0.00    +0.000 C 
ATOM      7  N   UNL     1      -8.411   2.760 126.151  0.00  0.00    +0.000 NA
ATOM      8  H   UNL     1      -9.376   2.426 126.182  0.00  0.00    +0.000 HD
ENDBRANCH   1   2
BRANCH   1   9
ATOM      9  C   UNL     1      -6.834  -0.621 124.350  0.00  0.00    +0.000 A 
ATOM     10  C   UNL     1      -6.660  -0.998 123.050  0.00  0.00    +0.000 A 
ATOM     11  C   UNL     1      -6.123  -2.110 122.444  0.00  0.00    +0.000 A 
ATOM     12  C   UNL     1      -5.369  -2.864 123.262  0.00  0.00    +0.000 A 
ATOM     13  C   UNL     1      -5.285  -2.465 124.610  0.00  0.00    +0.000 A 
ATOM     14  C   UNL     1      -6.036  -1.377 125.167  0.00  0.00    +0.000 A 
ENDBRANCH   1   9
BRANCH   1  15
ATOM     15  C   UNL     1      -9.226   0.003 124.868  0.00  0.00    +0.000 C 
ATOM     16  O   UNL     1      -9.482  -1.081 125.413  0.00  0.00    +0.000 OA
BRANCH  15  17
ATOM     17  O   UNL     1     -10.197   0.823 124.378  0.00  0.00    +0.000 OA
ATOM     18  C   UNL     1     -10.053   1.070 122.971  0.00  0.00    +0.000 C 
ENDBRANCH  15  17
ENDBRANCH   1  15
TORSDOF 4
ENDMDL
MODEL 9
REMARK VINA RESULT:      -5.9      8.319     10.108
REMARK  Name = Dexmethylphenidate
REMARK  5 active torsions:
REMARK  status: ('A' for Active; 'I' for Inactive)
REMARK    1  A    between atoms: C_2  and  C_3
REMARK    2  A    between atoms: C_2  and  C_7
REMARK    3  A    between atoms: C_2  and  C_13
REMARK    4  A    between atoms: C_3  and  O_5
REMARK    5  A    between atoms: O_5  and  C_6
REMARK                            x       y       z     vdW  Elec       q    Type
REMARK                         _______ _______ _______ _____ _____    ______ ____
ROOT
ATOM      1  C   UNL     1      -7.570  -1.156 126.091  0.00  0.00    +0.000 C 
ENDROOT
BRANCH   1   2
ATOM      2  C   UNL     1      -7.132  -1.670 124.588  0.00  0.00    +0.000 C 
ATOM      3  C   UNL     1      -7.078  -3.214 124.391  0.00  0.00    +0.000 C 
ATOM      4  C   UNL     1      -8.446  -3.860 124.297  0.00  0.00    +0.000 C 
ATOM      5  C   UNL     1      -9.334  -3.053 123.234  0.00  0.00    +0.000 C 
ATOM      6  C   UNL     1      -9.140  -1.456 123.164  0.00  0.00    +0.000 C 
ATOM      7  N   UNL     1      -7.755  -1.053 123.375  0.00  0.00    +0.000 NA
ATOM      8  H   UNL     1      -7.712  -0.035 123.450  0.00  0.00    +0.000 HD
ENDBRANCH   1   2
BRANCH   1   9
ATOM      9  C   UNL     1      -7.239  -1.991 127.360  0.00  0.00    +0.000 A 
ATOM     10  C   UNL     1      -8.224  -2.731 127.949  0.00  0.00    +0.000 A 
ATOM     11  C   UNL     1      -8.355  -3.338 129.177  0.00  0.00    +0.000 A 
ATOM     12  C   UNL     1      -7.195  -3.476 129.841  0.00  0.00    +0.000 A 
ATOM     13  C   UNL     1      -6.041  -2.936 129.242  0.00  0.00    +0.000 A 
ATOM     14  C   UNL     1      -6.058  -2.167 128.031  0.00  0.00    +0.000 A 
ENDBRANCH   1   9
BRANCH   1  15
ATOM     15  C   UNL     1      -7.071   0.281 126.272  0.00  0.00    +0.000 C 
ATOM     16  O   UNL     1      -7.413   1.018 127.210  0.00  0.00    +0.000 OA
BRANCH  15  17
ATOM     17  O   UNL     1      -6.205   0.688 125.302  0.00  0.00    +0.000 OA
ATOM     18  C   UNL     1      -6.293   2.097 125.041  0.00  0.00    +0.000 C 
ENDBRANCH  15  17
ENDBRANCH   1  15
TORSDOF 4
ENDMDL
