MODEL 1
REMARK VINA RESULT:      -5.4      0.000      0.000
REMARK  Name = Dexpanthenol
REMARK  11 active torsions:
REMARK  status: ('A' for Active; 'I' for Inactive)
REMARK    1  A    between atoms: C_1  and  C_2
REMARK    2  A    between atoms: C_2  and  C_3
REMARK    3  A    between atoms: C_2  and  C_4
REMARK    4  A    between atoms: C_2  and  C_6
REMARK    5  A    between atoms: C_4  and  O_5
REMARK    6  A    between atoms: C_6  and  O_7
REMARK    7  A    between atoms: C_6  and  C_8
REMARK    8  A    between atoms: N_10  and  C_11
REMARK    9  A    between atoms: C_11  and  C_12
REMARK   10  A    between atoms: C_12  and  C_13
REMARK   11  A    between atoms: C_13  and  O_14
REMARK                            x       y       z     vdW  Elec       q    Type
REMARK                         _______ _______ _______ _____ _____    ______ ____
ROOT
ATOM      1  C   UNL     1     -11.609   6.780 129.429  0.00  0.00    +0.000 C 
ENDROOT
BRANCH   1   2
ATOM      2  C   UNL     1     -10.096   6.465 129.557  0.00  0.00    +0.000 C 
ATOM      3  O   UNL     1      -9.458   5.833 128.714  0.00  0.00    +0.000 OA
ATOM      4  N   UNL     1      -9.466   6.937 130.681  0.00  0.00    +0.000 N 
ATOM      5  H   UNL     1     -10.008   7.392 131.410  0.00  0.00    +0.000 HD
BRANCH   4   6
ATOM      6  C   UNL     1      -8.063   6.625 130.852  0.00  0.00    +0.000 C 
BRANCH   6   7
ATOM      7  C   UNL     1      -7.736   6.115 132.238  0.00  0.00    +0.000 C 
BRANCH   7   8
ATOM      8  C   UNL     1      -8.944   5.424 132.854  0.00  0.00    +0.000 C 
BRANCH   8   9
ATOM      9  O   UNL     1      -9.788   6.392 133.461  0.00  0.00    +0.000 OA
ATOM     10  H   UNL     1      -9.266   6.853 134.141  0.00  0.00    +0.000 HD
ENDBRANCH   8   9
ENDBRANCH   7   8
ENDBRANCH   6   7
ENDBRANCH   4   6
ENDBRANCH   1   2
BRANCH   1  12
ATOM     11  C   UNL     1     -10.596   8.621 127.977  0.00  0.00    +0.000 C 
ATOM     12  C   UNL     1     -11.898   7.877 128.354  0.00  0.00    +0.000 C 
ATOM     13  C   UNL     1     -12.882   8.938 128.903  0.00  0.00    +0.000 C 
BRANCH  12  14
ATOM     14  C   UNL     1     -12.453   7.210 127.067  0.00  0.00    +0.000 C 
BRANCH  14  15
ATOM     15  O   UNL     1     -11.437   6.509 126.358  0.00  0.00    +0.000 OA
ATOM     16  H   UNL     1     -10.774   6.231 127.013  0.00  0.00    +0.000 HD
ENDBRANCH  14  15
ENDBRANCH  12  14
ENDBRANCH   1  12
BRANCH   1  17
ATOM     17  O   UNL     1     -12.341   5.579 129.167  0.00  0.00    +0.000 OA
ATOM     18  H   UNL     1     -13.198   5.650 129.622  0.00  0.00    +0.000 HD
ENDBRANCH   1  17
TORSDOF 9
ENDMDL
MODEL 2
REMARK VINA RESULT:      -5.1      1.633      4.841
REMARK  Name = Dexpanthenol
REMARK  11 active torsions:
REMARK  status: ('A' for Active; 'I' for Inactive)
REMARK    1  A    between atoms: C_1  and  C_2
REMARK    2  A    between atoms: C_2  and  C_3
REMARK    3  A    between atoms: C_2  and  C_4
REMARK    4  A    between atoms: C_2  and  C_6
REMARK    5  A    between atoms: C_4  and  O_5
REMARK    6  A    between atoms: C_6  and  O_7
REMARK    7  A    between atoms: C_6  and  C_8
REMARK    8  A    between atoms: N_10  and  C_11
REMARK    9  A    between atoms: C_11  and  C_12
REMARK   10  A    between atoms: C_12  and  C_13
REMARK   11  A    between atoms: C_13  and  O_14
REMARK                            x       y       z     vdW  Elec       q    Type
REMARK                         _______ _______ _______ _____ _____    ______ ____
ROOT
ATOM      1  C   UNL     1     -10.789   5.691 131.259  0.00  0.00    +0.000 C 
ENDROOT
BRANCH   1   2
ATOM      2  C   UNL     1     -11.966   6.447 130.590  0.00  0.00    +0.000 C 
ATOM      3  O   UNL     1     -12.686   7.251 131.185  0.00  0.00    +0.000 OA
ATOM      4  N   UNL     1     -12.184   6.186 129.261  0.00  0.00    +0.000 N 
ATOM      5  H   UNL     1     -11.639   5.470 128.791  0.00  0.00    +0.000 HD
BRANCH   4   6
ATOM      6  C   UNL     1     -13.301   6.845 128.616  0.00  0.00    +0.000 C 
BRANCH   6   7
ATOM      7  C   UNL     1     -13.045   7.148 127.156  0.00  0.00    +0.000 C 
BRANCH   7   8
ATOM      8  C   UNL     1     -11.594   7.552 126.940  0.00  0.00    +0.000 C 
BRANCH   8   9
ATOM      9  O   UNL     1     -10.876   6.465 126.373  0.00  0.00    +0.000 OA
ATOM     10  H   UNL     1     -11.254   6.290 125.493  0.00  0.00    +0.000 HD
ENDBRANCH   8   9
ENDBRANCH   7   8
ENDBRANCH   6   7
ENDBRANCH   4   6
ENDBRANCH   1   2
BRANCH   1  12
ATOM     11  C   UNL     1      -8.380   6.280 131.869  0.00  0.00    +0.000 C 
ATOM     12  C   UNL     1      -9.400   6.153 130.714  0.00  0.00    +0.000 C 
ATOM     13  C   UNL     1      -9.507   7.547 130.050  0.00  0.00    +0.000 C 
BRANCH  12  14
ATOM     14  C   UNL     1      -8.856   5.097 129.715  0.00  0.00    +0.000 C 
BRANCH  14  15
ATOM     15  O   UNL     1      -9.177   5.431 128.369  0.00  0.00    +0.000 OA
ATOM     16  H   UNL     1      -8.465   5.072 127.811  0.00  0.00    +0.000 HD
ENDBRANCH  14  15
ENDBRANCH  12  14
ENDBRANCH   1  12
BRANCH   1  17
ATOM     17  O   UNL     1     -10.867   5.819 132.681  0.00  0.00    +0.000 OA
ATOM     18  H   UNL     1     -10.101   5.355 133.063  0.00  0.00    +0.000 HD
ENDBRANCH   1  17
TORSDOF 9
ENDMDL
MODEL 3
REMARK VINA RESULT:      -5.1      1.657      2.231
REMARK  Name = Dexpanthenol
REMARK  11 active torsions:
REMARK  status: ('A' for Active; 'I' for Inactive)
REMARK    1  A    between atoms: C_1  and  C_2
REMARK    2  A    between atoms: C_2  and  C_3
REMARK    3  A    between atoms: C_2  and  C_4
REMARK    4  A    between atoms: C_2  and  C_6
REMARK    5  A    between atoms: C_4  and  O_5
REMARK    6  A    between atoms: C_6  and  O_7
REMARK    7  A    between atoms: C_6  and  C_8
REMARK    8  A    between atoms: N_10  and  C_11
REMARK    9  A    between atoms: C_11  and  C_12
REMARK   10  A    between atoms: C_12  and  C_13
REMARK   11  A    between atoms: C_13  and  O_14
REMARK                            x       y       z     vdW  Elec       q    Type
REMARK                         _______ _______ _______ _____ _____    ______ ____
ROOT
ATOM      1  C   UNL     1     -12.144   7.726 130.166  0.00  0.00    +0.000 C 
ENDROOT
BRANCH   1   2
ATOM      2  C   UNL     1     -10.974   6.708 130.119  0.00  0.00    +0.000 C 
ATOM      3  O   UNL     1     -11.104   5.538 129.754  0.00  0.00    +0.000 OA
ATOM      4  N   UNL     1      -9.743   7.174 130.505  0.00  0.00    +0.000 N 
ATOM      5  H   UNL     1      -9.652   8.114 130.875  0.00  0.00    +0.000 HD
BRANCH   4   6
ATOM      6  C   UNL     1      -8.638   6.238 130.512  0.00  0.00    +0.000 C 
BRANCH   6   7
ATOM      7  C   UNL     1      -7.891   6.217 131.827  0.00  0.00    +0.000 C 
BRANCH   7   8
ATOM      8  C   UNL     1      -8.710   5.512 132.899  0.00  0.00    +0.000 C 
BRANCH   8   9
ATOM      9  O   UNL     1      -9.730   6.382 133.367  0.00  0.00    +0.000 OA
ATOM     10  H   UNL     1      -9.709   7.184 132.818  0.00  0.00    +0.000 HD
ENDBRANCH   8   9
ENDBRANCH   7   8
ENDBRANCH   6   7
ENDBRANCH   4   6
ENDBRANCH   1   2
BRANCH   1  12
ATOM     11  C   UNL     1     -13.555   7.208 128.101  0.00  0.00    +0.000 C 
ATOM     12  C   UNL     1     -12.567   8.210 128.741  0.00  0.00    +0.000 C 
ATOM     13  C   UNL     1     -11.339   8.296 127.803  0.00  0.00    +0.000 C 
BRANCH  12  14
ATOM     14  C   UNL     1     -13.287   9.580 128.850  0.00  0.00    +0.000 C 
BRANCH  14  15
ATOM     15  O   UNL     1     -13.170  10.134 130.157  0.00  0.00    +0.000 OA
ATOM     16  H   UNL     1     -12.874   9.416 130.743  0.00  0.00    +0.000 HD
ENDBRANCH  14  15
ENDBRANCH  12  14
ENDBRANCH   1  12
BRANCH   1  17
ATOM     17  O   UNL     1     -13.249   7.173 130.885  0.00  0.00    +0.000 OA
ATOM     18  H   UNL     1     -13.009   6.267 131.147  0.00  0.00    +0.000 HD
ENDBRANCH   1  17
TORSDOF 9
ENDMDL
MODEL 4
REMARK VINA RESULT:      -5.0      1.582      2.357
REMARK  Name = Dexpanthenol
REMARK  11 active torsions:
REMARK  status: ('A' for Active; 'I' for Inactive)
REMARK    1  A    between atoms: C_1  and  C_2
REMARK    2  A    between atoms: C_2  and  C_3
REMARK    3  A    between atoms: C_2  and  C_4
REMARK    4  A    between atoms: C_2  and  C_6
REMARK    5  A    between atoms: C_4  and  O_5
REMARK    6  A    between atoms: C_6  and  O_7
REMARK    7  A    between atoms: C_6  and  C_8
REMARK    8  A    between atoms: N_10  and  C_11
REMARK    9  A    between atoms: C_11  and  C_12
REMARK   10  A    between atoms: C_12  and  C_13
REMARK   11  A    between atoms: C_13  and  O_14
REMARK                            x       y       z     vdW  Elec       q    Type
REMARK                         _______ _______ _______ _____ _____    ______ ____
ROOT
ATOM      1  C   UNL     1     -11.163   7.656 128.121  0.00  0.00    +0.000 C 
ENDROOT
BRANCH   1   2
ATOM      2  C   UNL     1     -10.103   6.858 128.925  0.00  0.00    +0.000 C 
ATOM      3  O   UNL     1      -9.636   5.781 128.553  0.00  0.00    +0.000 OA
ATOM      4  N   UNL     1      -9.683   7.417 130.106  0.00  0.00    +0.000 N 
ATOM      5  H   UNL     1     -10.122   8.266 130.447  0.00  0.00    +0.000 HD
BRANCH   4   6
ATOM      6  C   UNL     1      -8.725   6.677 130.901  0.00  0.00    +0.000 C 
BRANCH   6   7
ATOM      7  C   UNL     1      -9.304   6.171 132.203  0.00  0.00    +0.000 C 
BRANCH   7   8
ATOM      8  C   UNL     1      -9.549   4.670 132.132  0.00  0.00    +0.000 C 
BRANCH   8   9
ATOM      9  O   UNL     1     -10.617   4.404 131.234  0.00  0.00    +0.000 OA
ATOM     10  H   UNL     1     -11.395   4.897 131.547  0.00  0.00    +0.000 HD
ENDBRANCH   8   9
ENDBRANCH   7   8
ENDBRANCH   6   7
ENDBRANCH   4   6
ENDBRANCH   1   2
BRANCH   1  12
ATOM     11  C   UNL     1     -13.698   7.693 127.807  0.00  0.00    +0.000 C 
ATOM     12  C   UNL     1     -12.549   7.695 128.842  0.00  0.00    +0.000 C 
ATOM     13  C   UNL     1     -12.697   8.988 129.679  0.00  0.00    +0.000 C 
BRANCH  12  14
ATOM     14  C   UNL     1     -12.709   6.431 129.729  0.00  0.00    +0.000 C 
BRANCH  14  15
ATOM     15  O   UNL     1     -12.680   6.754 131.116  0.00  0.00    +0.000 OA
ATOM     16  H   UNL     1     -13.525   6.455 131.493  0.00  0.00    +0.000 HD
ENDBRANCH  14  15
ENDBRANCH  12  14
ENDBRANCH   1  12
BRANCH   1  17
ATOM     17  O   UNL     1     -10.679   8.972 127.838  0.00  0.00    +0.000 OA
ATOM     18  H   UNL     1     -11.082   9.262 127.001  0.00  0.00    +0.000 HD
ENDBRANCH   1  17
TORSDOF 9
ENDMDL
MODEL 5
REMARK VINA RESULT:      -4.9      1.757      2.444
REMARK  Name = Dexpanthenol
REMARK  11 active torsions:
REMARK  status: ('A' for Active; 'I' for Inactive)
REMARK    1  A    between atoms: C_1  and  C_2
REMARK    2  A    between atoms: C_2  and  C_3
REMARK    3  A    between atoms: C_2  and  C_4
REMARK    4  A    between atoms: C_2  and  C_6
REMARK    5  A    between atoms: C_4  and  O_5
REMARK    6  A    between atoms: C_6  and  O_7
REMARK    7  A    between atoms: C_6  and  C_8
REMARK    8  A    between atoms: N_10  and  C_11
REMARK    9  A    between atoms: C_11  and  C_12
REMARK   10  A    between atoms: C_12  and  C_13
REMARK   11  A    between atoms: C_13  and  O_14
REMARK                            x       y       z     vdW  Elec       q    Type
REMARK                         _______ _______ _______ _____ _____    ______ ____
ROOT
ATOM      1  C   UNL     1     -12.075   7.389 130.560  0.00  0.00    +0.000 C 
ENDROOT
BRANCH   1   2
ATOM      2  C   UNL     1     -11.247   6.086 130.405  0.00  0.00    +0.000 C 
ATOM      3  O   UNL     1     -11.608   5.126 129.722  0.00  0.00    +0.000 OA
ATOM      4  N   UNL     1     -10.050   6.039 131.075  0.00  0.00    +0.000 N 
ATOM      5  H   UNL     1      -9.789   6.799 131.696  0.00  0.00    +0.000 HD
BRANCH   4   6
ATOM      6  C   UNL     1      -9.272   4.821 130.986  0.00  0.00    +0.000 C 
BRANCH   6   7
ATOM      7  C   UNL     1      -7.972   5.006 130.236  0.00  0.00    +0.000 C 
BRANCH   7   8
ATOM      8  C   UNL     1      -8.098   4.490 128.809  0.00  0.00    +0.000 C 
BRANCH   8   9
ATOM      9  O   UNL     1      -8.986   5.325 128.079  0.00  0.00    +0.000 OA
ATOM     10  H   UNL     1      -8.641   5.400 127.172  0.00  0.00    +0.000 HD
ENDBRANCH   8   9
ENDBRANCH   7   8
ENDBRANCH   6   7
ENDBRANCH   4   6
ENDBRANCH   1   2
BRANCH   1  12
ATOM     11  C   UNL     1     -10.945   8.301 128.459  0.00  0.00    +0.000 C 
ATOM     12  C   UNL     1     -12.292   8.119 129.195  0.00  0.00    +0.000 C 
ATOM     13  C   UNL     1     -12.881   9.532 129.416  0.00  0.00    +0.000 C 
BRANCH  12  14
ATOM     14  C   UNL     1     -13.215   7.261 128.289  0.00  0.00    +0.000 C 
BRANCH  14  15
ATOM     15  O   UNL     1     -12.491   6.654 127.224  0.00  0.00    +0.000 OA
ATOM     16  H   UNL     1     -12.984   6.837 126.406  0.00  0.00    +0.000 HD
ENDBRANCH  14  15
ENDBRANCH  12  14
ENDBRANCH   1  12
BRANCH   1  17
ATOM     17  O   UNL     1     -13.316   7.109 131.212  0.00  0.00    +0.000 OA
ATOM     18  H   UNL     1     -13.821   7.939 131.258  0.00  0.00    +0.000 HD
ENDBRANCH   1  17
TORSDOF 9
ENDMDL
MODEL 6
REMARK VINA RESULT:      -4.8      1.413      5.213
REMARK  Name = Dexpanthenol
REMARK  11 active torsions:
REMARK  status: ('A' for Active; 'I' for Inactive)
REMARK    1  A    between atoms: C_1  and  C_2
REMARK    2  A    between atoms: C_2  and  C_3
REMARK    3  A    between atoms: C_2  and  C_4
REMARK    4  A    between atoms: C_2  and  C_6
REMARK    5  A    between atoms: C_4  and  O_5
REMARK    6  A    between atoms: C_6  and  O_7
REMARK    7  A    between atoms: C_6  and  C_8
REMARK    8  A    between atoms: N_10  and  C_11
REMARK    9  A    between atoms: C_11  and  C_12
REMARK   10  A    between atoms: C_12  and  C_13
REMARK   11  A    between atoms: C_13  and  O_14
REMARK                            x       y       z     vdW  Elec       q    Type
REMARK                         _______ _______ _______ _____ _____    ______ ____
ROOT
ATOM      1  C   UNL     1     -11.055   5.867 131.465  0.00  0.00    +0.000 C 
ENDROOT
BRANCH   1   2
ATOM      2  C   UNL     1     -11.590   6.311 130.079  0.00  0.00    +0.000 C 
ATOM      3  O   UNL     1     -12.015   5.526 129.230  0.00  0.00    +0.000 OA
ATOM      4  N   UNL     1     -11.579   7.659 129.821  0.00  0.00    +0.000 N 
ATOM      5  H   UNL     1     -11.160   8.297 130.491  0.00  0.00    +0.000 HD
BRANCH   4   6
ATOM      6  C   UNL     1     -12.033   8.103 128.520  0.00  0.00    +0.000 C 
BRANCH   6   7
ATOM      7  C   UNL     1     -10.897   8.359 127.555  0.00  0.00    +0.000 C 
BRANCH   7   8
ATOM      8  C   UNL     1     -10.943   7.369 126.399  0.00  0.00    +0.000 C 
BRANCH   8   9
ATOM      9  O   UNL     1     -12.144   6.614 126.467  0.00  0.00    +0.000 OA
ATOM     10  H   UNL     1     -12.054   5.982 127.201  0.00  0.00    +0.000 HD
ENDBRANCH   8   9
ENDBRANCH   7   8
ENDBRANCH   6   7
ENDBRANCH   4   6
ENDBRANCH   1   2
BRANCH   1  12
ATOM     11  C   UNL     1      -8.721   6.809 131.029  0.00  0.00    +0.000 C 
ATOM     12  C   UNL     1      -9.525   5.553 131.438  0.00  0.00    +0.000 C 
ATOM     13  C   UNL     1      -9.208   4.455 130.394  0.00  0.00    +0.000 C 
BRANCH  12  14
ATOM     14  C   UNL     1      -9.055   5.131 132.856  0.00  0.00    +0.000 C 
BRANCH  14  15
ATOM     15  O   UNL     1      -9.096   6.221 133.770  0.00  0.00    +0.000 OA
ATOM     16  H   UNL     1      -9.004   7.035 133.245  0.00  0.00    +0.000 HD
ENDBRANCH  14  15
ENDBRANCH  12  14
ENDBRANCH   1  12
BRANCH   1  17
ATOM     17  O   UNL     1     -11.374   6.850 132.454  0.00  0.00    +0.000 OA
ATOM     18  H   UNL     1     -10.537   7.199 132.806  0.00  0.00    +0.000 HD
ENDBRANCH   1  17
TORSDOF 9
ENDMDL
MODEL 7
REMARK VINA RESULT:      -4.8      1.812      4.979
REMARK  Name = Dexpanthenol
REMARK  11 active torsions:
REMARK  status: ('A' for Active; 'I' for Inactive)
REMARK    1  A    between atoms: C_1  and  C_2
REMARK    2  A    between atoms: C_2  and  C_3
REMARK    3  A    between atoms: C_2  and  C_4
REMARK    4  A    between atoms: C_2  and  C_6
REMARK    5  A    between atoms: C_4  and  O_5
REMARK    6  A    between atoms: C_6  and  O_7
REMARK    7  A    between atoms: C_6  and  C_8
REMARK    8  A    between atoms: N_10  and  C_11
REMARK    9  A    between atoms: C_11  and  C_12
REMARK   10  A    between atoms: C_12  and  C_13
REMARK   11  A    between atoms: C_13  and  O_14
REMARK                            x       y       z     vdW  Elec       q    Type
REMARK                         _______ _______ _______ _____ _____    ______ ____
ROOT
ATOM      1  C   UNL     1     -10.012   4.813 130.427  0.00  0.00    +0.000 C 
ENDROOT
BRANCH   1   2
ATOM      2  C   UNL     1     -11.075   5.763 129.817  0.00  0.00    +0.000 C 
ATOM      3  O   UNL     1     -11.077   6.114 128.635  0.00  0.00    +0.000 OA
ATOM      4  N   UNL     1     -12.054   6.213 130.667  0.00  0.00    +0.000 N 
ATOM      5  H   UNL     1     -12.008   5.984 131.655  0.00  0.00    +0.000 HD
BRANCH   4   6
ATOM      6  C   UNL     1     -13.038   7.135 130.139  0.00  0.00    +0.000 C 
BRANCH   6   7
ATOM      7  C   UNL     1     -12.726   8.579 130.461  0.00  0.00    +0.000 C 
BRANCH   7   8
ATOM      8  C   UNL     1     -12.830   9.442 129.211  0.00  0.00    +0.000 C 
BRANCH   8   9
ATOM      9  O   UNL     1     -11.959   8.936 128.210  0.00  0.00    +0.000 OA
ATOM     10  H   UNL     1     -11.285   8.392 128.653  0.00  0.00    +0.000 HD
ENDBRANCH   8   9
ENDBRANCH   7   8
ENDBRANCH   6   7
ENDBRANCH   4   6
ENDBRANCH   1   2
BRANCH   1  12
ATOM     11  C   UNL     1      -8.836   7.067 130.670  0.00  0.00    +0.000 C 
ATOM     12  C   UNL     1      -8.855   5.592 131.132  0.00  0.00    +0.000 C 
ATOM     13  C   UNL     1      -7.480   4.985 130.764  0.00  0.00    +0.000 C 
BRANCH  12  14
ATOM     14  C   UNL     1      -9.080   5.579 132.667  0.00  0.00    +0.000 C 
BRANCH  14  15
ATOM     15  O   UNL     1     -10.183   6.398 133.044  0.00  0.00    +0.000 OA
ATOM     16  H   UNL     1     -10.190   7.160 132.439  0.00  0.00    +0.000 HD
ENDBRANCH  14  15
ENDBRANCH  12  14
ENDBRANCH   1  12
BRANCH   1  17
ATOM     17  O   UNL     1     -10.636   3.880 131.313  0.00  0.00    +0.000 OA
ATOM     18  H   UNL     1      -9.932   3.411 131.794  0.00  0.00    +0.000 HD
ENDBRANCH   1  17
TORSDOF 9
ENDMDL
MODEL 8
REMARK VINA RESULT:      -4.7      2.039      2.213
REMARK  Name = Dexpanthenol
REMARK  11 active torsions:
REMARK  status: ('A' for Active; 'I' for Inactive)
REMARK    1  A    between atoms: C_1  and  C_2
REMARK    2  A    between atoms: C_2  and  C_3
REMARK    3  A    between atoms: C_2  and  C_4
REMARK    4  A    between atoms: C_2  and  C_6
REMARK    5  A    between atoms: C_4  and  O_5
REMARK    6  A    between atoms: C_6  and  O_7
REMARK    7  A    between atoms: C_6  and  C_8
REMARK    8  A    between atoms: N_10  and  C_11
REMARK    9  A    between atoms: C_11  and  C_12
REMARK   10  A    between atoms: C_12  and  C_13
REMARK   11  A    between atoms: C_13  and  O_14
REMARK                            x       y       z     vdW  Elec       q    Type
REMARK                         _______ _______ _______ _____ _____    ______ ____
ROOT
ATOM      1  C   UNL     1     -12.004   7.604 130.815  0.00  0.00    +0.000 C 
ENDROOT
BRANCH   1   2
ATOM      2  C   UNL     1     -10.803   6.623 130.835  0.00  0.00    +0.000 C 
ATOM      3  O   UNL     1      -9.717   6.886 131.356  0.00  0.00    +0.000 OA
ATOM      4  N   UNL     1     -10.998   5.404 130.237  0.00  0.00    +0.000 N 
ATOM      5  H   UNL     1     -11.866   5.216 129.745  0.00  0.00    +0.000 HD
BRANCH   4   6
ATOM      6  C   UNL     1      -9.884   4.480 130.203  0.00  0.00    +0.000 C 
BRANCH   6   7
ATOM      7  C   UNL     1     -10.177   3.175 130.910  0.00  0.00    +0.000 C 
BRANCH   7   8
ATOM      8  C   UNL     1      -9.468   3.124 132.256  0.00  0.00    +0.000 C 
BRANCH   8   9
ATOM      9  O   UNL     1      -9.836   4.257 133.030  0.00  0.00    +0.000 OA
ATOM     10  H   UNL     1      -9.908   3.969 133.957  0.00  0.00    +0.000 HD
ENDBRANCH   8   9
ENDBRANCH   7   8
ENDBRANCH   6   7
ENDBRANCH   4   6
ENDBRANCH   1   2
BRANCH   1  12
ATOM     11  C   UNL     1     -10.931   8.385 128.632  0.00  0.00    +0.000 C 
ATOM     12  C   UNL     1     -12.265   8.193 129.391  0.00  0.00    +0.000 C 
ATOM     13  C   UNL     1     -12.935   9.584 129.486  0.00  0.00    +0.000 C 
BRANCH  12  14
ATOM     14  C   UNL     1     -13.137   7.204 128.572  0.00  0.00    +0.000 C 
BRANCH  14  15
ATOM     15  O   UNL     1     -12.361   6.478 127.624  0.00  0.00    +0.000 OA
ATOM     16  H   UNL     1     -12.825   6.541 126.771  0.00  0.00    +0.000 HD
ENDBRANCH  14  15
ENDBRANCH  12  14
ENDBRANCH   1  12
BRANCH   1  17
ATOM     17  O   UNL     1     -13.170   6.966 131.344  0.00  0.00    +0.000 OA
ATOM     18  H   UNL     1     -13.907   7.598 131.282  0.00  0.00    +0.000 HD
ENDBRANCH   1  17
TORSDOF 9
ENDMDL
MODEL 9
REMARK VINA RESULT:      -4.7      1.698      2.422
REMARK  Name = Dexpanthenol
REMARK  11 active torsions:
REMARK  status: ('A' for Active; 'I' for Inactive)
REMARK    1  A    between atoms: C_1  and  C_2
REMARK    2  A    between atoms: C_2  and  C_3
REMARK    3  A    between atoms: C_2  and  C_4
REMARK    4  A    between atoms: C_2  and  C_6
REMARK    5  A    between atoms: C_4  and  O_5
REMARK    6  A    between atoms: C_6  and  O_7
REMARK    7  A    between atoms: C_6  and  C_8
REMARK    8  A    between atoms: N_10  and  C_11
REMARK    9  A    between atoms: C_11  and  C_12
REMARK   10  A    between atoms: C_12  and  C_13
REMARK   11  A    between atoms: C_13  and  O_14
REMARK                            x       y       z     vdW  Elec       q    Type
REMARK                         _______ _______ _______ _____ _____    ______ ____
ROOT
ATOM      1  C   UNL     1     -10.654   6.512 129.340  0.00  0.00    +0.000 C 
ENDROOT
BRANCH   1   2
ATOM      2  C   UNL     1     -10.577   5.189 130.147  0.00  0.00    +0.000 C 
ATOM      3  O   UNL     1     -11.391   4.271 130.030  0.00  0.00    +0.000 OA
ATOM      4  N   UNL     1      -9.530   5.069 131.026  0.00  0.00    +0.000 N 
ATOM      5  H   UNL     1      -8.904   5.854 131.176  0.00  0.00    +0.000 HD
BRANCH   4   6
ATOM      6  C   UNL     1      -9.452   3.864 131.825  0.00  0.00    +0.000 C 
BRANCH   6   7
ATOM      7  C   UNL     1      -9.160   4.142 133.283  0.00  0.00    +0.000 C 
BRANCH   7   8
ATOM      8  C   UNL     1      -8.678   5.573 133.470  0.00  0.00    +0.000 C 
BRANCH   8   9
ATOM      9  O   UNL     1      -9.792   6.454 133.475  0.00  0.00    +0.000 OA
ATOM     10  H   UNL     1      -9.451   7.360 133.576  0.00  0.00    +0.000 HD
ENDBRANCH   8   9
ENDBRANCH   7   8
ENDBRANCH   6   7
ENDBRANCH   4   6
ENDBRANCH   1   2
BRANCH   1  12
ATOM     11  C   UNL     1     -12.441   7.177 131.040  0.00  0.00    +0.000 C 
ATOM     12  C   UNL     1     -12.008   7.261 129.558  0.00  0.00    +0.000 C 
ATOM     13  C   UNL     1     -13.135   6.614 128.719  0.00  0.00    +0.000 C 
BRANCH  12  14
ATOM     14  C   UNL     1     -11.834   8.762 129.200  0.00  0.00    +0.000 C 
BRANCH  14  15
ATOM     15  O   UNL     1     -11.117   8.933 127.982  0.00  0.00    +0.000 OA
ATOM     16  H   UNL     1     -10.212   8.614 128.139  0.00  0.00    +0.000 HD
ENDBRANCH  14  15
ENDBRANCH  12  14
ENDBRANCH   1  12
BRANCH   1  17
ATOM     17  O   UNL     1      -9.534   7.344 129.651  0.00  0.00    +0.000 OA
ATOM     18  H   UNL     1      -9.648   8.185 129.173  0.00  0.00    +0.000 HD
ENDBRANCH   1  17
TORSDOF 9
ENDMDL
