MODEL 1
REMARK VINA RESULT:      -6.0      0.000      0.000
REMARK  Name = Dexrazoxane
REMARK  4 active torsions:
REMARK  status: ('A' for Active; 'I' for Inactive)
REMARK    1  A    between atoms: C_1  and  C_2
REMARK    2  A    between atoms: C_2  and  C_3
REMARK    3  A    between atoms: C_2  and  N_12
REMARK    4  A    between atoms: C_3  and  N_4
REMARK                            x       y       z     vdW  Elec       q    Type
REMARK                         _______ _______ _______ _____ _____    ______ ____
ROOT
ATOM      1  C   UNL     1      -5.356  -0.949 125.697  0.00  0.00    +0.000 C 
ATOM      2  C   UNL     1      -6.606  -0.631 124.797  0.00  0.00    +0.000 C 
ENDROOT
BRANCH   2   3
ATOM      3  N   UNL     1      -6.592  -1.688 123.720  0.00  0.00    +0.000 NA
ATOM      4  C   UNL     1      -7.576  -1.502 122.614  0.00  0.00    +0.000 C 
ATOM      5  C   UNL     1      -9.018  -1.657 123.118  0.00  0.00    +0.000 C 
ATOM      6  O   UNL     1      -9.974  -1.082 122.604  0.00  0.00    +0.000 OA
ATOM      7  N   UNL     1      -9.179  -2.462 124.219  0.00  0.00    +0.000 N 
ATOM      8  C   UNL     1      -8.198  -3.246 124.784  0.00  0.00    +0.000 C 
ATOM      9  O   UNL     1      -8.451  -3.988 125.730  0.00  0.00    +0.000 OA
ATOM     10  C   UNL     1      -6.771  -3.055 124.234  0.00  0.00    +0.000 C 
ATOM     11  H   UNL     1     -10.097  -2.480 124.641  0.00  0.00    +0.000 HD
ENDBRANCH   2   3
BRANCH   2  12
ATOM     12  C   UNL     1      -6.917   0.911 124.222  0.00  0.00    +0.000 C 
BRANCH  12  13
ATOM     13  N   UNL     1      -7.430   2.096 124.941  0.00  0.00    +0.000 NA
ATOM     14  C   UNL     1      -8.457   1.663 125.883  0.00  0.00    +0.000 C 
ATOM     15  C   UNL     1      -9.690   1.228 125.128  0.00  0.00    +0.000 C 
ATOM     16  O   UNL     1     -10.405   0.352 125.618  0.00  0.00    +0.000 OA
ATOM     17  N   UNL     1      -9.848   1.777 123.825  0.00  0.00    +0.000 N 
ATOM     18  C   UNL     1      -8.961   2.602 123.138  0.00  0.00    +0.000 C 
ATOM     19  O   UNL     1      -8.988   2.765 121.949  0.00  0.00    +0.000 OA
ATOM     20  C   UNL     1      -7.918   3.164 124.065  0.00  0.00    +0.000 C 
ATOM     21  H   UNL     1     -10.387   1.261 123.140  0.00  0.00    +0.000 HD
ENDBRANCH  12  13
ENDBRANCH   2  12
TORSDOF 3
ENDMDL
MODEL 2
REMARK VINA RESULT:      -5.6      1.708      4.851
REMARK  Name = Dexrazoxane
REMARK  4 active torsions:
REMARK  status: ('A' for Active; 'I' for Inactive)
REMARK    1  A    between atoms: C_1  and  C_2
REMARK    2  A    between atoms: C_2  and  C_3
REMARK    3  A    between atoms: C_2  and  N_12
REMARK    4  A    between atoms: C_3  and  N_4
REMARK                            x       y       z     vdW  Elec       q    Type
REMARK                         _______ _______ _______ _____ _____    ______ ____
ROOT
ATOM      1  C   UNL     1      -7.413   1.347 127.092  0.00  0.00    +0.000 C 
ATOM      2  C   UNL     1      -8.059   0.756 125.785  0.00  0.00    +0.000 C 
ENDROOT
BRANCH   2   3
ATOM      3  N   UNL     1      -9.192   1.694 125.450  0.00  0.00    +0.000 NA
ATOM      4  C   UNL     1     -10.266   1.131 124.580  0.00  0.00    +0.000 C 
ATOM      5  C   UNL     1      -9.742   0.836 123.167  0.00  0.00    +0.000 C 
ATOM      6  O   UNL     1     -10.204  -0.049 122.452  0.00  0.00    +0.000 OA
ATOM      7  N   UNL     1      -8.683   1.607 122.753  0.00  0.00    +0.000 N 
ATOM      8  C   UNL     1      -8.183   2.701 123.424  0.00  0.00    +0.000 C 
ATOM      9  O   UNL     1      -7.274   3.373 122.943  0.00  0.00    +0.000 OA
ATOM     10  C   UNL     1      -8.751   2.955 124.833  0.00  0.00    +0.000 C 
ATOM     11  H   UNL     1      -8.244   1.349 121.881  0.00  0.00    +0.000 HD
ENDBRANCH   2   3
BRANCH   2  12
ATOM     12  C   UNL     1      -8.464  -0.864 125.650  0.00  0.00    +0.000 C 
BRANCH  12  13
ATOM     13  N   UNL     1      -7.583  -2.047 125.552  0.00  0.00    +0.000 NA
ATOM     14  C   UNL     1      -6.454  -1.720 124.689  0.00  0.00    +0.000 C 
ATOM     15  C   UNL     1      -6.924  -1.593 123.261  0.00  0.00    +0.000 C 
ATOM     16  O   UNL     1      -6.328  -0.819 122.509  0.00  0.00    +0.000 OA
ATOM     17  N   UNL     1      -8.124  -2.285 122.937  0.00  0.00    +0.000 N 
ATOM     18  C   UNL     1      -8.953  -2.997 123.799  0.00  0.00    +0.000 C 
ATOM     19  O   UNL     1     -10.092  -3.277 123.548  0.00  0.00    +0.000 OA
ATOM     20  C   UNL     1      -8.265  -3.266 125.110  0.00  0.00    +0.000 C 
ATOM     21  H   UNL     1      -8.691  -1.946 122.169  0.00  0.00    +0.000 HD
ENDBRANCH  12  13
ENDBRANCH   2  12
TORSDOF 3
ENDMDL
MODEL 3
REMARK VINA RESULT:      -5.6      1.881      5.267
REMARK  Name = Dexrazoxane
REMARK  4 active torsions:
REMARK  status: ('A' for Active; 'I' for Inactive)
REMARK    1  A    between atoms: C_1  and  C_2
REMARK    2  A    between atoms: C_2  and  C_3
REMARK    3  A    between atoms: C_2  and  N_12
REMARK    4  A    between atoms: C_3  and  N_4
REMARK                            x       y       z     vdW  Elec       q    Type
REMARK                         _______ _______ _______ _____ _____    ______ ____
ROOT
ATOM      1  C   UNL     1      -5.296   1.353 126.148  0.00  0.00    +0.000 C 
ATOM      2  C   UNL     1      -6.457   1.238 125.093  0.00  0.00    +0.000 C 
ENDROOT
BRANCH   2   3
ATOM      3  N   UNL     1      -7.507   2.217 125.558  0.00  0.00    +0.000 NA
ATOM      4  C   UNL     1      -8.763   2.252 124.753  0.00  0.00    +0.000 C 
ATOM      5  C   UNL     1      -8.505   2.795 123.340  0.00  0.00    +0.000 C 
ATOM      6  O   UNL     1      -9.176   2.470 122.363  0.00  0.00    +0.000 OA
ATOM      7  N   UNL     1      -7.439   3.653 123.218  0.00  0.00    +0.000 N 
ATOM      8  C   UNL     1      -6.713   4.175 124.265  0.00  0.00    +0.000 C 
ATOM      9  O   UNL     1      -5.815   4.990 124.065  0.00  0.00    +0.000 OA
ATOM     10  C   UNL     1      -7.019   3.601 125.662  0.00  0.00    +0.000 C 
ATOM     11  H   UNL     1      -7.176   3.923 122.281  0.00  0.00    +0.000 HD
ENDBRANCH   2   3
BRANCH   2  12
ATOM     12  C   UNL     1      -7.079  -0.242 124.616  0.00  0.00    +0.000 C 
BRANCH  12  13
ATOM     13  N   UNL     1      -7.363  -0.749 123.257  0.00  0.00    +0.000 NA
ATOM     14  C   UNL     1      -8.704  -1.322 123.242  0.00  0.00    +0.000 C 
ATOM     15  C   UNL     1      -8.718  -2.605 124.036  0.00  0.00    +0.000 C 
ATOM     16  O   UNL     1      -9.759  -2.934 124.610  0.00  0.00    +0.000 OA
ATOM     17  N   UNL     1      -7.467  -3.267 124.173  0.00  0.00    +0.000 N 
ATOM     18  C   UNL     1      -6.222  -2.829 123.729  0.00  0.00    +0.000 C 
ATOM     19  O   UNL     1      -5.180  -3.253 124.146  0.00  0.00    +0.000 OA
ATOM     20  C   UNL     1      -6.366  -1.695 122.751  0.00  0.00    +0.000 C 
ATOM     21  H   UNL     1      -7.317  -3.869 124.975  0.00  0.00    +0.000 HD
ENDBRANCH  12  13
ENDBRANCH   2  12
TORSDOF 3
ENDMDL
MODEL 4
REMARK VINA RESULT:      -5.6      1.864      2.291
REMARK  Name = Dexrazoxane
REMARK  4 active torsions:
REMARK  status: ('A' for Active; 'I' for Inactive)
REMARK    1  A    between atoms: C_1  and  C_2
REMARK    2  A    between atoms: C_2  and  C_3
REMARK    3  A    between atoms: C_2  and  N_12
REMARK    4  A    between atoms: C_3  and  N_4
REMARK                            x       y       z     vdW  Elec       q    Type
REMARK                         _______ _______ _______ _____ _____    ______ ____
ROOT
ATOM      1  C   UNL     1      -5.278   0.544 126.178  0.00  0.00    +0.000 C 
ATOM      2  C   UNL     1      -6.693  -0.004 125.764  0.00  0.00    +0.000 C 
ENDROOT
BRANCH   2   3
ATOM      3  N   UNL     1      -6.458  -1.445 125.383  0.00  0.00    +0.000 NA
ATOM      4  C   UNL     1      -7.640  -2.172 124.833  0.00  0.00    +0.000 C 
ATOM      5  C   UNL     1      -8.728  -2.356 125.901  0.00  0.00    +0.000 C 
ATOM      6  O   UNL     1      -9.925  -2.433 125.633  0.00  0.00    +0.000 OA
ATOM      7  N   UNL     1      -8.285  -2.394 127.200  0.00  0.00    +0.000 N 
ATOM      8  C   UNL     1      -6.966  -2.446 127.591  0.00  0.00    +0.000 C 
ATOM      9  O   UNL     1      -6.664  -2.546 128.778  0.00  0.00    +0.000 OA
ATOM     10  C   UNL     1      -5.916  -2.264 126.478  0.00  0.00    +0.000 C 
ATOM     11  H   UNL     1      -8.991  -2.390 127.923  0.00  0.00    +0.000 HD
ENDBRANCH   2   3
BRANCH   2  12
ATOM     12  C   UNL     1      -7.688   0.821 124.700  0.00  0.00    +0.000 C 
BRANCH  12  13
ATOM     13  N   UNL     1      -8.740   1.822 124.979  0.00  0.00    +0.000 NA
ATOM     14  C   UNL     1     -10.028   1.272 124.571  0.00  0.00    +0.000 C 
ATOM     15  C   UNL     1     -10.095   1.198 123.065  0.00  0.00    +0.000 C 
ATOM     16  O   UNL     1     -10.775   0.309 122.546  0.00  0.00    +0.000 OA
ATOM     17  N   UNL     1      -9.240   2.088 122.358  0.00  0.00    +0.000 N 
ATOM     18  C   UNL     1      -8.296   2.961 122.892  0.00  0.00    +0.000 C 
ATOM     19  O   UNL     1      -7.396   3.437 122.257  0.00  0.00    +0.000 OA
ATOM     20  C   UNL     1      -8.496   3.132 124.374  0.00  0.00    +0.000 C 
ATOM     21  H   UNL     1      -8.940   1.839 121.423  0.00  0.00    +0.000 HD
ENDBRANCH  12  13
ENDBRANCH   2  12
TORSDOF 3
ENDMDL
MODEL 5
REMARK VINA RESULT:      -5.5      2.991      4.971
REMARK  Name = Dexrazoxane
REMARK  4 active torsions:
REMARK  status: ('A' for Active; 'I' for Inactive)
REMARK    1  A    between atoms: C_1  and  C_2
REMARK    2  A    between atoms: C_2  and  C_3
REMARK    3  A    between atoms: C_2  and  N_12
REMARK    4  A    between atoms: C_3  and  N_4
REMARK                            x       y       z     vdW  Elec       q    Type
REMARK                         _______ _______ _______ _____ _____    ______ ____
ROOT
ATOM      1  C   UNL     1      -8.828  -3.832 128.070  0.00  0.00    +0.000 C 
ATOM      2  C   UNL     1      -8.054  -2.739 127.246  0.00  0.00    +0.000 C 
ENDROOT
BRANCH   2   3
ATOM      3  N   UNL     1      -7.690  -1.676 128.253  0.00  0.00    +0.000 NA
ATOM      4  C   UNL     1      -7.091  -0.429 127.692  0.00  0.00    +0.000 C 
ATOM      5  C   UNL     1      -5.708  -0.699 127.083  0.00  0.00    +0.000 C 
ATOM      6  O   UNL     1      -5.243  -0.043 126.154  0.00  0.00    +0.000 OA
ATOM      7  N   UNL     1      -5.019  -1.759 127.620  0.00  0.00    +0.000 N 
ATOM      8  C   UNL     1      -5.394  -2.469 128.739  0.00  0.00    +0.000 C 
ATOM      9  O   UNL     1      -4.679  -3.362 129.188  0.00  0.00    +0.000 OA
ATOM     10  C   UNL     1      -6.787  -2.151 129.313  0.00  0.00    +0.000 C 
ATOM     11  H   UNL     1      -4.165  -2.031 127.154  0.00  0.00    +0.000 HD
ENDBRANCH   2   3
BRANCH   2  12
ATOM     12  C   UNL     1      -8.647  -2.127 125.805  0.00  0.00    +0.000 C 
BRANCH  12  13
ATOM     13  N   UNL     1      -8.692  -2.753 124.466  0.00  0.00    +0.000 NA
ATOM     14  C   UNL     1      -7.534  -3.628 124.320  0.00  0.00    +0.000 C 
ATOM     15  C   UNL     1      -6.279  -2.797 124.207  0.00  0.00    +0.000 C 
ATOM     16  O   UNL     1      -5.220  -3.266 124.629  0.00  0.00    +0.000 OA
ATOM     17  N   UNL     1      -6.454  -1.464 123.744  0.00  0.00    +0.000 N 
ATOM     18  C   UNL     1      -7.652  -0.815 123.459  0.00  0.00    +0.000 C 
ATOM     19  O   UNL     1      -7.763   0.379 123.390  0.00  0.00    +0.000 OA
ATOM     20  C   UNL     1      -8.789  -1.796 123.361  0.00  0.00    +0.000 C 
ATOM     21  H   UNL     1      -5.775  -0.761 124.010  0.00  0.00    +0.000 HD
ENDBRANCH  12  13
ENDBRANCH   2  12
TORSDOF 3
ENDMDL
MODEL 6
REMARK VINA RESULT:      -5.5      1.641      2.594
REMARK  Name = Dexrazoxane
REMARK  4 active torsions:
REMARK  status: ('A' for Active; 'I' for Inactive)
REMARK    1  A    between atoms: C_1  and  C_2
REMARK    2  A    between atoms: C_2  and  C_3
REMARK    3  A    between atoms: C_2  and  N_12
REMARK    4  A    between atoms: C_3  and  N_4
REMARK                            x       y       z     vdW  Elec       q    Type
REMARK                         _______ _______ _______ _____ _____    ______ ____
ROOT
ATOM      1  C   UNL     1      -5.660  -0.751 126.195  0.00  0.00    +0.000 C 
ATOM      2  C   UNL     1      -6.656  -0.340 125.049  0.00  0.00    +0.000 C 
ENDROOT
BRANCH   2   3
ATOM      3  N   UNL     1      -6.545  -1.440 124.022  0.00  0.00    +0.000 NA
ATOM      4  C   UNL     1      -7.486  -1.346 122.867  0.00  0.00    +0.000 C 
ATOM      5  C   UNL     1      -8.941  -1.548 123.313  0.00  0.00    +0.000 C 
ATOM      6  O   UNL     1      -9.897  -1.040 122.733  0.00  0.00    +0.000 OA
ATOM      7  N   UNL     1      -9.115  -2.313 124.441  0.00  0.00    +0.000 N 
ATOM      8  C   UNL     1      -8.127  -3.025 125.082  0.00  0.00    +0.000 C 
ATOM      9  O   UNL     1      -8.389  -3.738 126.048  0.00  0.00    +0.000 OA
ATOM     10  C   UNL     1      -6.687  -2.791 124.587  0.00  0.00    +0.000 C 
ATOM     11  H   UNL     1     -10.049  -2.356 124.823  0.00  0.00    +0.000 HD
ENDBRANCH   2   3
BRANCH   2  12
ATOM     12  C   UNL     1      -6.664   1.199 124.390  0.00  0.00    +0.000 C 
BRANCH  12  13
ATOM     13  N   UNL     1      -7.528   1.763 123.331  0.00  0.00    +0.000 NA
ATOM     14  C   UNL     1      -6.711   2.603 122.461  0.00  0.00    +0.000 C 
ATOM     15  C   UNL     1      -6.305   3.856 123.198  0.00  0.00    +0.000 C 
ATOM     16  O   UNL     1      -5.232   4.390 122.908  0.00  0.00    +0.000 OA
ATOM     17  N   UNL     1      -7.142   4.241 124.280  0.00  0.00    +0.000 N 
ATOM     18  C   UNL     1      -8.244   3.557 124.787  0.00  0.00    +0.000 C 
ATOM     19  O   UNL     1      -8.704   3.752 125.878  0.00  0.00    +0.000 OA
ATOM     20  C   UNL     1      -8.699   2.485 123.834  0.00  0.00    +0.000 C 
ATOM     21  H   UNL     1      -6.746   4.793 125.032  0.00  0.00    +0.000 HD
ENDBRANCH  12  13
ENDBRANCH   2  12
TORSDOF 3
ENDMDL
MODEL 7
REMARK VINA RESULT:      -5.4      2.301      2.878
REMARK  Name = Dexrazoxane
REMARK  4 active torsions:
REMARK  status: ('A' for Active; 'I' for Inactive)
REMARK    1  A    between atoms: C_1  and  C_2
REMARK    2  A    between atoms: C_2  and  C_3
REMARK    3  A    between atoms: C_2  and  N_12
REMARK    4  A    between atoms: C_3  and  N_4
REMARK                            x       y       z     vdW  Elec       q    Type
REMARK                         _______ _______ _______ _____ _____    ______ ____
ROOT
ATOM      1  C   UNL     1      -7.547   0.336 128.222  0.00  0.00    +0.000 C 
ATOM      2  C   UNL     1      -8.098  -0.518 127.021  0.00  0.00    +0.000 C 
ENDROOT
BRANCH   2   3
ATOM      3  N   UNL     1      -7.105  -1.641 126.852  0.00  0.00    +0.000 NA
ATOM      4  C   UNL     1      -7.274  -2.478 125.628  0.00  0.00    +0.000 C 
ATOM      5  C   UNL     1      -8.579  -3.285 125.680  0.00  0.00    +0.000 C 
ATOM      6  O   UNL     1      -9.200  -3.622 124.675  0.00  0.00    +0.000 OA
ATOM      7  N   UNL     1      -9.042  -3.586 126.937  0.00  0.00    +0.000 N 
ATOM      8  C   UNL     1      -8.358  -3.367 128.112  0.00  0.00    +0.000 C 
ATOM      9  O   UNL     1      -8.823  -3.730 129.190  0.00  0.00    +0.000 OA
ATOM     10  C   UNL     1      -7.050  -2.559 128.000  0.00  0.00    +0.000 C 
ATOM     11  H   UNL     1      -9.958  -4.006 126.997  0.00  0.00    +0.000 HD
ENDBRANCH   2   3
BRANCH   2  12
ATOM     12  C   UNL     1      -8.573   0.185 125.578  0.00  0.00    +0.000 C 
BRANCH  12  13
ATOM     13  N   UNL     1      -7.747   0.689 124.461  0.00  0.00    +0.000 NA
ATOM     14  C   UNL     1      -7.461   2.101 124.691  0.00  0.00    +0.000 C 
ATOM     15  C   UNL     1      -8.720   2.912 124.506  0.00  0.00    +0.000 C 
ATOM     16  O   UNL     1      -8.856   3.949 125.158  0.00  0.00    +0.000 OA
ATOM     17  N   UNL     1      -9.723   2.327 123.684  0.00  0.00    +0.000 N 
ATOM     18  C   UNL     1      -9.710   1.064 123.098  0.00  0.00    +0.000 C 
ATOM     19  O   UNL     1     -10.694   0.506 122.698  0.00  0.00    +0.000 OA
ATOM     20  C   UNL     1      -8.330   0.465 123.136  0.00  0.00    +0.000 C 
ATOM     21  H   UNL     1     -10.690   2.594 123.829  0.00  0.00    +0.000 HD
ENDBRANCH  12  13
ENDBRANCH   2  12
TORSDOF 3
ENDMDL
MODEL 8
REMARK VINA RESULT:      -5.3      2.212      3.159
REMARK  Name = Dexrazoxane
REMARK  4 active torsions:
REMARK  status: ('A' for Active; 'I' for Inactive)
REMARK    1  A    between atoms: C_1  and  C_2
REMARK    2  A    between atoms: C_2  and  C_3
REMARK    3  A    between atoms: C_2  and  N_12
REMARK    4  A    between atoms: C_3  and  N_4
REMARK                            x       y       z     vdW  Elec       q    Type
REMARK                         _______ _______ _______ _____ _____    ______ ____
ROOT
ATOM      1  C   UNL     1      -9.941   0.571 125.611  0.00  0.00    +0.000 C 
ATOM      2  C   UNL     1      -8.415   0.242 125.423  0.00  0.00    +0.000 C 
ENDROOT
BRANCH   2   3
ATOM      3  N   UNL     1      -8.194  -1.038 126.192  0.00  0.00    +0.000 NA
ATOM      4  C   UNL     1      -6.821  -1.616 126.110  0.00  0.00    +0.000 C 
ATOM      5  C   UNL     1      -6.505  -2.105 124.689  0.00  0.00    +0.000 C 
ATOM      6  O   UNL     1      -5.368  -2.134 124.226  0.00  0.00    +0.000 OA
ATOM      7  N   UNL     1      -7.590  -2.482 123.936  0.00  0.00    +0.000 N 
ATOM      8  C   UNL     1      -8.880  -2.608 124.403  0.00  0.00    +0.000 C 
ATOM      9  O   UNL     1      -9.778  -3.017 123.671  0.00  0.00    +0.000 OA
ATOM     10  C   UNL     1      -9.137  -2.110 125.838  0.00  0.00    +0.000 C 
ATOM     11  H   UNL     1      -7.420  -2.688 122.962  0.00  0.00    +0.000 HD
ENDBRANCH   2   3
BRANCH   2  12
ATOM     12  C   UNL     1      -7.222   1.390 125.670  0.00  0.00    +0.000 C 
BRANCH  12  13
ATOM     13  N   UNL     1      -6.244   1.950 124.713  0.00  0.00    +0.000 NA
ATOM     14  C   UNL     1      -5.632   3.133 125.309  0.00  0.00    +0.000 C 
ATOM     15  C   UNL     1      -6.644   4.251 125.373  0.00  0.00    +0.000 C 
ATOM     16  O   UNL     1      -6.553   5.079 126.282  0.00  0.00    +0.000 OA
ATOM     17  N   UNL     1      -7.718   4.174 124.444  0.00  0.00    +0.000 N 
ATOM     18  C   UNL     1      -7.986   3.149 123.540  0.00  0.00    +0.000 C 
ATOM     19  O   UNL     1      -9.056   2.980 123.024  0.00  0.00    +0.000 OA
ATOM     20  C   UNL     1      -6.799   2.238 123.389  0.00  0.00    +0.000 C 
ATOM     21  H   UNL     1      -8.596   4.624 124.674  0.00  0.00    +0.000 HD
ENDBRANCH  12  13
ENDBRANCH   2  12
TORSDOF 3
ENDMDL
MODEL 9
REMARK VINA RESULT:      -5.2      2.114      3.329
REMARK  Name = Dexrazoxane
REMARK  4 active torsions:
REMARK  status: ('A' for Active; 'I' for Inactive)
REMARK    1  A    between atoms: C_1  and  C_2
REMARK    2  A    between atoms: C_2  and  C_3
REMARK    3  A    between atoms: C_2  and  N_12
REMARK    4  A    between atoms: C_3  and  N_4
REMARK                            x       y       z     vdW  Elec       q    Type
REMARK                         _______ _______ _______ _____ _____    ______ ____
ROOT
ATOM      1  C   UNL     1      -6.791  -1.631 122.609  0.00  0.00    +0.000 C 
ATOM      2  C   UNL     1      -7.169  -0.574 123.710  0.00  0.00    +0.000 C 
ENDROOT
BRANCH   2   3
ATOM      3  N   UNL     1      -8.591  -0.903 124.096  0.00  0.00    +0.000 NA
ATOM      4  C   UNL     1      -8.999  -0.502 125.474  0.00  0.00    +0.000 C 
ATOM      5  C   UNL     1      -8.244  -1.312 126.537  0.00  0.00    +0.000 C 
ATOM      6  O   UNL     1      -7.993  -0.877 127.659  0.00  0.00    +0.000 OA
ATOM      7  N   UNL     1      -7.824  -2.560 126.147  0.00  0.00    +0.000 N 
ATOM      8  C   UNL     1      -8.165  -3.182 124.967  0.00  0.00    +0.000 C 
ATOM      9  O   UNL     1      -7.797  -4.330 124.730  0.00  0.00    +0.000 OA
ATOM     10  C   UNL     1      -8.930  -2.326 123.940  0.00  0.00    +0.000 C 
ATOM     11  H   UNL     1      -7.221  -3.059 126.785  0.00  0.00    +0.000 HD
ENDBRANCH   2   3
BRANCH   2  12
ATOM     12  C   UNL     1      -6.889   1.064 123.503  0.00  0.00    +0.000 C 
BRANCH  12  13
ATOM     13  N   UNL     1      -7.546   2.021 122.588  0.00  0.00    +0.000 NA
ATOM     14  C   UNL     1      -6.564   3.014 122.165  0.00  0.00    +0.000 C 
ATOM     15  C   UNL     1      -6.220   3.915 123.326  0.00  0.00    +0.000 C 
ATOM     16  O   UNL     1      -5.090   4.407 123.378  0.00  0.00    +0.000 OA
ATOM     17  N   UNL     1      -7.199   4.010 124.353  0.00  0.00    +0.000 N 
ATOM     18  C   UNL     1      -8.398   3.309 124.449  0.00  0.00    +0.000 C 
ATOM     19  O   UNL     1      -9.016   3.185 125.471  0.00  0.00    +0.000 OA
ATOM     20  C   UNL     1      -8.747   2.652 123.142  0.00  0.00    +0.000 C 
ATOM     21  H   UNL     1      -6.901   4.248 125.292  0.00  0.00    +0.000 HD
ENDBRANCH  12  13
ENDBRANCH   2  12
TORSDOF 3
ENDMDL
