MODEL 1
REMARK VINA RESULT:      -6.1      0.000      0.000
REMARK  Name = Dextropropoxyphene
REMARK  13 active torsions:
REMARK  status: ('A' for Active; 'I' for Inactive)
REMARK    1  A    between atoms: C_1  and  C_2
REMARK    2  A    between atoms: C_2  and  C_3
REMARK    3  A    between atoms: C_3  and  O_5
REMARK    4  A    between atoms: O_5  and  C_6
REMARK    5  A    between atoms: C_6  and  C_7
REMARK    6  A    between atoms: C_6  and  C_14
REMARK    7  A    between atoms: C_6  and  C_20
REMARK    8  A    between atoms: C_7  and  C_8
REMARK    9  A    between atoms: C_14  and  C_15
REMARK   10  A    between atoms: C_14  and  C_16
REMARK   11  A    between atoms: C_16  and  N_17
REMARK   12  A    between atoms: N_17  and  C_18
REMARK   13  A    between atoms: N_17  and  C_19
REMARK                            x       y       z     vdW  Elec       q    Type
REMARK                         _______ _______ _______ _____ _____    ______ ____
ROOT
ATOM      1  C   UNL     1      -7.602   0.240 126.007  0.00  0.00    +0.000 C 
ENDROOT
BRANCH   1   2
ATOM      2  C   UNL     1      -7.864  -1.144 125.153  0.00  0.00    +0.000 A 
ATOM      3  C   UNL     1      -7.349  -1.244 123.838  0.00  0.00    +0.000 A 
ATOM      4  C   UNL     1      -7.919  -2.126 122.890  0.00  0.00    +0.000 A 
ATOM      5  C   UNL     1      -8.969  -2.980 123.239  0.00  0.00    +0.000 A 
ATOM      6  C   UNL     1      -9.354  -3.058 124.576  0.00  0.00    +0.000 A 
ATOM      7  C   UNL     1      -8.743  -2.211 125.551  0.00  0.00    +0.000 A 
ENDBRANCH   1   2
BRANCH   1   8
ATOM      8  C   UNL     1      -7.751   0.174 127.625  0.00  0.00    +0.000 C 
ATOM      9  C   UNL     1      -8.254   1.512 128.243  0.00  0.00    +0.000 C 
BRANCH   8  10
ATOM     10  C   UNL     1      -6.508  -0.226 128.432  0.00  0.00    +0.000 C 
BRANCH  10  11
ATOM     11  N   UNL     1      -6.277  -1.649 128.757  0.00  0.00    +0.000 NA
ATOM     12  C   UNL     1      -7.412  -2.520 129.016  0.00  0.00    +0.000 C 
ATOM     13  C   UNL     1      -5.341  -2.236 127.795  0.00  0.00    +0.000 C 
ENDBRANCH  10  11
ENDBRANCH   8  10
ENDBRANCH   1   8
BRANCH   1  14
ATOM     14  O   UNL     1      -8.595   1.368 125.641  0.00  0.00    +0.000 OA
BRANCH  14  15
ATOM     15  C   UNL     1      -9.724   1.084 124.912  0.00  0.00    +0.000 C 
ATOM     16  O   UNL     1     -10.720   0.504 125.381  0.00  0.00    +0.000 OA
BRANCH  15  18
ATOM     17  C   UNL     1     -10.364   0.472 122.578  0.00  0.00    +0.000 C 
ATOM     18  C   UNL     1      -9.802   1.591 123.491  0.00  0.00    +0.000 C 
ENDBRANCH  15  18
ENDBRANCH  14  15
ENDBRANCH   1  14
BRANCH   1  19
ATOM     19  C   UNL     1      -6.177   0.645 125.523  0.00  0.00    +0.000 C 
BRANCH  19  20
ATOM     20  C   UNL     1      -6.152   2.096 125.088  0.00  0.00    +0.000 A 
ATOM     21  C   UNL     1      -6.380   2.416 123.746  0.00  0.00    +0.000 A 
ATOM     22  C   UNL     1      -6.067   3.677 123.262  0.00  0.00    +0.000 A 
ATOM     23  C   UNL     1      -5.610   4.657 124.138  0.00  0.00    +0.000 A 
ATOM     24  C   UNL     1      -5.389   4.356 125.480  0.00  0.00    +0.000 A 
ATOM     25  C   UNL     1      -5.667   3.082 125.957  0.00  0.00    +0.000 A 
ENDBRANCH  19  20
ENDBRANCH   1  19
TORSDOF 9
ENDMDL
MODEL 2
REMARK VINA RESULT:      -6.1      2.263      6.288
REMARK  Name = Dextropropoxyphene
REMARK  13 active torsions:
REMARK  status: ('A' for Active; 'I' for Inactive)
REMARK    1  A    between atoms: C_1  and  C_2
REMARK    2  A    between atoms: C_2  and  C_3
REMARK    3  A    between atoms: C_3  and  O_5
REMARK    4  A    between atoms: O_5  and  C_6
REMARK    5  A    between atoms: C_6  and  C_7
REMARK    6  A    between atoms: C_6  and  C_14
REMARK    7  A    between atoms: C_6  and  C_20
REMARK    8  A    between atoms: C_7  and  C_8
REMARK    9  A    between atoms: C_14  and  C_15
REMARK   10  A    between atoms: C_14  and  C_16
REMARK   11  A    between atoms: C_16  and  N_17
REMARK   12  A    between atoms: N_17  and  C_18
REMARK   13  A    between atoms: N_17  and  C_19
REMARK                            x       y       z     vdW  Elec       q    Type
REMARK                         _______ _______ _______ _____ _____    ______ ____
ROOT
ATOM      1  C   UNL     1      -7.801   1.361 124.946  0.00  0.00    +0.000 C 
ENDROOT
BRANCH   1   2
ATOM      2  C   UNL     1      -6.589   2.260 125.609  0.00  0.00    +0.000 A 
ATOM      3  C   UNL     1      -6.651   3.671 125.510  0.00  0.00    +0.000 A 
ATOM      4  C   UNL     1      -5.485   4.466 125.587  0.00  0.00    +0.000 A 
ATOM      5  C   UNL     1      -4.234   3.891 125.831  0.00  0.00    +0.000 A 
ATOM      6  C   UNL     1      -4.169   2.534 126.144  0.00  0.00    +0.000 A 
ATOM      7  C   UNL     1      -5.354   1.734 126.125  0.00  0.00    +0.000 A 
ENDBRANCH   1   2
BRANCH   1   8
ATOM      8  C   UNL     1      -8.927   2.135 124.066  0.00  0.00    +0.000 C 
ATOM      9  C   UNL     1     -10.359   1.555 124.267  0.00  0.00    +0.000 C 
BRANCH   8  10
ATOM     10  C   UNL     1      -8.708   2.211 122.549  0.00  0.00    +0.000 C 
BRANCH  10  11
ATOM     11  N   UNL     1      -8.035   3.391 121.968  0.00  0.00    +0.000 NA
ATOM     12  C   UNL     1      -6.589   3.396 121.825  0.00  0.00    +0.000 C 
ATOM     13  C   UNL     1      -8.711   3.794 120.732  0.00  0.00    +0.000 C 
ENDBRANCH  10  11
ENDBRANCH   8  10
ENDBRANCH   1   8
BRANCH   1  14
ATOM     14  O   UNL     1      -8.664   0.642 126.009  0.00  0.00    +0.000 OA
BRANCH  14  15
ATOM     15  C   UNL     1      -8.550   0.979 127.335  0.00  0.00    +0.000 C 
ATOM     16  O   UNL     1      -9.087   1.982 127.841  0.00  0.00    +0.000 OA
BRANCH  15  18
ATOM     17  C   UNL     1      -7.899   0.557 129.707  0.00  0.00    +0.000 C 
ATOM     18  C   UNL     1      -7.815   0.030 128.253  0.00  0.00    +0.000 C 
ENDBRANCH  15  18
ENDBRANCH  14  15
ENDBRANCH   1  14
BRANCH   1  19
ATOM     19  C   UNL     1      -6.998   0.294 124.141  0.00  0.00    +0.000 C 
BRANCH  19  20
ATOM     20  C   UNL     1      -7.639  -1.071 124.276  0.00  0.00    +0.000 A 
ATOM     21  C   UNL     1      -7.094  -2.001 125.167  0.00  0.00    +0.000 A 
ATOM     22  C   UNL     1      -7.457  -3.338 125.095  0.00  0.00    +0.000 A 
ATOM     23  C   UNL     1      -8.437  -3.738 124.191  0.00  0.00    +0.000 A 
ATOM     24  C   UNL     1      -8.996  -2.820 123.305  0.00  0.00    +0.000 A 
ATOM     25  C   UNL     1      -8.606  -1.488 123.352  0.00  0.00    +0.000 A 
ENDBRANCH  19  20
ENDBRANCH   1  19
TORSDOF 9
ENDMDL
MODEL 3
REMARK VINA RESULT:      -6.0      5.902      8.930
REMARK  Name = Dextropropoxyphene
REMARK  13 active torsions:
REMARK  status: ('A' for Active; 'I' for Inactive)
REMARK    1  A    between atoms: C_1  and  C_2
REMARK    2  A    between atoms: C_2  and  C_3
REMARK    3  A    between atoms: C_3  and  O_5
REMARK    4  A    between atoms: O_5  and  C_6
REMARK    5  A    between atoms: C_6  and  C_7
REMARK    6  A    between atoms: C_6  and  C_14
REMARK    7  A    between atoms: C_6  and  C_20
REMARK    8  A    between atoms: C_7  and  C_8
REMARK    9  A    between atoms: C_14  and  C_15
REMARK   10  A    between atoms: C_14  and  C_16
REMARK   11  A    between atoms: C_16  and  N_17
REMARK   12  A    between atoms: N_17  and  C_18
REMARK   13  A    between atoms: N_17  and  C_19
REMARK                            x       y       z     vdW  Elec       q    Type
REMARK                         _______ _______ _______ _____ _____    ______ ____
ROOT
ATOM      1  C   UNL     1      -9.045   5.297 130.979  0.00  0.00    +0.000 C 
ENDROOT
BRANCH   1   2
ATOM      2  C   UNL     1      -8.646   4.819 132.505  0.00  0.00    +0.000 A 
ATOM      3  C   UNL     1      -8.631   5.782 133.542  0.00  0.00    +0.000 A 
ATOM      4  C   UNL     1      -7.854   5.595 134.709  0.00  0.00    +0.000 A 
ATOM      5  C   UNL     1      -7.125   4.419 134.909  0.00  0.00    +0.000 A 
ATOM      6  C   UNL     1      -7.287   3.367 134.010  0.00  0.00    +0.000 A 
ATOM      7  C   UNL     1      -8.117   3.528 132.858  0.00  0.00    +0.000 A 
ENDBRANCH   1   2
BRANCH   1   8
ATOM      8  C   UNL     1      -9.690   4.188 129.981  0.00  0.00    +0.000 C 
ATOM      9  C   UNL     1     -10.895   3.429 130.613  0.00  0.00    +0.000 C 
BRANCH   8  10
ATOM     10  C   UNL     1      -8.752   3.108 129.424  0.00  0.00    +0.000 C 
BRANCH  10  11
ATOM     11  N   UNL     1      -8.579   2.976 127.962  0.00  0.00    +0.000 NA
ATOM     12  C   UNL     1      -7.565   3.767 127.284  0.00  0.00    +0.000 C 
ATOM     13  C   UNL     1      -8.510   1.560 127.593  0.00  0.00    +0.000 C 
ENDBRANCH  10  11
ENDBRANCH   8  10
ENDBRANCH   1   8
BRANCH   1  14
ATOM     14  O   UNL     1      -7.824   5.787 130.166  0.00  0.00    +0.000 OA
BRANCH  14  15
ATOM     15  C   UNL     1      -6.555   5.639 130.669  0.00  0.00    +0.000 C 
ATOM     16  O   UNL     1      -5.864   4.616 130.507  0.00  0.00    +0.000 OA
BRANCH  15  18
ATOM     17  C   UNL     1      -4.941   6.303 132.453  0.00  0.00    +0.000 C 
ATOM     18  C   UNL     1      -5.923   6.818 131.371  0.00  0.00    +0.000 C 
ENDBRANCH  15  18
ENDBRANCH  14  15
ENDBRANCH   1  14
BRANCH   1  19
ATOM     19  C   UNL     1      -9.983   6.509 131.264  0.00  0.00    +0.000 C 
BRANCH  19  20
ATOM     20  C   UNL     1     -10.675   6.958 129.994  0.00  0.00    +0.000 A 
ATOM     21  C   UNL     1     -10.014   7.828 129.121  0.00  0.00    +0.000 A 
ATOM     22  C   UNL     1     -10.716   8.490 128.126  0.00  0.00    +0.000 A 
ATOM     23  C   UNL     1     -12.068   8.219 127.938  0.00  0.00    +0.000 A 
ATOM     24  C   UNL     1     -12.737   7.346 128.793  0.00  0.00    +0.000 A 
ATOM     25  C   UNL     1     -12.042   6.710 129.814  0.00  0.00    +0.000 A 
ENDBRANCH  19  20
ENDBRANCH   1  19
TORSDOF 9
ENDMDL
MODEL 4
REMARK VINA RESULT:      -5.9      2.337      5.824
REMARK  Name = Dextropropoxyphene
REMARK  13 active torsions:
REMARK  status: ('A' for Active; 'I' for Inactive)
REMARK    1  A    between atoms: C_1  and  C_2
REMARK    2  A    between atoms: C_2  and  C_3
REMARK    3  A    between atoms: C_3  and  O_5
REMARK    4  A    between atoms: O_5  and  C_6
REMARK    5  A    between atoms: C_6  and  C_7
REMARK    6  A    between atoms: C_6  and  C_14
REMARK    7  A    between atoms: C_6  and  C_20
REMARK    8  A    between atoms: C_7  and  C_8
REMARK    9  A    between atoms: C_14  and  C_15
REMARK   10  A    between atoms: C_14  and  C_16
REMARK   11  A    between atoms: C_16  and  N_17
REMARK   12  A    between atoms: N_17  and  C_18
REMARK   13  A    between atoms: N_17  and  C_19
REMARK                            x       y       z     vdW  Elec       q    Type
REMARK                         _______ _______ _______ _____ _____    ______ ____
ROOT
ATOM      1  C   UNL     1      -6.437  -1.226 127.287  0.00  0.00    +0.000 C 
ENDROOT
BRANCH   1   2
ATOM      2  C   UNL     1      -5.195  -1.427 128.352  0.00  0.00    +0.000 A 
ATOM      3  C   UNL     1      -4.526  -2.673 128.395  0.00  0.00    +0.000 A 
ATOM      4  C   UNL     1      -3.831  -3.095 129.552  0.00  0.00    +0.000 A 
ATOM      5  C   UNL     1      -3.723  -2.266 130.672  0.00  0.00    +0.000 A 
ATOM      6  C   UNL     1      -4.185  -0.954 130.582  0.00  0.00    +0.000 A 
ATOM      7  C   UNL     1      -4.839  -0.501 129.394  0.00  0.00    +0.000 A 
ENDBRANCH   1   2
BRANCH   1   8
ATOM      8  C   UNL     1      -6.579   0.215 126.549  0.00  0.00    +0.000 C 
ATOM      9  C   UNL     1      -5.206   0.908 126.298  0.00  0.00    +0.000 C 
BRANCH   8  10
ATOM     10  C   UNL     1      -7.469   1.269 127.223  0.00  0.00    +0.000 C 
BRANCH  10  11
ATOM     11  N   UNL     1      -8.532   1.932 126.441  0.00  0.00    +0.000 NA
ATOM     12  C   UNL     1      -8.194   3.042 125.565  0.00  0.00    +0.000 C 
ATOM     13  C   UNL     1      -9.355   0.927 125.763  0.00  0.00    +0.000 C 
ENDBRANCH  10  11
ENDBRANCH   8  10
ENDBRANCH   1   8
BRANCH   1  14
ATOM     14  O   UNL     1      -7.826  -1.383 127.950  0.00  0.00    +0.000 OA
BRANCH  14  15
ATOM     15  C   UNL     1      -7.942  -1.997 129.172  0.00  0.00    +0.000 C 
ATOM     16  O   UNL     1      -8.061  -1.379 130.246  0.00  0.00    +0.000 OA
BRANCH  15  18
ATOM     17  C   UNL     1      -9.004  -3.987 128.103  0.00  0.00    +0.000 C 
ATOM     18  C   UNL     1      -8.031  -3.505 129.209  0.00  0.00    +0.000 C 
ENDBRANCH  15  18
ENDBRANCH  14  15
ENDBRANCH   1  14
BRANCH   1  19
ATOM     19  C   UNL     1      -6.207  -2.415 126.306  0.00  0.00    +0.000 C 
BRANCH  19  20
ATOM     20  C   UNL     1      -6.918  -2.169 124.992  0.00  0.00    +0.000 A 
ATOM     21  C   UNL     1      -8.255  -2.556 124.851  0.00  0.00    +0.000 A 
ATOM     22  C   UNL     1      -8.835  -2.628 123.593  0.00  0.00    +0.000 A 
ATOM     23  C   UNL     1      -8.111  -2.224 122.476  0.00  0.00    +0.000 A 
ATOM     24  C   UNL     1      -6.782  -1.824 122.603  0.00  0.00    +0.000 A 
ATOM     25  C   UNL     1      -6.188  -1.788 123.858  0.00  0.00    +0.000 A 
ENDBRANCH  19  20
ENDBRANCH   1  19
TORSDOF 9
ENDMDL
MODEL 5
REMARK VINA RESULT:      -5.9      2.181      4.358
REMARK  Name = Dextropropoxyphene
REMARK  13 active torsions:
REMARK  status: ('A' for Active; 'I' for Inactive)
REMARK    1  A    between atoms: C_1  and  C_2
REMARK    2  A    between atoms: C_2  and  C_3
REMARK    3  A    between atoms: C_3  and  O_5
REMARK    4  A    between atoms: O_5  and  C_6
REMARK    5  A    between atoms: C_6  and  C_7
REMARK    6  A    between atoms: C_6  and  C_14
REMARK    7  A    between atoms: C_6  and  C_20
REMARK    8  A    between atoms: C_7  and  C_8
REMARK    9  A    between atoms: C_14  and  C_15
REMARK   10  A    between atoms: C_14  and  C_16
REMARK   11  A    between atoms: C_16  and  N_17
REMARK   12  A    between atoms: N_17  and  C_18
REMARK   13  A    between atoms: N_17  and  C_19
REMARK                            x       y       z     vdW  Elec       q    Type
REMARK                         _______ _______ _______ _____ _____    ______ ____
ROOT
ATOM      1  C   UNL     1      -7.163  -0.601 126.076  0.00  0.00    +0.000 C 
ENDROOT
BRANCH   1   2
ATOM      2  C   UNL     1      -7.124  -1.850 127.150  0.00  0.00    +0.000 A 
ATOM      3  C   UNL     1      -8.258  -2.688 127.265  0.00  0.00    +0.000 A 
ATOM      4  C   UNL     1      -8.510  -3.427 128.444  0.00  0.00    +0.000 A 
ATOM      5  C   UNL     1      -7.611  -3.408 129.514  0.00  0.00    +0.000 A 
ATOM      6  C   UNL     1      -6.385  -2.766 129.348  0.00  0.00    +0.000 A 
ATOM      7  C   UNL     1      -6.099  -2.064 128.136  0.00  0.00    +0.000 A 
ENDBRANCH   1   2
BRANCH   1   8
ATOM      8  C   UNL     1      -8.079   0.690 126.446  0.00  0.00    +0.000 C 
ATOM      9  C   UNL     1      -8.341   0.831 127.975  0.00  0.00    +0.000 C 
BRANCH   8  10
ATOM     10  C   UNL     1      -9.451   0.799 125.767  0.00  0.00    +0.000 C 
BRANCH  10  11
ATOM     11  N   UNL     1      -9.694   1.873 124.782  0.00  0.00    +0.000 NA
ATOM     12  C   UNL     1      -8.741   2.964 124.659  0.00  0.00    +0.000 C 
ATOM     13  C   UNL     1     -10.034   1.291 123.481  0.00  0.00    +0.000 C 
ENDBRANCH  10  11
ENDBRANCH   8  10
ENDBRANCH   1   8
BRANCH   1  14
ATOM     14  O   UNL     1      -7.732  -1.012 124.698  0.00  0.00    +0.000 OA
BRANCH  14  15
ATOM     15  C   UNL     1      -6.912  -1.575 123.751  0.00  0.00    +0.000 C 
ATOM     16  O   UNL     1      -6.458  -0.952 122.774  0.00  0.00    +0.000 OA
BRANCH  15  18
ATOM     17  C   UNL     1      -4.943  -3.104 123.623  0.00  0.00    +0.000 C 
ATOM     18  C   UNL     1      -6.452  -2.999 123.961  0.00  0.00    +0.000 C 
ENDBRANCH  15  18
ENDBRANCH  14  15
ENDBRANCH   1  14
BRANCH   1  19
ATOM     19  C   UNL     1      -5.647  -0.273 125.919  0.00  0.00    +0.000 C 
BRANCH  19  20
ATOM     20  C   UNL     1      -5.354   1.137 126.389  0.00  0.00    +0.000 A 
ATOM     21  C   UNL     1      -5.384   2.189 125.468  0.00  0.00    +0.000 A 
ATOM     22  C   UNL     1      -4.831   3.419 125.791  0.00  0.00    +0.000 A 
ATOM     23  C   UNL     1      -4.328   3.635 127.070  0.00  0.00    +0.000 A 
ATOM     24  C   UNL     1      -4.302   2.599 128.002  0.00  0.00    +0.000 A 
ATOM     25  C   UNL     1      -4.821   1.355 127.667  0.00  0.00    +0.000 A 
ENDBRANCH  19  20
ENDBRANCH   1  19
TORSDOF 9
ENDMDL
MODEL 6
REMARK VINA RESULT:      -5.8      1.721      2.648
REMARK  Name = Dextropropoxyphene
REMARK  13 active torsions:
REMARK  status: ('A' for Active; 'I' for Inactive)
REMARK    1  A    between atoms: C_1  and  C_2
REMARK    2  A    between atoms: C_2  and  C_3
REMARK    3  A    between atoms: C_3  and  O_5
REMARK    4  A    between atoms: O_5  and  C_6
REMARK    5  A    between atoms: C_6  and  C_7
REMARK    6  A    between atoms: C_6  and  C_14
REMARK    7  A    between atoms: C_6  and  C_20
REMARK    8  A    between atoms: C_7  and  C_8
REMARK    9  A    between atoms: C_14  and  C_15
REMARK   10  A    between atoms: C_14  and  C_16
REMARK   11  A    between atoms: C_16  and  N_17
REMARK   12  A    between atoms: N_17  and  C_18
REMARK   13  A    between atoms: N_17  and  C_19
REMARK                            x       y       z     vdW  Elec       q    Type
REMARK                         _______ _______ _______ _____ _____    ______ ____
ROOT
ATOM      1  C   UNL     1      -7.849   0.560 125.802  0.00  0.00    +0.000 C 
ENDROOT
BRANCH   1   2
ATOM      2  C   UNL     1      -7.869  -1.076 125.607  0.00  0.00    +0.000 A 
ATOM      3  C   UNL     1      -6.725  -1.715 125.072  0.00  0.00    +0.000 A 
ATOM      4  C   UNL     1      -6.818  -2.968 124.425  0.00  0.00    +0.000 A 
ATOM      5  C   UNL     1      -8.035  -3.653 124.349  0.00  0.00    +0.000 A 
ATOM      6  C   UNL     1      -9.131  -3.153 125.049  0.00  0.00    +0.000 A 
ATOM      7  C   UNL     1      -9.029  -1.914 125.755  0.00  0.00    +0.000 A 
ENDBRANCH   1   2
BRANCH   1   8
ATOM      8  C   UNL     1      -7.646   1.144 127.306  0.00  0.00    +0.000 C 
ATOM      9  C   UNL     1      -7.154   0.064 128.315  0.00  0.00    +0.000 C 
BRANCH   8  10
ATOM     10  C   UNL     1      -8.852   1.826 127.967  0.00  0.00    +0.000 C 
BRANCH  10  11
ATOM     11  N   UNL     1      -8.664   3.103 128.686  0.00  0.00    +0.000 NA
ATOM     12  C   UNL     1      -8.664   3.117 130.139  0.00  0.00    +0.000 C 
ATOM     13  C   UNL     1      -7.516   3.824 128.129  0.00  0.00    +0.000 C 
ENDBRANCH  10  11
ENDBRANCH   8  10
ENDBRANCH   1   8
BRANCH   1  14
ATOM     14  O   UNL     1      -9.176   1.231 125.376  0.00  0.00    +0.000 OA
BRANCH  14  15
ATOM     15  C   UNL     1      -9.165   2.289 124.500  0.00  0.00    +0.000 C 
ATOM     16  O   UNL     1      -9.009   3.473 124.851  0.00  0.00    +0.000 OA
BRANCH  15  18
ATOM     17  C   UNL     1     -10.055   0.687 122.805  0.00  0.00    +0.000 C 
ATOM     18  C   UNL     1      -9.247   1.992 123.021  0.00  0.00    +0.000 C 
ENDBRANCH  15  18
ENDBRANCH  14  15
ENDBRANCH   1  14
BRANCH   1  19
ATOM     19  C   UNL     1      -6.727   0.983 124.807  0.00  0.00    +0.000 C 
BRANCH  19  20
ATOM     20  C   UNL     1      -5.773   1.960 125.461  0.00  0.00    +0.000 A 
ATOM     21  C   UNL     1      -5.771   3.298 125.052  0.00  0.00    +0.000 A 
ATOM     22  C   UNL     1      -4.724   4.137 125.401  0.00  0.00    +0.000 A 
ATOM     23  C   UNL     1      -3.715   3.670 126.238  0.00  0.00    +0.000 A 
ATOM     24  C   UNL     1      -3.710   2.342 126.662  0.00  0.00    +0.000 A 
ATOM     25  C   UNL     1      -4.739   1.491 126.282  0.00  0.00    +0.000 A 
ENDBRANCH  19  20
ENDBRANCH   1  19
TORSDOF 9
ENDMDL
MODEL 7
REMARK VINA RESULT:      -5.7      6.054      9.452
REMARK  Name = Dextropropoxyphene
REMARK  13 active torsions:
REMARK  status: ('A' for Active; 'I' for Inactive)
REMARK    1  A    between atoms: C_1  and  C_2
REMARK    2  A    between atoms: C_2  and  C_3
REMARK    3  A    between atoms: C_3  and  O_5
REMARK    4  A    between atoms: O_5  and  C_6
REMARK    5  A    between atoms: C_6  and  C_7
REMARK    6  A    between atoms: C_6  and  C_14
REMARK    7  A    between atoms: C_6  and  C_20
REMARK    8  A    between atoms: C_7  and  C_8
REMARK    9  A    between atoms: C_14  and  C_15
REMARK   10  A    between atoms: C_14  and  C_16
REMARK   11  A    between atoms: C_16  and  N_17
REMARK   12  A    between atoms: N_17  and  C_18
REMARK   13  A    between atoms: N_17  and  C_19
REMARK                            x       y       z     vdW  Elec       q    Type
REMARK                         _______ _______ _______ _____ _____    ______ ____
ROOT
ATOM      1  C   UNL     1      -5.056   5.756 130.600  0.00  0.00    +0.000 C 
ENDROOT
BRANCH   1   2
ATOM      2  C   UNL     1      -3.741   5.918 131.580  0.00  0.00    +0.000 A 
ATOM      3  C   UNL     1      -3.576   7.119 132.310  0.00  0.00    +0.000 A 
ATOM      4  C   UNL     1      -2.302   7.541 132.754  0.00  0.00    +0.000 A 
ATOM      5  C   UNL     1      -1.167   6.752 132.546  0.00  0.00    +0.000 A 
ATOM      6  C   UNL     1      -1.328   5.471 132.022  0.00  0.00    +0.000 A 
ATOM      7  C   UNL     1      -2.623   5.014 131.623  0.00  0.00    +0.000 A 
ENDBRANCH   1   2
BRANCH   1   8
ATOM      8  C   UNL     1      -5.829   4.326 130.596  0.00  0.00    +0.000 C 
ATOM      9  C   UNL     1      -5.338   3.367 131.722  0.00  0.00    +0.000 C 
BRANCH   8  10
ATOM     10  C   UNL     1      -5.794   3.508 129.297  0.00  0.00    +0.000 C 
BRANCH  10  11
ATOM     11  N   UNL     1      -7.061   3.062 128.683  0.00  0.00    +0.000 NA
ATOM     12  C   UNL     1      -7.986   2.248 129.454  0.00  0.00    +0.000 C 
ATOM     13  C   UNL     1      -7.731   4.196 128.039  0.00  0.00    +0.000 C 
ENDBRANCH  10  11
ENDBRANCH   8  10
ENDBRANCH   1   8
BRANCH   1  14
ATOM     14  O   UNL     1      -4.713   5.937 129.102  0.00  0.00    +0.000 OA
BRANCH  14  15
ATOM     15  C   UNL     1      -3.753   6.841 128.718  0.00  0.00    +0.000 C 
ATOM     16  O   UNL     1      -3.894   8.075 128.804  0.00  0.00    +0.000 OA
BRANCH  15  18
ATOM     17  C   UNL     1      -2.563   4.817 127.871  0.00  0.00    +0.000 C 
ATOM     18  C   UNL     1      -2.415   6.310 128.260  0.00  0.00    +0.000 C 
ENDBRANCH  15  18
ENDBRANCH  14  15
ENDBRANCH   1  14
BRANCH   1  19
ATOM     19  C   UNL     1      -5.944   6.950 131.064  0.00  0.00    +0.000 C 
BRANCH  19  20
ATOM     20  C   UNL     1      -7.307   6.460 131.507  0.00  0.00    +0.000 A 
ATOM     21  C   UNL     1      -8.423   6.709 130.701  0.00  0.00    +0.000 A 
ATOM     22  C   UNL     1      -9.704   6.552 131.208  0.00  0.00    +0.000 A 
ATOM     23  C   UNL     1      -9.879   6.058 132.497  0.00  0.00    +0.000 A 
ATOM     24  C   UNL     1      -8.777   5.795 133.308  0.00  0.00    +0.000 A 
ATOM     25  C   UNL     1      -7.494   5.988 132.813  0.00  0.00    +0.000 A 
ENDBRANCH  19  20
ENDBRANCH   1  19
TORSDOF 9
ENDMDL
MODEL 8
REMARK VINA RESULT:      -5.7      2.994      5.525
REMARK  Name = Dextropropoxyphene
REMARK  13 active torsions:
REMARK  status: ('A' for Active; 'I' for Inactive)
REMARK    1  A    between atoms: C_1  and  C_2
REMARK    2  A    between atoms: C_2  and  C_3
REMARK    3  A    between atoms: C_3  and  O_5
REMARK    4  A    between atoms: O_5  and  C_6
REMARK    5  A    between atoms: C_6  and  C_7
REMARK    6  A    between atoms: C_6  and  C_14
REMARK    7  A    between atoms: C_6  and  C_20
REMARK    8  A    between atoms: C_7  and  C_8
REMARK    9  A    between atoms: C_14  and  C_15
REMARK   10  A    between atoms: C_14  and  C_16
REMARK   11  A    between atoms: C_16  and  N_17
REMARK   12  A    between atoms: N_17  and  C_18
REMARK   13  A    between atoms: N_17  and  C_19
REMARK                            x       y       z     vdW  Elec       q    Type
REMARK                         _______ _______ _______ _____ _____    ______ ____
ROOT
ATOM      1  C   UNL     1      -7.576  -1.777 127.245  0.00  0.00    +0.000 C 
ENDROOT
BRANCH   1   2
ATOM      2  C   UNL     1      -8.501  -1.908 125.888  0.00  0.00    +0.000 A 
ATOM      3  C   UNL     1      -9.041  -3.171 125.547  0.00  0.00    +0.000 A 
ATOM      4  C   UNL     1      -9.398  -3.484 124.215  0.00  0.00    +0.000 A 
ATOM      5  C   UNL     1      -9.294  -2.531 123.198  0.00  0.00    +0.000 A 
ATOM      6  C   UNL     1      -8.970  -1.219 123.538  0.00  0.00    +0.000 A 
ATOM      7  C   UNL     1      -8.663  -0.882 124.893  0.00  0.00    +0.000 A 
ENDBRANCH   1   2
BRANCH   1   8
ATOM      8  C   UNL     1      -7.607  -0.367 128.053  0.00  0.00    +0.000 C 
ATOM      9  C   UNL     1      -8.331   0.767 127.267  0.00  0.00    +0.000 C 
BRANCH   8  10
ATOM     10  C   UNL     1      -6.260   0.220 128.501  0.00  0.00    +0.000 C 
BRANCH  10  11
ATOM     11  N   UNL     1      -6.084   0.651 129.903  0.00  0.00    +0.000 NA
ATOM     12  C   UNL     1      -7.253   0.895 130.732  0.00  0.00    +0.000 C 
ATOM     13  C   UNL     1      -5.105  -0.211 130.571  0.00  0.00    +0.000 C 
ENDBRANCH  10  11
ENDBRANCH   8  10
ENDBRANCH   1   8
BRANCH   1  14
ATOM     14  O   UNL     1      -6.065  -1.948 126.960  0.00  0.00    +0.000 OA
BRANCH  14  15
ATOM     15  C   UNL     1      -5.582  -1.793 125.684  0.00  0.00    +0.000 C 
ATOM     16  O   UNL     1      -5.231  -0.697 125.208  0.00  0.00    +0.000 OA
BRANCH  15  18
ATOM     17  C   UNL     1      -5.557  -2.673 123.349  0.00  0.00    +0.000 C 
ATOM     18  C   UNL     1      -5.370  -3.031 124.845  0.00  0.00    +0.000 C 
ENDBRANCH  15  18
ENDBRANCH  14  15
ENDBRANCH   1  14
BRANCH   1  19
ATOM     19  C   UNL     1      -8.072  -2.993 128.085  0.00  0.00    +0.000 C 
BRANCH  19  20
ATOM     20  C   UNL     1      -7.336  -3.067 129.406  0.00  0.00    +0.000 A 
ATOM     21  C   UNL     1      -6.138  -3.783 129.487  0.00  0.00    +0.000 A 
ATOM     22  C   UNL     1      -5.606  -4.125 130.721  0.00  0.00    +0.000 A 
ATOM     23  C   UNL     1      -6.221  -3.673 131.885  0.00  0.00    +0.000 A 
ATOM     24  C   UNL     1      -7.409  -2.948 131.820  0.00  0.00    +0.000 A 
ATOM     25  C   UNL     1      -7.962  -2.638 130.584  0.00  0.00    +0.000 A 
ENDBRANCH  19  20
ENDBRANCH   1  19
TORSDOF 9
ENDMDL
MODEL 9
REMARK VINA RESULT:      -5.6      6.315      9.133
REMARK  Name = Dextropropoxyphene
REMARK  13 active torsions:
REMARK  status: ('A' for Active; 'I' for Inactive)
REMARK    1  A    between atoms: C_1  and  C_2
REMARK    2  A    between atoms: C_2  and  C_3
REMARK    3  A    between atoms: C_3  and  O_5
REMARK    4  A    between atoms: O_5  and  C_6
REMARK    5  A    between atoms: C_6  and  C_7
REMARK    6  A    between atoms: C_6  and  C_14
REMARK    7  A    between atoms: C_6  and  C_20
REMARK    8  A    between atoms: C_7  and  C_8
REMARK    9  A    between atoms: C_14  and  C_15
REMARK   10  A    between atoms: C_14  and  C_16
REMARK   11  A    between atoms: C_16  and  N_17
REMARK   12  A    between atoms: N_17  and  C_18
REMARK   13  A    between atoms: N_17  and  C_19
REMARK                            x       y       z     vdW  Elec       q    Type
REMARK                         _______ _______ _______ _____ _____    ______ ____
ROOT
ATOM      1  C   UNL     1      -7.825   4.873 132.121  0.00  0.00    +0.000 C 
ENDROOT
BRANCH   1   2
ATOM      2  C   UNL     1      -6.298   5.295 131.668  0.00  0.00    +0.000 A 
ATOM      3  C   UNL     1      -5.214   4.485 132.082  0.00  0.00    +0.000 A 
ATOM      4  C   UNL     1      -3.902   5.005 132.178  0.00  0.00    +0.000 A 
ATOM      5  C   UNL     1      -3.618   6.321 131.803  0.00  0.00    +0.000 A 
ATOM      6  C   UNL     1      -4.618   7.075 131.193  0.00  0.00    +0.000 A 
ATOM      7  C   UNL     1      -5.933   6.537 131.040  0.00  0.00    +0.000 A 
ENDBRANCH   1   2
BRANCH   1   8
ATOM      8  C   UNL     1      -7.991   3.829 133.356  0.00  0.00    +0.000 C 
ATOM      9  C   UNL     1      -9.208   2.873 133.185  0.00  0.00    +0.000 C 
BRANCH   8  10
ATOM     10  C   UNL     1      -8.110   4.421 134.768  0.00  0.00    +0.000 C 
BRANCH  10  11
ATOM     11  N   UNL     1      -6.944   5.091 135.378  0.00  0.00    +0.000 NA
ATOM     12  C   UNL     1      -7.141   6.002 136.494  0.00  0.00    +0.000 C 
ATOM     13  C   UNL     1      -5.889   4.111 135.649  0.00  0.00    +0.000 C 
ENDBRANCH  10  11
ENDBRANCH   8  10
ENDBRANCH   1   8
BRANCH   1  14
ATOM     14  O   UNL     1      -8.609   4.159 130.993  0.00  0.00    +0.000 OA
BRANCH  14  15
ATOM     15  C   UNL     1      -7.935   3.522 129.981  0.00  0.00    +0.000 C 
ATOM     16  O   UNL     1      -7.460   2.376 130.083  0.00  0.00    +0.000 OA
BRANCH  15  18
ATOM     17  C   UNL     1      -6.389   4.157 128.127  0.00  0.00    +0.000 C 
ATOM     18  C   UNL     1      -7.851   4.207 128.637  0.00  0.00    +0.000 C 
ENDBRANCH  15  18
ENDBRANCH  14  15
ENDBRANCH   1  14
BRANCH   1  19
ATOM     19  C   UNL     1      -8.473   6.266 132.383  0.00  0.00    +0.000 C 
BRANCH  19  20
ATOM     20  C   UNL     1      -9.676   6.473 131.487  0.00  0.00    +0.000 A 
ATOM     21  C   UNL     1      -9.514   7.119 130.256  0.00  0.00    +0.000 A 
ATOM     22  C   UNL     1     -10.617   7.592 129.561  0.00  0.00    +0.000 A 
ATOM     23  C   UNL     1     -11.897   7.342 130.046  0.00  0.00    +0.000 A 
ATOM     24  C   UNL     1     -12.074   6.690 131.265  0.00  0.00    +0.000 A 
ATOM     25  C   UNL     1     -10.968   6.249 131.980  0.00  0.00    +0.000 A 
ENDBRANCH  19  20
ENDBRANCH   1  19
TORSDOF 9
ENDMDL
