MODEL 1
REMARK VINA RESULT:      -7.9      0.000      0.000
REMARK  Name = Dextromethorphan
REMARK  3 active torsions:
REMARK  status: ('A' for Active; 'I' for Inactive)
REMARK    1  A    between atoms: N_10  and  C_11
REMARK    2  A    between atoms: C_17  and  O_18
REMARK    3  A    between atoms: O_18  and  C_19
REMARK                            x       y       z     vdW  Elec       q    Type
REMARK                         _______ _______ _______ _____ _____    ______ ____
ROOT
ATOM      1  C   UNL     1      -6.386   1.912 124.843  0.00  0.00    +0.000 C 
ATOM      2  C   UNL     1      -6.165   2.272 126.289  0.00  0.00    +0.000 C 
ATOM      3  C   UNL     1      -4.774   2.710 126.546  0.00  0.00    +0.000 C 
ATOM      4  C   UNL     1      -4.485   3.716 125.499  0.00  0.00    +0.000 C 
ATOM      5  C   UNL     1      -5.659   3.755 124.315  0.00  0.00    +0.000 C 
ATOM      6  C   UNL     1      -7.046   2.454 123.721  0.00  0.00    +0.000 C 
ATOM      7  C   UNL     1      -9.103   1.527 123.878  0.00  0.00    +0.000 C 
ATOM      8  C   UNL     1      -9.528   0.865 125.143  0.00  0.00    +0.000 C 
ATOM      9  N   UNL     1      -8.137   0.737 125.130  0.00  0.00    +0.000 NA
ATOM     10  C   UNL     1      -7.764  -0.297 123.974  0.00  0.00    +0.000 C 
ATOM     11  C   UNL     1      -7.773   2.444 124.680  0.00  0.00    +0.000 C 
ATOM     12  C   UNL     1      -8.618   2.991 122.840  0.00  0.00    +0.000 C 
ATOM     13  C   UNL     1      -7.784   3.460 121.846  0.00  0.00    +0.000 A 
ATOM     14  C   UNL     1      -6.570   3.321 122.324  0.00  0.00    +0.000 A 
ATOM     15  C   UNL     1      -5.648   4.069 121.567  0.00  0.00    +0.000 A 
ATOM     16  C   UNL     1      -6.078   4.520 120.286  0.00  0.00    +0.000 A 
ATOM     17  C   UNL     1      -7.349   4.193 119.800  0.00  0.00    +0.000 A 
ATOM     18  C   UNL     1      -8.238   3.616 120.604  0.00  0.00    +0.000 A 
ENDROOT
BRANCH  16  19
ATOM     19  O   UNL     1      -5.226   5.211 119.467  0.00  0.00    +0.000 OA
ATOM     20  C   UNL     1      -5.932   5.873 118.408  0.00  0.00    +0.000 C 
ENDBRANCH  16  19
TORSDOF 1
ENDMDL
MODEL 2
REMARK VINA RESULT:      -7.5      8.069      9.371
REMARK  Name = Dextromethorphan
REMARK  3 active torsions:
REMARK  status: ('A' for Active; 'I' for Inactive)
REMARK    1  A    between atoms: N_10  and  C_11
REMARK    2  A    between atoms: C_17  and  O_18
REMARK    3  A    between atoms: O_18  and  C_19
REMARK                            x       y       z     vdW  Elec       q    Type
REMARK                         _______ _______ _______ _____ _____    ______ ____
ROOT
ATOM      1  C   UNL     1      -7.045   5.258 131.653  0.00  0.00    +0.000 C 
ATOM      2  C   UNL     1      -5.729   5.658 132.268  0.00  0.00    +0.000 C 
ATOM      3  C   UNL     1      -4.833   6.313 131.287  0.00  0.00    +0.000 C 
ATOM      4  C   UNL     1      -5.667   7.346 130.632  0.00  0.00    +0.000 C 
ATOM      5  C   UNL     1      -7.284   7.190 131.010  0.00  0.00    +0.000 C 
ATOM      6  C   UNL     1      -8.389   5.682 131.697  0.00  0.00    +0.000 C 
ATOM      7  C   UNL     1      -9.229   4.440 133.391  0.00  0.00    +0.000 C 
ATOM      8  C   UNL     1      -8.310   3.726 134.320  0.00  0.00    +0.000 C 
ATOM      9  N   UNL     1      -7.595   3.821 133.123  0.00  0.00    +0.000 NA
ATOM     10  C   UNL     1      -8.299   2.853 132.069  0.00  0.00    +0.000 C 
ATOM     11  C   UNL     1      -7.943   5.562 132.809  0.00  0.00    +0.000 C 
ATOM     12  C   UNL     1      -9.995   5.957 132.636  0.00  0.00    +0.000 C 
ATOM     13  C   UNL     1     -10.457   6.546 131.477  0.00  0.00    +0.000 A 
ATOM     14  C   UNL     1      -9.412   6.605 130.684  0.00  0.00    +0.000 A 
ATOM     15  C   UNL     1      -9.651   7.486 129.612  0.00  0.00    +0.000 A 
ATOM     16  C   UNL     1     -11.005   7.856 129.368  0.00  0.00    +0.000 A 
ATOM     17  C   UNL     1     -12.044   7.327 130.142  0.00  0.00    +0.000 A 
ATOM     18  C   UNL     1     -11.764   6.620 131.234  0.00  0.00    +0.000 A 
ENDROOT
BRANCH  16  19
ATOM     19  O   UNL     1     -11.328   8.668 128.313  0.00  0.00    +0.000 OA
ATOM     20  C   UNL     1     -11.042   8.040 127.055  0.00  0.00    +0.000 C 
ENDBRANCH  16  19
TORSDOF 1
ENDMDL
MODEL 3
REMARK VINA RESULT:      -7.0      3.694      5.802
REMARK  Name = Dextromethorphan
REMARK  3 active torsions:
REMARK  status: ('A' for Active; 'I' for Inactive)
REMARK    1  A    between atoms: N_10  and  C_11
REMARK    2  A    between atoms: C_17  and  O_18
REMARK    3  A    between atoms: O_18  and  C_19
REMARK                            x       y       z     vdW  Elec       q    Type
REMARK                         _______ _______ _______ _____ _____    ______ ____
ROOT
ATOM      1  C   UNL     1      -7.783  -2.783 126.668  0.00  0.00    +0.000 C 
ATOM      2  C   UNL     1      -8.752  -3.475 127.591  0.00  0.00    +0.000 C 
ATOM      3  C   UNL     1      -8.261  -3.511 128.988  0.00  0.00    +0.000 C 
ATOM      4  C   UNL     1      -7.844  -2.122 129.287  0.00  0.00    +0.000 C 
ATOM      5  C   UNL     1      -7.807  -1.163 127.924  0.00  0.00    +0.000 C 
ATOM      6  C   UNL     1      -7.694  -1.558 125.975  0.00  0.00    +0.000 C 
ATOM      7  C   UNL     1      -8.649  -2.061 123.987  0.00  0.00    +0.000 C 
ATOM      8  C   UNL     1      -9.444  -3.312 123.836  0.00  0.00    +0.000 C 
ATOM      9  N   UNL     1      -8.525  -3.599 124.849  0.00  0.00    +0.000 NA
ATOM     10  C   UNL     1      -7.082  -3.686 124.174  0.00  0.00    +0.000 C 
ATOM     11  C   UNL     1      -8.763  -2.079 125.786  0.00  0.00    +0.000 C 
ATOM     12  C   UNL     1      -8.321  -0.362 124.667  0.00  0.00    +0.000 C 
ATOM     13  C   UNL     1      -7.366   0.510 125.148  0.00  0.00    +0.000 A 
ATOM     14  C   UNL     1      -6.872  -0.077 126.213  0.00  0.00    +0.000 A 
ATOM     15  C   UNL     1      -6.143   0.840 126.994  0.00  0.00    +0.000 A 
ATOM     16  C   UNL     1      -5.770   2.066 126.371  0.00  0.00    +0.000 A 
ATOM     17  C   UNL     1      -6.086   2.315 125.031  0.00  0.00    +0.000 A 
ATOM     18  C   UNL     1      -6.902   1.492 124.378  0.00  0.00    +0.000 A 
ENDROOT
BRANCH  16  19
ATOM     19  O   UNL     1      -5.016   2.990 127.045  0.00  0.00    +0.000 OA
ATOM     20  C   UNL     1      -3.682   3.066 126.522  0.00  0.00    +0.000 C 
ENDBRANCH  16  19
TORSDOF 1
ENDMDL
MODEL 4
REMARK VINA RESULT:      -6.9      6.354      8.094
REMARK  Name = Dextromethorphan
REMARK  3 active torsions:
REMARK  status: ('A' for Active; 'I' for Inactive)
REMARK    1  A    between atoms: N_10  and  C_11
REMARK    2  A    between atoms: C_17  and  O_18
REMARK    3  A    between atoms: O_18  and  C_19
REMARK                            x       y       z     vdW  Elec       q    Type
REMARK                         _______ _______ _______ _____ _____    ______ ____
ROOT
ATOM      1  C   UNL     1      -5.139  -1.331 129.546  0.00  0.00    +0.000 C 
ATOM      2  C   UNL     1      -4.796  -0.168 130.440  0.00  0.00    +0.000 C 
ATOM      3  C   UNL     1      -4.460   1.049 129.666  0.00  0.00    +0.000 C 
ATOM      4  C   UNL     1      -5.555   1.195 128.680  0.00  0.00    +0.000 C 
ATOM      5  C   UNL     1      -6.537  -0.151 128.619  0.00  0.00    +0.000 C 
ATOM      6  C   UNL     1      -6.290  -2.051 129.165  0.00  0.00    +0.000 C 
ATOM      7  C   UNL     1      -6.355  -3.703 130.710  0.00  0.00    +0.000 C 
ATOM      8  C   UNL     1      -5.518  -3.608 131.939  0.00  0.00    +0.000 C 
ATOM      9  N   UNL     1      -4.820  -2.869 130.981  0.00  0.00    +0.000 NA
ATOM     10  C   UNL     1      -4.245  -3.900 129.907  0.00  0.00    +0.000 C 
ATOM     11  C   UNL     1      -6.234  -1.938 130.363  0.00  0.00    +0.000 C 
ATOM     12  C   UNL     1      -7.738  -3.174 129.586  0.00  0.00    +0.000 C 
ATOM     13  C   UNL     1      -8.138  -2.984 128.279  0.00  0.00    +0.000 A 
ATOM     14  C   UNL     1      -7.321  -2.074 127.801  0.00  0.00    +0.000 A 
ATOM     15  C   UNL     1      -7.824  -1.537 126.600  0.00  0.00    +0.000 A 
ATOM     16  C   UNL     1      -8.861  -2.265 125.950  0.00  0.00    +0.000 A 
ATOM     17  C   UNL     1      -9.322  -3.479 126.472  0.00  0.00    +0.000 A 
ATOM     18  C   UNL     1      -8.928  -3.873 127.680  0.00  0.00    +0.000 A 
ENDROOT
BRANCH  16  19
ATOM     19  O   UNL     1      -9.370  -1.837 124.752  0.00  0.00    +0.000 OA
ATOM     20  C   UNL     1      -9.293  -2.861 123.750  0.00  0.00    +0.000 C 
ENDBRANCH  16  19
TORSDOF 1
ENDMDL
MODEL 5
REMARK VINA RESULT:      -6.8      4.224      7.538
REMARK  Name = Dextromethorphan
REMARK  3 active torsions:
REMARK  status: ('A' for Active; 'I' for Inactive)
REMARK    1  A    between atoms: N_10  and  C_11
REMARK    2  A    between atoms: C_17  and  O_18
REMARK    3  A    between atoms: O_18  and  C_19
REMARK                            x       y       z     vdW  Elec       q    Type
REMARK                         _______ _______ _______ _____ _____    ______ ____
ROOT
ATOM      1  C   UNL     1      -8.351  -0.874 124.115  0.00  0.00    +0.000 C 
ATOM      2  C   UNL     1      -9.320  -1.506 123.151  0.00  0.00    +0.000 C 
ATOM      3  C   UNL     1      -9.167  -2.978 123.093  0.00  0.00    +0.000 C 
ATOM      4  C   UNL     1      -9.160  -3.422 124.505  0.00  0.00    +0.000 C 
ATOM      5  C   UNL     1      -9.033  -2.146 125.571  0.00  0.00    +0.000 C 
ATOM      6  C   UNL     1      -8.389  -0.270 125.389  0.00  0.00    +0.000 C 
ATOM      7  C   UNL     1      -8.723   1.909 124.878  0.00  0.00    +0.000 C 
ATOM      8  C   UNL     1      -9.153   2.295 123.505  0.00  0.00    +0.000 C 
ATOM      9  N   UNL     1      -8.449   1.101 123.329  0.00  0.00    +0.000 NA
ATOM     10  C   UNL     1      -6.910   1.407 123.615  0.00  0.00    +0.000 C 
ATOM     11  C   UNL     1      -9.238   0.193 124.672  0.00  0.00    +0.000 C 
ATOM     12  C   UNL     1      -8.958   1.106 126.538  0.00  0.00    +0.000 C 
ATOM     13  C   UNL     1      -8.365   0.375 127.547  0.00  0.00    +0.000 A 
ATOM     14  C   UNL     1      -8.007  -0.756 126.984  0.00  0.00    +0.000 A 
ATOM     15  C   UNL     1      -7.706  -1.725 127.960  0.00  0.00    +0.000 A 
ATOM     16  C   UNL     1      -7.491  -1.258 129.289  0.00  0.00    +0.000 A 
ATOM     17  C   UNL     1      -7.541   0.108 129.587  0.00  0.00    +0.000 A 
ATOM     18  C   UNL     1      -7.974   0.971 128.672  0.00  0.00    +0.000 A 
ENDROOT
BRANCH  16  19
ATOM     19  O   UNL     1      -7.144  -2.129 130.288  0.00  0.00    +0.000 OA
ATOM     20  C   UNL     1      -6.976  -3.465 129.789  0.00  0.00    +0.000 C 
ENDBRANCH  16  19
TORSDOF 1
ENDMDL
MODEL 6
REMARK VINA RESULT:      -6.8      4.778      6.965
REMARK  Name = Dextromethorphan
REMARK  3 active torsions:
REMARK  status: ('A' for Active; 'I' for Inactive)
REMARK    1  A    between atoms: N_10  and  C_11
REMARK    2  A    between atoms: C_17  and  O_18
REMARK    3  A    between atoms: O_18  and  C_19
REMARK                            x       y       z     vdW  Elec       q    Type
REMARK                         _______ _______ _______ _____ _____    ______ ____
ROOT
ATOM      1  C   UNL     1      -6.732  -0.625 129.010  0.00  0.00    +0.000 C 
ATOM      2  C   UNL     1      -7.034   0.323 130.142  0.00  0.00    +0.000 C 
ATOM      3  C   UNL     1      -7.012   1.737 129.703  0.00  0.00    +0.000 C 
ATOM      4  C   UNL     1      -7.852   1.777 128.485  0.00  0.00    +0.000 C 
ATOM      5  C   UNL     1      -8.237   0.253 127.929  0.00  0.00    +0.000 C 
ATOM      6  C   UNL     1      -7.432  -1.548 128.206  0.00  0.00    +0.000 C 
ATOM      7  C   UNL     1      -7.211  -3.470 129.379  0.00  0.00    +0.000 C 
ATOM      8  C   UNL     1      -6.745  -3.432 130.793  0.00  0.00    +0.000 C 
ATOM      9  N   UNL     1      -6.181  -2.296 130.207  0.00  0.00    +0.000 NA
ATOM     10  C   UNL     1      -5.058  -2.792 129.188  0.00  0.00    +0.000 C 
ATOM     11  C   UNL     1      -7.674  -1.728 129.372  0.00  0.00    +0.000 C 
ATOM     12  C   UNL     1      -8.423  -3.134 128.010  0.00  0.00    +0.000 C 
ATOM     13  C   UNL     1      -8.581  -2.756 126.692  0.00  0.00    +0.000 A 
ATOM     14  C   UNL     1      -8.073  -1.548 126.620  0.00  0.00    +0.000 A 
ATOM     15  C   UNL     1      -8.473  -0.910 125.431  0.00  0.00    +0.000 A 
ATOM     16  C   UNL     1      -9.012  -1.737 124.403  0.00  0.00    +0.000 A 
ATOM     17  C   UNL     1      -9.095  -3.124 124.568  0.00  0.00    +0.000 A 
ATOM     18  C   UNL     1      -8.847  -3.666 125.757  0.00  0.00    +0.000 A 
ENDROOT
BRANCH  16  19
ATOM     19  O   UNL     1      -9.378  -1.202 123.196  0.00  0.00    +0.000 OA
ATOM     20  C   UNL     1      -9.419   0.232 123.245  0.00  0.00    +0.000 C 
ENDBRANCH  16  19
TORSDOF 1
ENDMDL
MODEL 7
REMARK VINA RESULT:      -6.8      4.699      7.764
REMARK  Name = Dextromethorphan
REMARK  3 active torsions:
REMARK  status: ('A' for Active; 'I' for Inactive)
REMARK    1  A    between atoms: N_10  and  C_11
REMARK    2  A    between atoms: C_17  and  O_18
REMARK    3  A    between atoms: O_18  and  C_19
REMARK                            x       y       z     vdW  Elec       q    Type
REMARK                         _______ _______ _______ _____ _____    ______ ____
ROOT
ATOM      1  C   UNL     1      -6.392  -1.110 124.179  0.00  0.00    +0.000 C 
ATOM      2  C   UNL     1      -6.513  -1.827 122.860  0.00  0.00    +0.000 C 
ATOM      3  C   UNL     1      -5.263  -2.533 122.494  0.00  0.00    +0.000 C 
ATOM      4  C   UNL     1      -4.885  -3.301 123.701  0.00  0.00    +0.000 C 
ATOM      5  C   UNL     1      -5.789  -2.873 125.035  0.00  0.00    +0.000 C 
ATOM      6  C   UNL     1      -6.867  -1.262 125.498  0.00  0.00    +0.000 C 
ATOM      7  C   UNL     1      -8.793  -0.077 125.455  0.00  0.00    +0.000 C 
ATOM      8  C   UNL     1      -9.387   0.334 124.153  0.00  0.00    +0.000 C 
ATOM      9  N   UNL     1      -8.017   0.234 123.897  0.00  0.00    +0.000 NA
ATOM     10  C   UNL     1      -7.300   1.433 124.666  0.00  0.00    +0.000 C 
ATOM     11  C   UNL     1      -7.769  -1.358 124.706  0.00  0.00    +0.000 C 
ATOM     12  C   UNL     1      -8.278  -1.318 126.740  0.00  0.00    +0.000 C 
ATOM     13  C   UNL     1      -7.318  -1.672 127.666  0.00  0.00    +0.000 A 
ATOM     14  C   UNL     1      -6.219  -1.846 126.970  0.00  0.00    +0.000 A 
ATOM     15  C   UNL     1      -5.255  -2.537 127.728  0.00  0.00    +0.000 A 
ATOM     16  C   UNL     1      -5.464  -2.603 129.136  0.00  0.00    +0.000 A 
ATOM     17  C   UNL     1      -6.563  -1.970 129.728  0.00  0.00    +0.000 A 
ATOM     18  C   UNL     1      -7.524  -1.459 128.964  0.00  0.00    +0.000 A 
ENDROOT
BRANCH  16  19
ATOM     19  O   UNL     1      -4.547  -3.213 129.950  0.00  0.00    +0.000 OA
ATOM     20  C   UNL     1      -3.401  -3.662 129.213  0.00  0.00    +0.000 C 
ENDBRANCH  16  19
TORSDOF 1
ENDMDL
MODEL 8
REMARK VINA RESULT:      -6.7      2.785      5.224
REMARK  Name = Dextromethorphan
REMARK  3 active torsions:
REMARK  status: ('A' for Active; 'I' for Inactive)
REMARK    1  A    between atoms: N_10  and  C_11
REMARK    2  A    between atoms: C_17  and  O_18
REMARK    3  A    between atoms: O_18  and  C_19
REMARK                            x       y       z     vdW  Elec       q    Type
REMARK                         _______ _______ _______ _____ _____    ______ ____
ROOT
ATOM      1  C   UNL     1      -7.810  -1.942 125.752  0.00  0.00    +0.000 C 
ATOM      2  C   UNL     1      -7.834  -3.329 125.166  0.00  0.00    +0.000 C 
ATOM      3  C   UNL     1      -8.780  -3.437 124.031  0.00  0.00    +0.000 C 
ATOM      4  C   UNL     1      -8.462  -2.288 123.153  0.00  0.00    +0.000 C 
ATOM      5  C   UNL     1      -7.426  -1.202 123.878  0.00  0.00    +0.000 C 
ATOM      6  C   UNL     1      -6.939  -0.833 125.775  0.00  0.00    +0.000 C 
ATOM      7  C   UNL     1      -5.702  -1.232 127.626  0.00  0.00    +0.000 C 
ATOM      8  C   UNL     1      -5.725  -2.578 128.263  0.00  0.00    +0.000 C 
ATOM      9  N   UNL     1      -6.968  -2.466 127.634  0.00  0.00    +0.000 NA
ATOM     10  C   UNL     1      -7.812  -1.377 128.437  0.00  0.00    +0.000 C 
ATOM     11  C   UNL     1      -6.350  -1.844 126.059  0.00  0.00    +0.000 C 
ATOM     12  C   UNL     1      -5.305  -0.038 126.258  0.00  0.00    +0.000 C 
ATOM     13  C   UNL     1      -5.737   1.057 125.537  0.00  0.00    +0.000 A 
ATOM     14  C   UNL     1      -6.847   0.666 124.955  0.00  0.00    +0.000 A 
ATOM     15  C   UNL     1      -7.209   1.554 123.924  0.00  0.00    +0.000 A 
ATOM     16  C   UNL     1      -6.576   2.831 123.920  0.00  0.00    +0.000 A 
ATOM     17  C   UNL     1      -5.669   3.185 124.925  0.00  0.00    +0.000 A 
ATOM     18  C   UNL     1      -5.245   2.268 125.789  0.00  0.00    +0.000 A 
ENDROOT
BRANCH  16  19
ATOM     19  O   UNL     1      -6.909   3.772 122.982  0.00  0.00    +0.000 OA
ATOM     20  C   UNL     1      -6.003   3.752 121.869  0.00  0.00    +0.000 C 
ENDBRANCH  16  19
TORSDOF 1
ENDMDL
MODEL 9
REMARK VINA RESULT:      -6.6      4.552      7.429
REMARK  Name = Dextromethorphan
REMARK  3 active torsions:
REMARK  status: ('A' for Active; 'I' for Inactive)
REMARK    1  A    between atoms: N_10  and  C_11
REMARK    2  A    between atoms: C_17  and  O_18
REMARK    3  A    between atoms: O_18  and  C_19
REMARK                            x       y       z     vdW  Elec       q    Type
REMARK                         _______ _______ _______ _____ _____    ______ ____
ROOT
ATOM      1  C   UNL     1      -7.450   0.971 125.602  0.00  0.00    +0.000 C 
ATOM      2  C   UNL     1      -6.333   1.683 124.884  0.00  0.00    +0.000 C 
ATOM      3  C   UNL     1      -5.402   2.348 125.825  0.00  0.00    +0.000 C 
ATOM      4  C   UNL     1      -5.070   1.317 126.833  0.00  0.00    +0.000 C 
ATOM      5  C   UNL     1      -6.043  -0.031 126.708  0.00  0.00    +0.000 C 
ATOM      6  C   UNL     1      -7.828  -0.357 125.886  0.00  0.00    +0.000 C 
ATOM      7  C   UNL     1      -9.141  -0.871 124.116  0.00  0.00    +0.000 C 
ATOM      8  C   UNL     1      -9.134  -0.004 122.905  0.00  0.00    +0.000 C 
ATOM      9  N   UNL     1      -8.790   0.853 123.953  0.00  0.00    +0.000 NA
ATOM     10  C   UNL     1     -10.090   1.048 124.857  0.00  0.00    +0.000 C 
ATOM     11  C   UNL     1      -7.567  -0.228 124.717  0.00  0.00    +0.000 C 
ATOM     12  C   UNL     1      -8.379  -2.064 125.322  0.00  0.00    +0.000 C 
ATOM     13  C   UNL     1      -8.265  -2.432 126.647  0.00  0.00    +0.000 A 
ATOM     14  C   UNL     1      -7.728  -1.393 127.244  0.00  0.00    +0.000 A 
ATOM     15  C   UNL     1      -7.240  -1.748 128.516  0.00  0.00    +0.000 A 
ATOM     16  C   UNL     1      -7.699  -2.980 129.064  0.00  0.00    +0.000 A 
ATOM     17  C   UNL     1      -8.625  -3.771 128.375  0.00  0.00    +0.000 A 
ATOM     18  C   UNL     1      -8.943  -3.476 127.118  0.00  0.00    +0.000 A 
ENDROOT
BRANCH  16  19
ATOM     19  O   UNL     1      -7.311  -3.374 130.318  0.00  0.00    +0.000 OA
ATOM     20  C   UNL     1      -6.130  -4.187 130.274  0.00  0.00    +0.000 C 
ENDBRANCH  16  19
TORSDOF 1
ENDMDL
