MODEL 1
REMARK VINA RESULT:      -5.5      0.000      0.000
REMARK  Name = Dextroamphetamine
REMARK  4 active torsions:
REMARK  status: ('A' for Active; 'I' for Inactive)
REMARK    1  A    between atoms: C_1  and  C_2
REMARK    2  A    between atoms: C_2  and  N_3
REMARK    3  A    between atoms: C_2  and  C_4
REMARK    4  A    between atoms: C_4  and  C_5
REMARK                            x       y       z     vdW  Elec       q    Type
REMARK                         _______ _______ _______ _____ _____    ______ ____
ROOT
ATOM      1  C   UNL     1     -10.740   8.478 127.844  0.00  0.00    +0.000 C 
ENDROOT
BRANCH   1   2
ATOM      2  C   UNL     1     -11.244   7.894 129.150  0.00  0.00    +0.000 A 
ATOM      3  C   UNL     1     -12.414   8.356 129.778  0.00  0.00    +0.000 A 
ATOM      4  C   UNL     1     -12.848   7.816 130.984  0.00  0.00    +0.000 A 
ATOM      5  C   UNL     1     -12.113   6.811 131.590  0.00  0.00    +0.000 A 
ATOM      6  C   UNL     1     -10.940   6.346 130.995  0.00  0.00    +0.000 A 
ATOM      7  C   UNL     1     -10.506   6.886 129.779  0.00  0.00    +0.000 A 
ENDBRANCH   1   2
BRANCH   1   9
ATOM      8  C   UNL     1     -12.408   6.983 126.641  0.00  0.00    +0.000 C 
ATOM      9  C   UNL     1     -11.012   7.615 126.592  0.00  0.00    +0.000 C 
BRANCH   9  10
ATOM     10  N   UNL     1     -10.021   6.543 126.446  0.00  0.00    +0.000 NA
ATOM     11  H   UNL     1      -9.551   6.629 125.547  0.00  0.00    +0.000 HD
ATOM     12  H   UNL     1     -10.491   5.639 126.445  0.00  0.00    +0.000 HD
ENDBRANCH   9  10
ENDBRANCH   1   9
TORSDOF 3
ENDMDL
MODEL 2
REMARK VINA RESULT:      -5.4      2.643      4.191
REMARK  Name = Dextroamphetamine
REMARK  4 active torsions:
REMARK  status: ('A' for Active; 'I' for Inactive)
REMARK    1  A    between atoms: C_1  and  C_2
REMARK    2  A    between atoms: C_2  and  N_3
REMARK    3  A    between atoms: C_2  and  C_4
REMARK    4  A    between atoms: C_4  and  C_5
REMARK                            x       y       z     vdW  Elec       q    Type
REMARK                         _______ _______ _______ _____ _____    ______ ____
ROOT
ATOM      1  C   UNL     1     -12.217   6.710 131.523  0.00  0.00    +0.000 C 
ENDROOT
BRANCH   1   2
ATOM      2  C   UNL     1     -12.701   7.394 130.259  0.00  0.00    +0.000 A 
ATOM      3  C   UNL     1     -13.132   6.672 129.131  0.00  0.00    +0.000 A 
ATOM      4  C   UNL     1     -13.557   7.321 127.976  0.00  0.00    +0.000 A 
ATOM      5  C   UNL     1     -13.547   8.704 127.924  0.00  0.00    +0.000 A 
ATOM      6  C   UNL     1     -13.108   9.444 129.024  0.00  0.00    +0.000 A 
ATOM      7  C   UNL     1     -12.687   8.790 130.187  0.00  0.00    +0.000 A 
ENDBRANCH   1   2
BRANCH   1   9
ATOM      8  C   UNL     1     -10.474   4.965 130.902  0.00  0.00    +0.000 C 
ATOM      9  C   UNL     1     -10.716   6.341 131.534  0.00  0.00    +0.000 C 
BRANCH   9  10
ATOM     10  N   UNL     1     -10.171   6.330 132.896  0.00  0.00    +0.000 NA
ATOM     11  H   UNL     1      -9.924   7.277 133.175  0.00  0.00    +0.000 HD
ATOM     12  H   UNL     1      -9.310   5.785 132.916  0.00  0.00    +0.000 HD
ENDBRANCH   9  10
ENDBRANCH   1   9
TORSDOF 3
ENDMDL
MODEL 3
REMARK VINA RESULT:      -5.4      2.651      4.087
REMARK  Name = Dextroamphetamine
REMARK  4 active torsions:
REMARK  status: ('A' for Active; 'I' for Inactive)
REMARK    1  A    between atoms: C_1  and  C_2
REMARK    2  A    between atoms: C_2  and  N_3
REMARK    3  A    between atoms: C_2  and  C_4
REMARK    4  A    between atoms: C_4  and  C_5
REMARK                            x       y       z     vdW  Elec       q    Type
REMARK                         _______ _______ _______ _____ _____    ______ ____
ROOT
ATOM      1  C   UNL     1     -12.183   6.719 131.525  0.00  0.00    +0.000 C 
ENDROOT
BRANCH   1   2
ATOM      2  C   UNL     1     -12.654   7.389 130.248  0.00  0.00    +0.000 A 
ATOM      3  C   UNL     1     -12.675   8.788 130.098  0.00  0.00    +0.000 A 
ATOM      4  C   UNL     1     -13.127   9.381 128.924  0.00  0.00    +0.000 A 
ATOM      5  C   UNL     1     -13.579   8.588 127.884  0.00  0.00    +0.000 A 
ATOM      6  C   UNL     1     -13.584   7.198 128.014  0.00  0.00    +0.000 A 
ATOM      7  C   UNL     1     -13.123   6.601 129.193  0.00  0.00    +0.000 A 
ENDBRANCH   1   2
BRANCH   1   9
ATOM      8  C   UNL     1     -10.429   4.972 130.942  0.00  0.00    +0.000 C 
ATOM      9  C   UNL     1     -10.682   6.353 131.557  0.00  0.00    +0.000 C 
BRANCH   9  10
ATOM     10  N   UNL     1     -10.152   6.358 132.925  0.00  0.00    +0.000 NA
ATOM     11  H   UNL     1     -10.357   7.249 133.370  0.00  0.00    +0.000 HD
ATOM     12  H   UNL     1      -9.137   6.271 132.899  0.00  0.00    +0.000 HD
ENDBRANCH   9  10
ENDBRANCH   1   9
TORSDOF 3
ENDMDL
MODEL 4
REMARK VINA RESULT:      -5.2      2.121      2.813
REMARK  Name = Dextroamphetamine
REMARK  4 active torsions:
REMARK  status: ('A' for Active; 'I' for Inactive)
REMARK    1  A    between atoms: C_1  and  C_2
REMARK    2  A    between atoms: C_2  and  N_3
REMARK    3  A    between atoms: C_2  and  C_4
REMARK    4  A    between atoms: C_4  and  C_5
REMARK                            x       y       z     vdW  Elec       q    Type
REMARK                         _______ _______ _______ _____ _____    ______ ____
ROOT
ATOM      1  C   UNL     1     -11.508   8.406 128.754  0.00  0.00    +0.000 C 
ENDROOT
BRANCH   1   2
ATOM      2  C   UNL     1     -10.919   7.620 129.909  0.00  0.00    +0.000 A 
ATOM      3  C   UNL     1      -9.540   7.366 130.020  0.00  0.00    +0.000 A 
ATOM      4  C   UNL     1      -9.024   6.628 131.081  0.00  0.00    +0.000 A 
ATOM      5  C   UNL     1      -9.880   6.120 132.043  0.00  0.00    +0.000 A 
ATOM      6  C   UNL     1     -11.254   6.344 131.947  0.00  0.00    +0.000 A 
ATOM      7  C   UNL     1     -11.772   7.091 130.884  0.00  0.00    +0.000 A 
ENDBRANCH   1   2
BRANCH   1   9
ATOM      8  C   UNL     1     -13.761   7.787 127.751  0.00  0.00    +0.000 C 
ATOM      9  C   UNL     1     -13.037   8.618 128.817  0.00  0.00    +0.000 C 
BRANCH   9  10
ATOM     10  N   UNL     1     -13.398  10.028 128.632  0.00  0.00    +0.000 NA
ATOM     11  H   UNL     1     -12.691  10.622 129.060  0.00  0.00    +0.000 HD
ATOM     12  H   UNL     1     -14.275  10.224 129.113  0.00  0.00    +0.000 HD
ENDBRANCH   9  10
ENDBRANCH   1   9
TORSDOF 3
ENDMDL
MODEL 5
REMARK VINA RESULT:      -5.0     10.225     10.958
REMARK  Name = Dextroamphetamine
REMARK  4 active torsions:
REMARK  status: ('A' for Active; 'I' for Inactive)
REMARK    1  A    between atoms: C_1  and  C_2
REMARK    2  A    between atoms: C_2  and  N_3
REMARK    3  A    between atoms: C_2  and  C_4
REMARK    4  A    between atoms: C_4  and  C_5
REMARK                            x       y       z     vdW  Elec       q    Type
REMARK                         _______ _______ _______ _____ _____    ______ ____
ROOT
ATOM      1  C   UNL     1      -8.961  -1.788 125.071  0.00  0.00    +0.000 C 
ENDROOT
BRANCH   1   2
ATOM      2  C   UNL     1      -8.651  -2.331 126.453  0.00  0.00    +0.000 A 
ATOM      3  C   UNL     1      -9.156  -3.563 126.907  0.00  0.00    +0.000 A 
ATOM      4  C   UNL     1      -8.872  -4.033 128.185  0.00  0.00    +0.000 A 
ATOM      5  C   UNL     1      -8.088  -3.275 129.037  0.00  0.00    +0.000 A 
ATOM      6  C   UNL     1      -7.588  -2.042 128.616  0.00  0.00    +0.000 A 
ATOM      7  C   UNL     1      -7.869  -1.571 127.329  0.00  0.00    +0.000 A 
ENDBRANCH   1   2
BRANCH   1   9
ATOM      8  C   UNL     1      -8.052  -2.123 122.720  0.00  0.00    +0.000 C 
ATOM      9  C   UNL     1      -8.751  -2.787 123.912  0.00  0.00    +0.000 C 
BRANCH   9  10
ATOM     10  N   UNL     1     -10.021  -3.355 123.448  0.00  0.00    +0.000 NA
ATOM     11  H   UNL     1     -10.502  -2.683 122.854  0.00  0.00    +0.000 HD
ATOM     12  H   UNL     1     -10.632  -3.527 124.246  0.00  0.00    +0.000 HD
ENDBRANCH   9  10
ENDBRANCH   1   9
TORSDOF 3
ENDMDL
MODEL 6
REMARK VINA RESULT:      -4.9      2.505      4.186
REMARK  Name = Dextroamphetamine
REMARK  4 active torsions:
REMARK  status: ('A' for Active; 'I' for Inactive)
REMARK    1  A    between atoms: C_1  and  C_2
REMARK    2  A    between atoms: C_2  and  N_3
REMARK    3  A    between atoms: C_2  and  C_4
REMARK    4  A    between atoms: C_4  and  C_5
REMARK                            x       y       z     vdW  Elec       q    Type
REMARK                         _______ _______ _______ _____ _____    ______ ____
ROOT
ATOM      1  C   UNL     1     -10.765   5.692 130.912  0.00  0.00    +0.000 C 
ENDROOT
BRANCH   1   2
ATOM      2  C   UNL     1     -11.260   6.899 130.137  0.00  0.00    +0.000 A 
ATOM      3  C   UNL     1     -12.423   7.600 130.504  0.00  0.00    +0.000 A 
ATOM      4  C   UNL     1     -12.868   8.695 129.769  0.00  0.00    +0.000 A 
ATOM      5  C   UNL     1     -12.165   9.099 128.647  0.00  0.00    +0.000 A 
ATOM      6  C   UNL     1     -11.017   8.409 128.253  0.00  0.00    +0.000 A 
ATOM      7  C   UNL     1     -10.567   7.313 128.996  0.00  0.00    +0.000 A 
ENDBRANCH   1   2
BRANCH   1   9
ATOM      8  C   UNL     1      -8.483   6.269 131.875  0.00  0.00    +0.000 C 
ATOM      9  C   UNL     1      -9.963   6.019 132.191  0.00  0.00    +0.000 C 
BRANCH   9  10
ATOM     10  N   UNL     1     -10.051   4.937 133.178  0.00  0.00    +0.000 NA
ATOM     11  H   UNL     1      -9.739   4.064 132.759  0.00  0.00    +0.000 HD
ATOM     12  H   UNL     1     -11.023   4.800 133.450  0.00  0.00    +0.000 HD
ENDBRANCH   9  10
ENDBRANCH   1   9
TORSDOF 3
ENDMDL
MODEL 7
REMARK VINA RESULT:      -4.8      7.529      9.747
REMARK  Name = Dextroamphetamine
REMARK  4 active torsions:
REMARK  status: ('A' for Active; 'I' for Inactive)
REMARK    1  A    between atoms: C_1  and  C_2
REMARK    2  A    between atoms: C_2  and  N_3
REMARK    3  A    between atoms: C_2  and  C_4
REMARK    4  A    between atoms: C_4  and  C_5
REMARK                            x       y       z     vdW  Elec       q    Type
REMARK                         _______ _______ _______ _____ _____    ______ ____
ROOT
ATOM      1  C   UNL     1      -6.038   3.537 124.002  0.00  0.00    +0.000 C 
ENDROOT
BRANCH   1   2
ATOM      2  C   UNL     1      -6.235   3.785 122.519  0.00  0.00    +0.000 A 
ATOM      3  C   UNL     1      -5.220   4.319 121.705  0.00  0.00    +0.000 A 
ATOM      4  C   UNL     1      -5.428   4.554 120.350  0.00  0.00    +0.000 A 
ATOM      5  C   UNL     1      -6.660   4.269 119.786  0.00  0.00    +0.000 A 
ATOM      6  C   UNL     1      -7.689   3.753 120.576  0.00  0.00    +0.000 A 
ATOM      7  C   UNL     1      -7.477   3.512 121.937  0.00  0.00    +0.000 A 
ENDBRANCH   1   2
BRANCH   1   9
ATOM      8  C   UNL     1      -5.091   4.539 126.139  0.00  0.00    +0.000 C 
ATOM      9  C   UNL     1      -5.902   4.811 124.867  0.00  0.00    +0.000 C 
BRANCH   9  10
ATOM     10  N   UNL     1      -7.212   5.345 125.256  0.00  0.00    +0.000 NA
ATOM     11  H   UNL     1      -7.239   6.348 125.081  0.00  0.00    +0.000 HD
ATOM     12  H   UNL     1      -7.349   5.220 126.257  0.00  0.00    +0.000 HD
ENDBRANCH   9  10
ENDBRANCH   1   9
TORSDOF 3
ENDMDL
MODEL 8
REMARK VINA RESULT:      -4.5     11.257     12.590
REMARK  Name = Dextroamphetamine
REMARK  4 active torsions:
REMARK  status: ('A' for Active; 'I' for Inactive)
REMARK    1  A    between atoms: C_1  and  C_2
REMARK    2  A    between atoms: C_2  and  N_3
REMARK    3  A    between atoms: C_2  and  C_4
REMARK    4  A    between atoms: C_4  and  C_5
REMARK                            x       y       z     vdW  Elec       q    Type
REMARK                         _______ _______ _______ _____ _____    ______ ____
ROOT
ATOM      1  C   UNL     1      -8.243  -4.072 125.516  0.00  0.00    +0.000 C 
ENDROOT
BRANCH   1   2
ATOM      2  C   UNL     1      -7.502  -3.334 124.418  0.00  0.00    +0.000 A 
ATOM      3  C   UNL     1      -6.107  -3.421 124.262  0.00  0.00    +0.000 A 
ATOM      4  C   UNL     1      -5.447  -2.721 123.257  0.00  0.00    +0.000 A 
ATOM      5  C   UNL     1      -6.170  -1.912 122.397  0.00  0.00    +0.000 A 
ATOM      6  C   UNL     1      -7.553  -1.796 122.541  0.00  0.00    +0.000 A 
ATOM      7  C   UNL     1      -8.217  -2.504 123.548  0.00  0.00    +0.000 A 
ENDBRANCH   1   2
BRANCH   1   9
ATOM      8  C   UNL     1      -7.691  -2.173 127.114  0.00  0.00    +0.000 C 
ATOM      9  C   UNL     1      -8.755  -3.184 126.673  0.00  0.00    +0.000 C 
BRANCH   9  10
ATOM     10  N   UNL     1      -9.149  -3.985 127.838  0.00  0.00    +0.000 NA
ATOM     11  H   UNL     1     -10.158  -3.939 127.960  0.00  0.00    +0.000 HD
ATOM     12  H   UNL     1      -8.734  -3.590 128.681  0.00  0.00    +0.000 HD
ENDBRANCH   9  10
ENDBRANCH   1   9
TORSDOF 3
ENDMDL
MODEL 9
REMARK VINA RESULT:      -4.5     11.027     11.462
REMARK  Name = Dextroamphetamine
REMARK  4 active torsions:
REMARK  status: ('A' for Active; 'I' for Inactive)
REMARK    1  A    between atoms: C_1  and  C_2
REMARK    2  A    between atoms: C_2  and  N_3
REMARK    3  A    between atoms: C_2  and  C_4
REMARK    4  A    between atoms: C_4  and  C_5
REMARK                            x       y       z     vdW  Elec       q    Type
REMARK                         _______ _______ _______ _____ _____    ______ ____
ROOT
ATOM      1  C   UNL     1      -5.999  -1.847 125.424  0.00  0.00    +0.000 C 
ENDROOT
BRANCH   1   2
ATOM      2  C   UNL     1      -6.917  -2.451 126.470  0.00  0.00    +0.000 A 
ATOM      3  C   UNL     1      -8.126  -3.086 126.131  0.00  0.00    +0.000 A 
ATOM      4  C   UNL     1      -8.960  -3.618 127.109  0.00  0.00    +0.000 A 
ATOM      5  C   UNL     1      -8.607  -3.515 128.443  0.00  0.00    +0.000 A 
ATOM      6  C   UNL     1      -7.420  -2.876 128.806  0.00  0.00    +0.000 A 
ATOM      7  C   UNL     1      -6.579  -2.346 127.822  0.00  0.00    +0.000 A 
ENDBRANCH   1   2
BRANCH   1   9
ATOM      8  C   UNL     1      -4.887  -3.149 123.544  0.00  0.00    +0.000 C 
ATOM      9  C   UNL     1      -6.159  -2.424 124.000  0.00  0.00    +0.000 C 
BRANCH   9  10
ATOM     10  N   UNL     1      -6.472  -1.375 123.022  0.00  0.00    +0.000 NA
ATOM     11  H   UNL     1      -7.437  -1.470 122.714  0.00  0.00    +0.000 HD
ATOM     12  H   UNL     1      -5.889  -1.492 122.195  0.00  0.00    +0.000 HD
ENDBRANCH   9  10
ENDBRANCH   1   9
TORSDOF 3
ENDMDL
