MODEL 1
REMARK VINA RESULT:      -7.4      0.000      0.000
REMARK  Name = Dezocine
REMARK  3 active torsions:
REMARK  status: ('A' for Active; 'I' for Inactive)
REMARK    1  A    between atoms: C_7  and  O_8
REMARK    2  A    between atoms: C_11  and  C_12
REMARK    3  A    between atoms: C_18  and  N_19
REMARK                            x       y       z     vdW  Elec       q    Type
REMARK                         _______ _______ _______ _____ _____    ______ ____
ROOT
ATOM      1  C   UNL     1      -8.638  -2.733 126.847  0.00  0.00    +0.000 C 
ATOM      2  C   UNL     1      -8.374  -3.382 128.347  0.00  0.00    +0.000 C 
ATOM      3  C   UNL     1      -6.955  -3.299 128.936  0.00  0.00    +0.000 A 
ATOM      4  C   UNL     1      -6.545  -3.989 130.116  0.00  0.00    +0.000 A 
ATOM      5  C   UNL     1      -5.189  -3.997 130.521  0.00  0.00    +0.000 A 
ATOM      6  C   UNL     1      -4.245  -3.326 129.789  0.00  0.00    +0.000 A 
ATOM      7  C   UNL     1      -4.655  -2.547 128.706  0.00  0.00    +0.000 A 
ATOM      8  C   UNL     1      -6.014  -2.471 128.333  0.00  0.00    +0.000 A 
ATOM      9  C   UNL     1      -6.385  -1.595 127.131  0.00  0.00    +0.000 C 
ATOM     10  C   UNL     1      -5.704  -0.224 127.193  0.00  0.00    +0.000 C 
ATOM     11  C   UNL     1      -5.735  -2.393 125.999  0.00  0.00    +0.000 C 
ATOM     12  C   UNL     1      -6.014  -1.744 124.690  0.00  0.00    +0.000 C 
ATOM     13  C   UNL     1      -6.325  -2.824 123.707  0.00  0.00    +0.000 C 
ATOM     14  C   UNL     1      -7.862  -2.829 123.765  0.00  0.00    +0.000 C 
ATOM     15  C   UNL     1      -8.393  -3.473 125.280  0.00  0.00    +0.000 C 
ATOM     16  C   UNL     1      -7.965  -1.373 127.034  0.00  0.00    +0.000 C 
ENDROOT
BRANCH  16  17
ATOM     17  N   UNL     1      -8.634  -0.474 126.089  0.00  0.00    +0.000 NA
ATOM     18  H   UNL     1      -9.097  -1.011 125.359  0.00  0.00    +0.000 HD
ATOM     19  H   UNL     1      -7.984   0.159 125.643  0.00  0.00    +0.000 HD
ENDBRANCH  16  17
BRANCH   6  20
ATOM     20  O   UNL     1      -2.908  -3.338 130.026  0.00  0.00    +0.000 OA
ATOM     21  H   UNL     1      -2.735  -3.795 130.872  0.00  0.00    +0.000 HD
ENDBRANCH   6  20
TORSDOF 2
ENDMDL
MODEL 2
REMARK VINA RESULT:      -6.9      3.933      5.909
REMARK  Name = Dezocine
REMARK  3 active torsions:
REMARK  status: ('A' for Active; 'I' for Inactive)
REMARK    1  A    between atoms: C_7  and  O_8
REMARK    2  A    between atoms: C_11  and  C_12
REMARK    3  A    between atoms: C_18  and  N_19
REMARK                            x       y       z     vdW  Elec       q    Type
REMARK                         _______ _______ _______ _____ _____    ______ ____
ROOT
ATOM      1  C   UNL     1      -7.360  -1.585 126.117  0.00  0.00    +0.000 C 
ATOM      2  C   UNL     1      -7.764  -0.062 126.624  0.00  0.00    +0.000 C 
ATOM      3  C   UNL     1      -8.083   1.000 125.557  0.00  0.00    +0.000 A 
ATOM      4  C   UNL     1      -8.245   2.388 125.845  0.00  0.00    +0.000 A 
ATOM      5  C   UNL     1      -8.384   3.336 124.803  0.00  0.00    +0.000 A 
ATOM      6  C   UNL     1      -8.380   2.930 123.494  0.00  0.00    +0.000 A 
ATOM      7  C   UNL     1      -8.348   1.565 123.208  0.00  0.00    +0.000 A 
ATOM      8  C   UNL     1      -8.282   0.603 124.239  0.00  0.00    +0.000 A 
ATOM      9  C   UNL     1      -8.248  -0.878 123.844  0.00  0.00    +0.000 C 
ATOM     10  C   UNL     1      -9.303  -1.209 122.785  0.00  0.00    +0.000 C 
ATOM     11  C   UNL     1      -6.872  -0.953 123.179  0.00  0.00    +0.000 C 
ATOM     12  C   UNL     1      -6.588  -2.349 122.750  0.00  0.00    +0.000 C 
ATOM     13  C   UNL     1      -5.160  -2.639 123.073  0.00  0.00    +0.000 C 
ATOM     14  C   UNL     1      -5.312  -3.341 124.433  0.00  0.00    +0.000 C 
ATOM     15  C   UNL     1      -5.790  -2.195 125.637  0.00  0.00    +0.000 C 
ATOM     16  C   UNL     1      -8.484  -1.826 125.110  0.00  0.00    +0.000 C 
ENDROOT
BRANCH  16  17
ATOM     17  N   UNL     1      -8.652  -3.281 125.053  0.00  0.00    +0.000 NA
ATOM     18  H   UNL     1      -9.134  -3.613 125.886  0.00  0.00    +0.000 HD
ATOM     19  H   UNL     1      -7.764  -3.764 124.996  0.00  0.00    +0.000 HD
ENDBRANCH  16  17
BRANCH   6  20
ATOM     20  O   UNL     1      -8.413   3.752 122.414  0.00  0.00    +0.000 OA
ATOM     21  H   UNL     1      -9.237   4.276 122.433  0.00  0.00    +0.000 HD
ENDBRANCH   6  20
TORSDOF 2
ENDMDL
MODEL 3
REMARK VINA RESULT:      -6.7      3.708      6.025
REMARK  Name = Dezocine
REMARK  3 active torsions:
REMARK  status: ('A' for Active; 'I' for Inactive)
REMARK    1  A    between atoms: C_7  and  O_8
REMARK    2  A    between atoms: C_11  and  C_12
REMARK    3  A    between atoms: C_18  and  N_19
REMARK                            x       y       z     vdW  Elec       q    Type
REMARK                         _______ _______ _______ _____ _____    ______ ____
ROOT
ATOM      1  C   UNL     1      -8.800  -2.756 124.121  0.00  0.00    +0.000 C 
ATOM      2  C   UNL     1      -9.423  -1.649 123.060  0.00  0.00    +0.000 C 
ATOM      3  C   UNL     1      -9.071  -0.165 123.266  0.00  0.00    +0.000 A 
ATOM      4  C   UNL     1      -9.697   0.904 122.556  0.00  0.00    +0.000 A 
ATOM      5  C   UNL     1      -9.441   2.253 122.899  0.00  0.00    +0.000 A 
ATOM      6  C   UNL     1      -8.573   2.556 123.915  0.00  0.00    +0.000 A 
ATOM      7  C   UNL     1      -7.863   1.523 124.530  0.00  0.00    +0.000 A 
ATOM      8  C   UNL     1      -8.054   0.177 124.150  0.00  0.00    +0.000 A 
ATOM      9  C   UNL     1      -7.238  -0.900 124.874  0.00  0.00    +0.000 C 
ATOM     10  C   UNL     1      -5.761  -0.514 124.990  0.00  0.00    +0.000 C 
ATOM     11  C   UNL     1      -7.857  -0.819 126.272  0.00  0.00    +0.000 C 
ATOM     12  C   UNL     1      -7.243  -1.840 127.162  0.00  0.00    +0.000 C 
ATOM     13  C   UNL     1      -8.336  -2.441 127.982  0.00  0.00    +0.000 C 
ATOM     14  C   UNL     1      -8.653  -3.699 127.155  0.00  0.00    +0.000 C 
ATOM     15  C   UNL     1      -9.433  -3.251 125.677  0.00  0.00    +0.000 C 
ATOM     16  C   UNL     1      -7.339  -2.310 124.128  0.00  0.00    +0.000 C 
ENDROOT
BRANCH  16  17
ATOM     17  N   UNL     1      -6.568  -3.506 124.479  0.00  0.00    +0.000 NA
ATOM     18  H   UNL     1      -7.046  -4.343 124.151  0.00  0.00    +0.000 HD
ATOM     19  H   UNL     1      -6.439  -3.595 125.478  0.00  0.00    +0.000 HD
ENDBRANCH  16  17
BRANCH   6  20
ATOM     20  O   UNL     1      -8.321   3.802 124.392  0.00  0.00    +0.000 OA
ATOM     21  H   UNL     1      -7.562   3.764 125.006  0.00  0.00    +0.000 HD
ENDBRANCH   6  20
TORSDOF 2
ENDMDL
MODEL 4
REMARK VINA RESULT:      -6.7      4.135      6.232
REMARK  Name = Dezocine
REMARK  3 active torsions:
REMARK  status: ('A' for Active; 'I' for Inactive)
REMARK    1  A    between atoms: C_7  and  O_8
REMARK    2  A    between atoms: C_11  and  C_12
REMARK    3  A    between atoms: C_18  and  N_19
REMARK                            x       y       z     vdW  Elec       q    Type
REMARK                         _______ _______ _______ _____ _____    ______ ____
ROOT
ATOM      1  C   UNL     1      -6.460  -0.433 126.113  0.00  0.00    +0.000 C 
ATOM      2  C   UNL     1      -6.004   1.137 126.373  0.00  0.00    +0.000 C 
ATOM      3  C   UNL     1      -6.139   2.137 125.211  0.00  0.00    +0.000 A 
ATOM      4  C   UNL     1      -5.598   3.457 125.234  0.00  0.00    +0.000 A 
ATOM      5  C   UNL     1      -5.621   4.274 124.079  0.00  0.00    +0.000 A 
ATOM      6  C   UNL     1      -6.179   3.811 122.916  0.00  0.00    +0.000 A 
ATOM      7  C   UNL     1      -6.820   2.572 122.918  0.00  0.00    +0.000 A 
ATOM      8  C   UNL     1      -6.869   1.776 124.083  0.00  0.00    +0.000 A 
ATOM      9  C   UNL     1      -7.590   0.426 124.006  0.00  0.00    +0.000 C 
ATOM     10  C   UNL     1      -8.947   0.544 123.305  0.00  0.00    +0.000 C 
ATOM     11  C   UNL     1      -6.644  -0.338 123.076  0.00  0.00    +0.000 C 
ATOM     12  C   UNL     1      -7.126  -1.733 122.890  0.00  0.00    +0.000 C 
ATOM     13  C   UNL     1      -5.934  -2.631 122.933  0.00  0.00    +0.000 C 
ATOM     14  C   UNL     1      -5.960  -3.070 124.407  0.00  0.00    +0.000 C 
ATOM     15  C   UNL     1      -5.523  -1.742 125.426  0.00  0.00    +0.000 C 
ATOM     16  C   UNL     1      -7.822  -0.198 125.459  0.00  0.00    +0.000 C 
ENDROOT
BRANCH  16  17
ATOM     17  N   UNL     1      -8.604  -1.405 125.744  0.00  0.00    +0.000 NA
ATOM     18  H   UNL     1      -9.016  -1.769 124.887  0.00  0.00    +0.000 HD
ATOM     19  H   UNL     1      -9.356  -1.225 126.397  0.00  0.00    +0.000 HD
ENDBRANCH  16  17
BRANCH   6  20
ATOM     20  O   UNL     1      -6.176   4.464 121.726  0.00  0.00    +0.000 OA
ATOM     21  H   UNL     1      -7.079   4.457 121.352  0.00  0.00    +0.000 HD
ENDBRANCH   6  20
TORSDOF 2
ENDMDL
MODEL 5
REMARK VINA RESULT:      -6.6      2.662      4.111
REMARK  Name = Dezocine
REMARK  3 active torsions:
REMARK  status: ('A' for Active; 'I' for Inactive)
REMARK    1  A    between atoms: C_7  and  O_8
REMARK    2  A    between atoms: C_11  and  C_12
REMARK    3  A    between atoms: C_18  and  N_19
REMARK                            x       y       z     vdW  Elec       q    Type
REMARK                         _______ _______ _______ _____ _____    ______ ____
ROOT
ATOM      1  C   UNL     1      -5.947  -0.627 125.044  0.00  0.00    +0.000 C 
ATOM      2  C   UNL     1      -5.657  -1.310 126.523  0.00  0.00    +0.000 C 
ATOM      3  C   UNL     1      -6.724  -2.248 127.115  0.00  0.00    +0.000 A 
ATOM      4  C   UNL     1      -6.694  -2.736 128.455  0.00  0.00    +0.000 A 
ATOM      5  C   UNL     1      -7.783  -3.469 128.987  0.00  0.00    +0.000 A 
ATOM      6  C   UNL     1      -8.882  -3.734 128.213  0.00  0.00    +0.000 A 
ATOM      7  C   UNL     1      -8.866  -3.368 126.866  0.00  0.00    +0.000 A 
ATOM      8  C   UNL     1      -7.758  -2.701 126.302  0.00  0.00    +0.000 A 
ATOM      9  C   UNL     1      -7.817  -2.331 124.816  0.00  0.00    +0.000 C 
ATOM     10  C   UNL     1      -8.312  -3.500 123.958  0.00  0.00    +0.000 C 
ATOM     11  C   UNL     1      -8.916  -1.267 124.841  0.00  0.00    +0.000 C 
ATOM     12  C   UNL     1      -9.118  -0.708 123.478  0.00  0.00    +0.000 C 
ATOM     13  C   UNL     1      -9.299   0.767 123.616  0.00  0.00    +0.000 C 
ATOM     14  C   UNL     1      -7.866   1.257 123.346  0.00  0.00    +0.000 C 
ATOM     15  C   UNL     1      -6.839   0.833 124.672  0.00  0.00    +0.000 C 
ATOM     16  C   UNL     1      -6.387  -1.870 124.270  0.00  0.00    +0.000 C 
ENDROOT
BRANCH  16  17
ATOM     17  N   UNL     1      -6.071  -1.588 122.867  0.00  0.00    +0.000 NA
ATOM     18  H   UNL     1      -5.552  -2.364 122.460  0.00  0.00    +0.000 HD
ATOM     19  H   UNL     1      -5.509  -0.753 122.765  0.00  0.00    +0.000 HD
ENDBRANCH  16  17
BRANCH   6  20
ATOM     20  O   UNL     1     -10.018  -4.343 128.639  0.00  0.00    +0.000 OA
ATOM     21  H   UNL     1      -9.823  -5.276 128.853  0.00  0.00    +0.000 HD
ENDBRANCH   6  20
TORSDOF 2
ENDMDL
MODEL 6
REMARK VINA RESULT:      -6.6      8.265      9.720
REMARK  Name = Dezocine
REMARK  3 active torsions:
REMARK  status: ('A' for Active; 'I' for Inactive)
REMARK    1  A    between atoms: C_7  and  O_8
REMARK    2  A    between atoms: C_11  and  C_12
REMARK    3  A    between atoms: C_18  and  N_19
REMARK                            x       y       z     vdW  Elec       q    Type
REMARK                         _______ _______ _______ _____ _____    ______ ____
ROOT
ATOM      1  C   UNL     1      -8.679   4.397 133.952  0.00  0.00    +0.000 C 
ATOM      2  C   UNL     1      -7.324   5.009 134.680  0.00  0.00    +0.000 C 
ATOM      3  C   UNL     1      -6.260   5.677 133.792  0.00  0.00    +0.000 A 
ATOM      4  C   UNL     1      -4.966   6.060 134.257  0.00  0.00    +0.000 A 
ATOM      5  C   UNL     1      -3.978   6.528 133.359  0.00  0.00    +0.000 A 
ATOM      6  C   UNL     1      -4.254   6.633 132.020  0.00  0.00    +0.000 A 
ATOM      7  C   UNL     1      -5.553   6.380 131.575  0.00  0.00    +0.000 A 
ATOM      8  C   UNL     1      -6.569   5.983 132.471  0.00  0.00    +0.000 A 
ATOM      9  C   UNL     1      -7.969   5.721 131.904  0.00  0.00    +0.000 C 
ATOM     10  C   UNL     1      -8.414   6.833 130.950  0.00  0.00    +0.000 C 
ATOM     11  C   UNL     1      -7.698   4.466 131.071  0.00  0.00    +0.000 C 
ATOM     12  C   UNL     1      -8.960   3.983 130.450  0.00  0.00    +0.000 C 
ATOM     13  C   UNL     1      -8.976   2.495 130.559  0.00  0.00    +0.000 C 
ATOM     14  C   UNL     1      -9.814   2.312 131.836  0.00  0.00    +0.000 C 
ATOM     15  C   UNL     1      -8.905   2.824 133.216  0.00  0.00    +0.000 C 
ATOM     16  C   UNL     1      -9.055   5.586 133.069  0.00  0.00    +0.000 C 
ENDROOT
BRANCH  16  17
ATOM     17  N   UNL     1     -10.503   5.476 132.863  0.00  0.00    +0.000 NA
ATOM     18  H   UNL     1     -10.954   6.370 133.049  0.00  0.00    +0.000 HD
ATOM     19  H   UNL     1     -10.921   4.786 133.473  0.00  0.00    +0.000 HD
ENDBRANCH  16  17
BRANCH   6  20
ATOM     20  O   UNL     1      -3.364   6.979 131.056  0.00  0.00    +0.000 OA
ATOM     21  H   UNL     1      -2.461   6.763 131.359  0.00  0.00    +0.000 HD
ENDBRANCH   6  20
TORSDOF 2
ENDMDL
MODEL 7
REMARK VINA RESULT:      -6.4      4.066      6.054
REMARK  Name = Dezocine
REMARK  3 active torsions:
REMARK  status: ('A' for Active; 'I' for Inactive)
REMARK    1  A    between atoms: C_7  and  O_8
REMARK    2  A    between atoms: C_11  and  C_12
REMARK    3  A    between atoms: C_18  and  N_19
REMARK                            x       y       z     vdW  Elec       q    Type
REMARK                         _______ _______ _______ _____ _____    ______ ____
ROOT
ATOM      1  C   UNL     1      -8.275   2.657 123.393  0.00  0.00    +0.000 C 
ATOM      2  C   UNL     1      -8.936   1.323 122.669  0.00  0.00    +0.000 C 
ATOM      3  C   UNL     1      -8.897  -0.014 123.431  0.00  0.00    +0.000 A 
ATOM      4  C   UNL     1      -9.243  -1.269 122.846  0.00  0.00    +0.000 A 
ATOM      5  C   UNL     1      -9.040  -2.480 123.550  0.00  0.00    +0.000 A 
ATOM      6  C   UNL     1      -8.518  -2.464 124.817  0.00  0.00    +0.000 A 
ATOM      7  C   UNL     1      -8.295  -1.237 125.442  0.00  0.00    +0.000 A 
ATOM      8  C   UNL     1      -8.560  -0.019 124.780  0.00  0.00    +0.000 A 
ATOM      9  C   UNL     1      -8.287   1.287 125.533  0.00  0.00    +0.000 C 
ATOM     10  C   UNL     1      -8.842   1.249 126.960  0.00  0.00    +0.000 C 
ATOM     11  C   UNL     1      -6.760   1.239 125.621  0.00  0.00    +0.000 C 
ATOM     12  C   UNL     1      -6.247   2.467 126.286  0.00  0.00    +0.000 C 
ATOM     13  C   UNL     1      -5.029   2.908 125.543  0.00  0.00    +0.000 C 
ATOM     14  C   UNL     1      -5.637   3.960 124.600  0.00  0.00    +0.000 C 
ATOM     15  C   UNL     1      -6.605   3.182 123.395  0.00  0.00    +0.000 C 
ATOM     16  C   UNL     1      -8.920   2.544 124.774  0.00  0.00    +0.000 C 
ENDROOT
BRANCH  16  17
ATOM     17  N   UNL     1      -8.962   3.912 125.298  0.00  0.00    +0.000 NA
ATOM     18  H   UNL     1      -9.118   4.575 124.541  0.00  0.00    +0.000 HD
ATOM     19  H   UNL     1      -8.099   4.168 125.760  0.00  0.00    +0.000 HD
ENDBRANCH  16  17
BRANCH   6  20
ATOM     20  O   UNL     1      -8.195  -3.560 125.550  0.00  0.00    +0.000 OA
ATOM     21  H   UNL     1      -7.546  -4.098 125.057  0.00  0.00    +0.000 HD
ENDBRANCH   6  20
TORSDOF 2
ENDMDL
MODEL 8
REMARK VINA RESULT:      -6.3      5.057      6.489
REMARK  Name = Dezocine
REMARK  3 active torsions:
REMARK  status: ('A' for Active; 'I' for Inactive)
REMARK    1  A    between atoms: C_7  and  O_8
REMARK    2  A    between atoms: C_11  and  C_12
REMARK    3  A    between atoms: C_18  and  N_19
REMARK                            x       y       z     vdW  Elec       q    Type
REMARK                         _______ _______ _______ _____ _____    ______ ____
ROOT
ATOM      1  C   UNL     1      -7.756   3.619 127.347  0.00  0.00    +0.000 C 
ATOM      2  C   UNL     1      -6.568   4.192 128.348  0.00  0.00    +0.000 C 
ATOM      3  C   UNL     1      -5.113   4.150 127.850  0.00  0.00    +0.000 A 
ATOM      4  C   UNL     1      -3.983   4.419 128.680  0.00  0.00    +0.000 A 
ATOM      5  C   UNL     1      -2.666   4.214 128.205  0.00  0.00    +0.000 A 
ATOM      6  C   UNL     1      -2.453   3.764 126.928  0.00  0.00    +0.000 A 
ATOM      7  C   UNL     1      -3.545   3.618 126.071  0.00  0.00    +0.000 A 
ATOM      8  C   UNL     1      -4.860   3.888 126.508  0.00  0.00    +0.000 A 
ATOM      9  C   UNL     1      -6.006   3.702 125.508  0.00  0.00    +0.000 C 
ATOM     10  C   UNL     1      -5.685   4.335 124.150  0.00  0.00    +0.000 C 
ATOM     11  C   UNL     1      -5.978   2.182 125.337  0.00  0.00    +0.000 C 
ATOM     12  C   UNL     1      -7.069   1.749 124.423  0.00  0.00    +0.000 C 
ATOM     13  C   UNL     1      -7.671   0.509 124.994  0.00  0.00    +0.000 C 
ATOM     14  C   UNL     1      -8.868   1.098 125.759  0.00  0.00    +0.000 C 
ATOM     15  C   UNL     1      -8.310   1.971 127.145  0.00  0.00    +0.000 C 
ATOM     16  C   UNL     1      -7.368   4.336 126.054  0.00  0.00    +0.000 C 
ENDROOT
BRANCH  16  17
ATOM     17  N   UNL     1      -8.611   4.454 125.286  0.00  0.00    +0.000 NA
ATOM     18  H   UNL     1      -8.726   3.647 124.675  0.00  0.00    +0.000 HD
ATOM     19  H   UNL     1      -8.623   5.284 124.708  0.00  0.00    +0.000 HD
ENDBRANCH  16  17
BRANCH   6  20
ATOM     20  O   UNL     1      -1.246   3.444 126.395  0.00  0.00    +0.000 OA
ATOM     21  H   UNL     1      -1.008   2.534 126.660  0.00  0.00    +0.000 HD
ENDBRANCH   6  20
TORSDOF 2
ENDMDL
MODEL 9
REMARK VINA RESULT:      -6.2      3.562      4.471
REMARK  Name = Dezocine
REMARK  3 active torsions:
REMARK  status: ('A' for Active; 'I' for Inactive)
REMARK    1  A    between atoms: C_7  and  O_8
REMARK    2  A    between atoms: C_11  and  C_12
REMARK    3  A    between atoms: C_18  and  N_19
REMARK                            x       y       z     vdW  Elec       q    Type
REMARK                         _______ _______ _______ _____ _____    ______ ____
ROOT
ATOM      1  C   UNL     1      -9.272   0.105 125.515  0.00  0.00    +0.000 C 
ATOM      2  C   UNL     1      -9.183  -1.548 125.495  0.00  0.00    +0.000 C 
ATOM      3  C   UNL     1      -7.852  -2.200 125.079  0.00  0.00    +0.000 A 
ATOM      4  C   UNL     1      -7.700  -3.596 124.824  0.00  0.00    +0.000 A 
ATOM      5  C   UNL     1      -6.492  -4.112 124.297  0.00  0.00    +0.000 A 
ATOM      6  C   UNL     1      -5.439  -3.275 124.034  0.00  0.00    +0.000 A 
ATOM      7  C   UNL     1      -5.535  -1.931 124.397  0.00  0.00    +0.000 A 
ATOM      8  C   UNL     1      -6.708  -1.415 124.990  0.00  0.00    +0.000 A 
ATOM      9  C   UNL     1      -6.737   0.072 125.358  0.00  0.00    +0.000 C 
ATOM     10  C   UNL     1      -5.459   0.505 126.083  0.00  0.00    +0.000 C 
ATOM     11  C   UNL     1      -6.722   0.700 123.963  0.00  0.00    +0.000 C 
ATOM     12  C   UNL     1      -6.800   2.182 124.068  0.00  0.00    +0.000 C 
ATOM     13  C   UNL     1      -7.731   2.662 123.004  0.00  0.00    +0.000 C 
ATOM     14  C   UNL     1      -9.042   2.774 123.801  0.00  0.00    +0.000 C 
ATOM     15  C   UNL     1      -9.630   1.195 124.192  0.00  0.00    +0.000 C 
ATOM     16  C   UNL     1      -7.991   0.421 126.286  0.00  0.00    +0.000 C 
ENDROOT
BRANCH  16  17
ATOM     17  N   UNL     1      -8.231   1.718 126.927  0.00  0.00    +0.000 NA
ATOM     18  H   UNL     1      -8.395   2.434 126.222  0.00  0.00    +0.000 HD
ATOM     19  H   UNL     1      -7.445   2.013 127.492  0.00  0.00    +0.000 HD
ENDBRANCH  16  17
BRANCH   6  20
ATOM     20  O   UNL     1      -4.271  -3.638 123.446  0.00  0.00    +0.000 OA
ATOM     21  H   UNL     1      -4.432  -3.832 122.502  0.00  0.00    +0.000 HD
ENDBRANCH   6  20
TORSDOF 2
ENDMDL
