MODEL 1
REMARK VINA RESULT:      -8.7      0.000      0.000
REMARK  Name = Diacetyl benzoyl lathyrol
REMARK  13 active torsions:
REMARK  status: ('A' for Active; 'I' for Inactive)
REMARK    1  A    between atoms: C_1  and  C_2
REMARK    2  A    between atoms: C_4  and  O_5
REMARK    3  A    between atoms: O_5  and  C_6
REMARK    4  A    between atoms: C_6  and  C_7
REMARK    5  A    between atoms: C_10  and  O_11
REMARK    6  A    between atoms: O_11  and  C_12
REMARK    7  A    between atoms: C_12  and  C_14
REMARK    8  A    between atoms: C_20  and  O_21
REMARK    9  A    between atoms: O_21  and  C_22
REMARK   10  A    between atoms: C_22  and  C_23
REMARK   11  A    between atoms: C_32  and  C_33
REMARK   12  A    between atoms: C_36  and  C_37
REMARK   13  A    between atoms: C_36  and  C_38
REMARK                            x       y       z     vdW  Elec       q    Type
REMARK                         _______ _______ _______ _____ _____    ______ ____
ROOT
ATOM      1  C   UNL     1      -8.720   1.303 126.203  0.00  0.00    +0.000 C 
ATOM      2  C   UNL     1      -7.691   0.554 126.952  0.00  0.00    +0.000 C 
ATOM      3  C   UNL     1      -6.621  -0.268 126.432  0.00  0.00    +0.000 C 
ATOM      4  C   UNL     1      -7.072  -1.129 127.625  0.00  0.00    +0.000 C 
ATOM      5  C   UNL     1      -7.775   0.277 128.910  0.00  0.00    +0.000 C 
ATOM      6  C   UNL     1      -6.894   1.165 128.149  0.00  0.00    +0.000 C 
ATOM      7  C   UNL     1      -7.661   1.275 130.409  0.00  0.00    +0.000 C 
ATOM      8  C   UNL     1      -8.261   0.417 131.460  0.00  0.00    +0.000 C 
ATOM      9  C   UNL     1      -9.511   0.426 131.928  0.00  0.00    +0.000 C 
ATOM     10  C   UNL     1      -7.226  -0.549 131.852  0.00  0.00    +0.000 C 
ATOM     11  C   UNL     1      -7.679  -1.950 131.685  0.00  0.00    +0.000 C 
ATOM     12  C   UNL     1      -6.430  -2.756 131.727  0.00  0.00    +0.000 C 
ATOM     13  C   UNL     1      -6.453  -4.030 131.071  0.00  0.00    +0.000 C 
ATOM     14  C   UNL     1      -5.921  -3.559 129.779  0.00  0.00    +0.000 C 
ATOM     15  C   UNL     1      -6.802  -3.105 128.871  0.00  0.00    +0.000 C 
ATOM     16  C   UNL     1      -8.335  -3.338 128.768  0.00  0.00    +0.000 C 
ATOM     17  C   UNL     1      -6.200  -2.229 127.879  0.00  0.00    +0.000 C 
ATOM     18  O   UNL     1      -5.249  -2.573 127.111  0.00  0.00    +0.000 OA
ATOM     19  C   UNL     1      -6.239  -3.758 132.765  0.00  0.00    +0.000 C 
ATOM     20  C   UNL     1      -5.144  -4.713 133.076  0.00  0.00    +0.000 C 
ATOM     21  C   UNL     1      -6.235  -2.724 133.971  0.00  0.00    +0.000 C 
ENDROOT
BRANCH   4  22
ATOM     22  O   UNL     1      -7.894  -2.283 126.491  0.00  0.00    +0.000 OA
BRANCH  22  23
ATOM     23  C   UNL     1      -9.039  -2.307 125.503  0.00  0.00    +0.000 C 
ATOM     24  C   UNL     1      -8.826  -2.046 123.970  0.00  0.00    +0.000 C 
ATOM     25  O   UNL     1     -10.143  -2.796 125.796  0.00  0.00    +0.000 OA
ENDBRANCH  22  23
ENDBRANCH   4  22
BRANCH   6  26
ATOM     26  O   UNL     1      -5.582   0.666 128.744  0.00  0.00    +0.000 OA
BRANCH  26  27
ATOM     27  C   UNL     1      -4.752   1.454 129.508  0.00  0.00    +0.000 C 
ATOM     28  O   UNL     1      -4.639   2.698 129.458  0.00  0.00    +0.000 OA
BRANCH  27  29
ATOM     29  C   UNL     1      -4.068   0.822 130.638  0.00  0.00    +0.000 A 
ATOM     30  C   UNL     1      -3.697  -0.553 130.692  0.00  0.00    +0.000 A 
ATOM     31  C   UNL     1      -3.434  -1.136 131.929  0.00  0.00    +0.000 A 
ATOM     32  C   UNL     1      -3.481  -0.332 133.066  0.00  0.00    +0.000 A 
ATOM     33  C   UNL     1      -3.761   1.037 132.973  0.00  0.00    +0.000 A 
ATOM     34  C   UNL     1      -4.019   1.625 131.751  0.00  0.00    +0.000 A 
ENDBRANCH  27  29
ENDBRANCH  26  27
ENDBRANCH   6  26
BRANCH   7  35
ATOM     35  O   UNL     1      -8.234   2.706 130.583  0.00  0.00    +0.000 OA
BRANCH  35  36
ATOM     36  C   UNL     1      -9.203   3.378 129.811  0.00  0.00    +0.000 C 
ATOM     37  C   UNL     1     -10.503   3.635 130.496  0.00  0.00    +0.000 C 
ATOM     38  O   UNL     1      -8.976   3.980 128.757  0.00  0.00    +0.000 OA
ENDBRANCH  35  36
ENDBRANCH   7  35
TORSDOF 7
ENDMDL
MODEL 2
REMARK VINA RESULT:      -8.6      1.359      1.924
REMARK  Name = Diacetyl benzoyl lathyrol
REMARK  13 active torsions:
REMARK  status: ('A' for Active; 'I' for Inactive)
REMARK    1  A    between atoms: C_1  and  C_2
REMARK    2  A    between atoms: C_4  and  O_5
REMARK    3  A    between atoms: O_5  and  C_6
REMARK    4  A    between atoms: C_6  and  C_7
REMARK    5  A    between atoms: C_10  and  O_11
REMARK    6  A    between atoms: O_11  and  C_12
REMARK    7  A    between atoms: C_12  and  C_14
REMARK    8  A    between atoms: C_20  and  O_21
REMARK    9  A    between atoms: O_21  and  C_22
REMARK   10  A    between atoms: C_22  and  C_23
REMARK   11  A    between atoms: C_32  and  C_33
REMARK   12  A    between atoms: C_36  and  C_37
REMARK   13  A    between atoms: C_36  and  C_38
REMARK                            x       y       z     vdW  Elec       q    Type
REMARK                         _______ _______ _______ _____ _____    ______ ____
ROOT
ATOM      1  C   UNL     1      -9.277   0.740 125.845  0.00  0.00    +0.000 C 
ATOM      2  C   UNL     1      -8.138   0.276 126.663  0.00  0.00    +0.000 C 
ATOM      3  C   UNL     1      -7.008  -0.528 126.256  0.00  0.00    +0.000 C 
ATOM      4  C   UNL     1      -7.305  -1.152 127.630  0.00  0.00    +0.000 C 
ATOM      5  C   UNL     1      -8.102   0.421 128.636  0.00  0.00    +0.000 C 
ATOM      6  C   UNL     1      -7.361   1.207 127.648  0.00  0.00    +0.000 C 
ATOM      7  C   UNL     1      -8.033   1.725 129.882  0.00  0.00    +0.000 C 
ATOM      8  C   UNL     1      -8.485   1.058 131.127  0.00  0.00    +0.000 C 
ATOM      9  C   UNL     1      -9.706   1.044 131.667  0.00  0.00    +0.000 C 
ATOM     10  C   UNL     1      -7.332   0.308 131.642  0.00  0.00    +0.000 C 
ATOM     11  C   UNL     1      -7.633  -1.134 131.804  0.00  0.00    +0.000 C 
ATOM     12  C   UNL     1      -6.302  -1.784 131.929  0.00  0.00    +0.000 C 
ATOM     13  C   UNL     1      -6.213  -3.166 131.558  0.00  0.00    +0.000 C 
ATOM     14  C   UNL     1      -5.796  -2.934 130.162  0.00  0.00    +0.000 C 
ATOM     15  C   UNL     1      -6.762  -2.776 129.242  0.00  0.00    +0.000 C 
ATOM     16  C   UNL     1      -8.262  -3.176 129.294  0.00  0.00    +0.000 C 
ATOM     17  C   UNL     1      -6.306  -2.080 128.049  0.00  0.00    +0.000 C 
ATOM     18  O   UNL     1      -5.358  -2.485 127.307  0.00  0.00    +0.000 OA
ATOM     19  C   UNL     1      -5.954  -2.515 133.138  0.00  0.00    +0.000 C 
ATOM     20  C   UNL     1      -4.747  -3.267 133.568  0.00  0.00    +0.000 C 
ATOM     21  C   UNL     1      -6.010  -1.250 134.097  0.00  0.00    +0.000 C 
ENDROOT
BRANCH   4  22
ATOM     22  O   UNL     1      -8.044  -2.600 126.822  0.00  0.00    +0.000 OA
BRANCH  22  23
ATOM     23  C   UNL     1      -8.897  -2.936 125.618  0.00  0.00    +0.000 C 
ATOM     24  C   UNL     1      -8.310  -3.658 124.353  0.00  0.00    +0.000 C 
ATOM     25  O   UNL     1     -10.137  -2.912 125.670  0.00  0.00    +0.000 OA
ENDBRANCH  22  23
ENDBRANCH   4  22
BRANCH   6  26
ATOM     26  O   UNL     1      -5.976   0.980 128.244  0.00  0.00    +0.000 OA
BRANCH  26  27
ATOM     27  C   UNL     1      -4.882   1.752 127.924  0.00  0.00    +0.000 C 
ATOM     28  O   UNL     1      -4.511   2.094 126.780  0.00  0.00    +0.000 OA
BRANCH  27  29
ATOM     29  C   UNL     1      -4.178   2.418 129.022  0.00  0.00    +0.000 A 
ATOM     30  C   UNL     1      -4.326   2.083 130.399  0.00  0.00    +0.000 A 
ATOM     31  C   UNL     1      -3.949   3.009 131.366  0.00  0.00    +0.000 A 
ATOM     32  C   UNL     1      -3.377   4.210 130.950  0.00  0.00    +0.000 A 
ATOM     33  C   UNL     1      -3.162   4.475 129.591  0.00  0.00    +0.000 A 
ATOM     34  C   UNL     1      -3.529   3.562 128.626  0.00  0.00    +0.000 A 
ENDBRANCH  27  29
ENDBRANCH  26  27
ENDBRANCH   6  26
BRANCH   7  35
ATOM     35  O   UNL     1      -8.753   3.096 129.790  0.00  0.00    +0.000 OA
BRANCH  35  36
ATOM     36  C   UNL     1      -8.250   4.339 129.356  0.00  0.00    +0.000 C 
ATOM     37  C   UNL     1      -6.958   4.758 129.972  0.00  0.00    +0.000 C 
ATOM     38  O   UNL     1      -8.638   4.950 128.355  0.00  0.00    +0.000 OA
ENDBRANCH  35  36
ENDBRANCH   7  35
TORSDOF 7
ENDMDL
MODEL 3
REMARK VINA RESULT:      -8.5      1.953      2.876
REMARK  Name = Diacetyl benzoyl lathyrol
REMARK  13 active torsions:
REMARK  status: ('A' for Active; 'I' for Inactive)
REMARK    1  A    between atoms: C_1  and  C_2
REMARK    2  A    between atoms: C_4  and  O_5
REMARK    3  A    between atoms: O_5  and  C_6
REMARK    4  A    between atoms: C_6  and  C_7
REMARK    5  A    between atoms: C_10  and  O_11
REMARK    6  A    between atoms: O_11  and  C_12
REMARK    7  A    between atoms: C_12  and  C_14
REMARK    8  A    between atoms: C_20  and  O_21
REMARK    9  A    between atoms: O_21  and  C_22
REMARK   10  A    between atoms: C_22  and  C_23
REMARK   11  A    between atoms: C_32  and  C_33
REMARK   12  A    between atoms: C_36  and  C_37
REMARK   13  A    between atoms: C_36  and  C_38
REMARK                            x       y       z     vdW  Elec       q    Type
REMARK                         _______ _______ _______ _____ _____    ______ ____
ROOT
ATOM      1  C   UNL     1      -9.802   0.875 125.125  0.00  0.00    +0.000 C 
ATOM      2  C   UNL     1      -8.469   0.580 125.689  0.00  0.00    +0.000 C 
ATOM      3  C   UNL     1      -7.343  -0.058 125.047  0.00  0.00    +0.000 C 
ATOM      4  C   UNL     1      -7.270  -0.712 126.437  0.00  0.00    +0.000 C 
ATOM      5  C   UNL     1      -8.061   0.737 127.619  0.00  0.00    +0.000 C 
ATOM      6  C   UNL     1      -7.648   1.616 126.523  0.00  0.00    +0.000 C 
ATOM      7  C   UNL     1      -7.927   2.044 128.857  0.00  0.00    +0.000 C 
ATOM      8  C   UNL     1      -8.025   1.325 130.151  0.00  0.00    +0.000 C 
ATOM      9  C   UNL     1      -9.099   1.140 130.922  0.00  0.00    +0.000 C 
ATOM     10  C   UNL     1      -6.699   0.747 130.409  0.00  0.00    +0.000 C 
ATOM     11  C   UNL     1      -6.758  -0.723 130.592  0.00  0.00    +0.000 C 
ATOM     12  C   UNL     1      -5.351  -1.177 130.436  0.00  0.00    +0.000 C 
ATOM     13  C   UNL     1      -5.146  -2.534 130.021  0.00  0.00    +0.000 C 
ATOM     14  C   UNL     1      -5.052  -2.251 128.577  0.00  0.00    +0.000 C 
ATOM     15  C   UNL     1      -6.194  -2.235 127.870  0.00  0.00    +0.000 C 
ATOM     16  C   UNL     1      -7.584  -2.844 128.208  0.00  0.00    +0.000 C 
ATOM     17  C   UNL     1      -6.088  -1.487 126.628  0.00  0.00    +0.000 C 
ATOM     18  O   UNL     1      -5.260  -1.757 125.703  0.00  0.00    +0.000 OA
ATOM     19  C   UNL     1      -4.670  -1.846 131.534  0.00  0.00    +0.000 C 
ATOM     20  C   UNL     1      -3.309  -2.418 131.698  0.00  0.00    +0.000 C 
ATOM     21  C   UNL     1      -4.710  -0.598 132.516  0.00  0.00    +0.000 C 
ENDROOT
BRANCH   4  22
ATOM     22  O   UNL     1      -7.946  -2.252 125.757  0.00  0.00    +0.000 OA
BRANCH  22  23
ATOM     23  C   UNL     1      -9.224  -2.775 125.138  0.00  0.00    +0.000 C 
ATOM     24  C   UNL     1      -9.295  -3.256 123.646  0.00  0.00    +0.000 C 
ATOM     25  O   UNL     1     -10.198  -3.105 125.835  0.00  0.00    +0.000 OA
ENDBRANCH  22  23
ENDBRANCH   4  22
BRANCH   6  26
ATOM     26  O   UNL     1      -6.155   1.590 126.827  0.00  0.00    +0.000 OA
BRANCH  26  27
ATOM     27  C   UNL     1      -5.273   2.537 126.358  0.00  0.00    +0.000 C 
ATOM     28  O   UNL     1      -5.302   3.105 125.244  0.00  0.00    +0.000 OA
BRANCH  27  29
ATOM     29  C   UNL     1      -4.313   3.099 127.309  0.00  0.00    +0.000 A 
ATOM     30  C   UNL     1      -4.208   2.714 128.677  0.00  0.00    +0.000 A 
ATOM     31  C   UNL     1      -3.572   3.565 129.575  0.00  0.00    +0.000 A 
ATOM     32  C   UNL     1      -3.001   4.740 129.086  0.00  0.00    +0.000 A 
ATOM     33  C   UNL     1      -3.041   5.050 127.721  0.00  0.00    +0.000 A 
ATOM     34  C   UNL     1      -3.667   4.210 126.823  0.00  0.00    +0.000 A 
ENDBRANCH  27  29
ENDBRANCH  26  27
ENDBRANCH   6  26
BRANCH   7  35
ATOM     35  O   UNL     1      -8.835   3.298 128.944  0.00  0.00    +0.000 OA
BRANCH  35  36
ATOM     36  C   UNL     1      -8.471   4.653 129.083  0.00  0.00    +0.000 C 
ATOM     37  C   UNL     1      -7.134   4.897 129.698  0.00  0.00    +0.000 C 
ATOM     38  O   UNL     1      -9.027   5.598 128.514  0.00  0.00    +0.000 OA
ENDBRANCH  35  36
ENDBRANCH   7  35
TORSDOF 7
ENDMDL
MODEL 4
REMARK VINA RESULT:      -8.4      3.043      4.118
REMARK  Name = Diacetyl benzoyl lathyrol
REMARK  13 active torsions:
REMARK  status: ('A' for Active; 'I' for Inactive)
REMARK    1  A    between atoms: C_1  and  C_2
REMARK    2  A    between atoms: C_4  and  O_5
REMARK    3  A    between atoms: O_5  and  C_6
REMARK    4  A    between atoms: C_6  and  C_7
REMARK    5  A    between atoms: C_10  and  O_11
REMARK    6  A    between atoms: O_11  and  C_12
REMARK    7  A    between atoms: C_12  and  C_14
REMARK    8  A    between atoms: C_20  and  O_21
REMARK    9  A    between atoms: O_21  and  C_22
REMARK   10  A    between atoms: C_22  and  C_23
REMARK   11  A    between atoms: C_32  and  C_33
REMARK   12  A    between atoms: C_36  and  C_37
REMARK   13  A    between atoms: C_36  and  C_38
REMARK                            x       y       z     vdW  Elec       q    Type
REMARK                         _______ _______ _______ _____ _____    ______ ____
ROOT
ATOM      1  C   UNL     1      -6.793   5.048 125.146  0.00  0.00    +0.000 C 
ATOM      2  C   UNL     1      -6.274   3.903 125.919  0.00  0.00    +0.000 C 
ATOM      3  C   UNL     1      -5.385   2.851 125.480  0.00  0.00    +0.000 C 
ATOM      4  C   UNL     1      -6.377   2.034 126.327  0.00  0.00    +0.000 C 
ATOM      5  C   UNL     1      -6.973   3.404 127.702  0.00  0.00    +0.000 C 
ATOM      6  C   UNL     1      -5.699   4.042 127.367  0.00  0.00    +0.000 C 
ATOM      7  C   UNL     1      -6.998   4.091 129.371  0.00  0.00    +0.000 C 
ATOM      8  C   UNL     1      -8.087   3.347 130.050  0.00  0.00    +0.000 C 
ATOM      9  C   UNL     1      -9.360   3.709 130.224  0.00  0.00    +0.000 C 
ATOM     10  C   UNL     1      -7.525   2.047 130.439  0.00  0.00    +0.000 C 
ATOM     11  C   UNL     1      -8.297   0.914 129.875  0.00  0.00    +0.000 C 
ATOM     12  C   UNL     1      -7.397  -0.260 130.013  0.00  0.00    +0.000 C 
ATOM     13  C   UNL     1      -7.602  -1.351 129.105  0.00  0.00    +0.000 C 
ATOM     14  C   UNL     1      -6.620  -0.912 128.096  0.00  0.00    +0.000 C 
ATOM     15  C   UNL     1      -7.045  -0.069 127.139  0.00  0.00    +0.000 C 
ATOM     16  C   UNL     1      -8.488   0.241 126.654  0.00  0.00    +0.000 C 
ATOM     17  C   UNL     1      -5.965   0.682 126.519  0.00  0.00    +0.000 C 
ATOM     18  O   UNL     1      -4.979   0.149 125.922  0.00  0.00    +0.000 OA
ATOM     19  C   UNL     1      -7.798  -1.401 130.822  0.00  0.00    +0.000 C 
ATOM     20  C   UNL     1      -7.156  -2.701 131.149  0.00  0.00    +0.000 C 
ATOM     21  C   UNL     1      -7.831  -0.604 132.195  0.00  0.00    +0.000 C 
ENDROOT
BRANCH   4  22
ATOM     22  O   UNL     1      -7.148   1.389 124.816  0.00  0.00    +0.000 OA
BRANCH  22  23
ATOM     23  C   UNL     1      -7.893   1.891 123.599  0.00  0.00    +0.000 C 
ATOM     24  C   UNL     1      -9.457   2.024 123.571  0.00  0.00    +0.000 C 
ATOM     25  O   UNL     1      -7.308   2.474 122.670  0.00  0.00    +0.000 OA
ENDBRANCH  22  23
ENDBRANCH   4  22
BRANCH   6  26
ATOM     26  O   UNL     1      -4.805   3.056 128.111  0.00  0.00    +0.000 OA
BRANCH  26  27
ATOM     27  C   UNL     1      -3.487   3.312 128.412  0.00  0.00    +0.000 C 
ATOM     28  O   UNL     1      -2.480   2.794 127.882  0.00  0.00    +0.000 OA
BRANCH  27  29
ATOM     29  C   UNL     1      -3.202   4.442 129.297  0.00  0.00    +0.000 A 
ATOM     30  C   UNL     1      -2.566   5.650 128.887  0.00  0.00    +0.000 A 
ATOM     31  C   UNL     1      -1.984   6.470 129.850  0.00  0.00    +0.000 A 
ATOM     32  C   UNL     1      -2.101   6.108 131.191  0.00  0.00    +0.000 A 
ATOM     33  C   UNL     1      -2.808   4.960 131.571  0.00  0.00    +0.000 A 
ATOM     34  C   UNL     1      -3.393   4.144 130.624  0.00  0.00    +0.000 A 
ENDBRANCH  27  29
ENDBRANCH  26  27
ENDBRANCH   6  26
BRANCH   7  35
ATOM     35  O   UNL     1      -7.160   5.592 129.724  0.00  0.00    +0.000 OA
BRANCH  35  36
ATOM     36  C   UNL     1      -6.402   6.385 130.610  0.00  0.00    +0.000 C 
ATOM     37  C   UNL     1      -6.444   5.964 132.040  0.00  0.00    +0.000 C 
ATOM     38  O   UNL     1      -5.535   7.196 130.271  0.00  0.00    +0.000 OA
ENDBRANCH  35  36
ENDBRANCH   7  35
TORSDOF 7
ENDMDL
MODEL 5
REMARK VINA RESULT:      -8.3      3.001      6.108
REMARK  Name = Diacetyl benzoyl lathyrol
REMARK  13 active torsions:
REMARK  status: ('A' for Active; 'I' for Inactive)
REMARK    1  A    between atoms: C_1  and  C_2
REMARK    2  A    between atoms: C_4  and  O_5
REMARK    3  A    between atoms: O_5  and  C_6
REMARK    4  A    between atoms: C_6  and  C_7
REMARK    5  A    between atoms: C_10  and  O_11
REMARK    6  A    between atoms: O_11  and  C_12
REMARK    7  A    between atoms: C_12  and  C_14
REMARK    8  A    between atoms: C_20  and  O_21
REMARK    9  A    between atoms: O_21  and  C_22
REMARK   10  A    between atoms: C_22  and  C_23
REMARK   11  A    between atoms: C_32  and  C_33
REMARK   12  A    between atoms: C_36  and  C_37
REMARK   13  A    between atoms: C_36  and  C_38
REMARK                            x       y       z     vdW  Elec       q    Type
REMARK                         _______ _______ _______ _____ _____    ______ ____
ROOT
ATOM      1  C   UNL     1      -8.637   0.358 125.699  0.00  0.00    +0.000 C 
ATOM      2  C   UNL     1      -8.158   1.600 126.338  0.00  0.00    +0.000 C 
ATOM      3  C   UNL     1      -8.202   2.950 125.824  0.00  0.00    +0.000 C 
ATOM      4  C   UNL     1      -6.803   2.947 126.463  0.00  0.00    +0.000 C 
ATOM      5  C   UNL     1      -7.038   1.606 127.969  0.00  0.00    +0.000 C 
ATOM      6  C   UNL     1      -8.452   1.958 127.831  0.00  0.00    +0.000 C 
ATOM      7  C   UNL     1      -7.208   1.169 129.712  0.00  0.00    +0.000 C 
ATOM      8  C   UNL     1      -5.810   1.038 130.189  0.00  0.00    +0.000 C 
ATOM      9  C   UNL     1      -5.072  -0.067 130.311  0.00  0.00    +0.000 C 
ATOM     10  C   UNL     1      -5.321   2.402 130.430  0.00  0.00    +0.000 C 
ATOM     11  C   UNL     1      -4.098   2.702 129.649  0.00  0.00    +0.000 C 
ATOM     12  C   UNL     1      -3.981   4.183 129.688  0.00  0.00    +0.000 C 
ATOM     13  C   UNL     1      -3.259   4.810 128.619  0.00  0.00    +0.000 C 
ATOM     14  C   UNL     1      -4.431   5.079 127.765  0.00  0.00    +0.000 C 
ATOM     15  C   UNL     1      -4.812   4.116 126.909  0.00  0.00    +0.000 C 
ATOM     16  C   UNL     1      -4.016   2.899 126.360  0.00  0.00    +0.000 C 
ATOM     17  C   UNL     1      -6.199   4.239 126.491  0.00  0.00    +0.000 C 
ATOM     18  O   UNL     1      -6.677   5.258 125.903  0.00  0.00    +0.000 OA
ATOM     19  C   UNL     1      -2.815   4.813 130.290  0.00  0.00    +0.000 C 
ATOM     20  C   UNL     1      -2.396   6.225 130.477  0.00  0.00    +0.000 C 
ATOM     21  C   UNL     1      -3.097   4.272 131.757  0.00  0.00    +0.000 C 
ENDROOT
BRANCH   4  22
ATOM     22  O   UNL     1      -6.043   2.832 124.819  0.00  0.00    +0.000 OA
BRANCH  22  23
ATOM     23  C   UNL     1      -6.451   2.790 123.363  0.00  0.00    +0.000 C 
ATOM     24  C   UNL     1      -5.979   3.874 122.330  0.00  0.00    +0.000 C 
ATOM     25  O   UNL     1      -6.942   1.770 122.852  0.00  0.00    +0.000 OA
ENDBRANCH  22  23
ENDBRANCH   4  22
BRANCH   6  26
ATOM     26  O   UNL     1      -8.360   3.328 128.494  0.00  0.00    +0.000 OA
BRANCH  26  27
ATOM     27  C   UNL     1      -9.075   3.671 129.618  0.00  0.00    +0.000 C 
ATOM     28  O   UNL     1     -10.207   3.253 129.946  0.00  0.00    +0.000 OA
BRANCH  27  29
ATOM     29  C   UNL     1      -8.386   4.448 130.650  0.00  0.00    +0.000 A 
ATOM     30  C   UNL     1      -7.528   5.556 130.389  0.00  0.00    +0.000 A 
ATOM     31  C   UNL     1      -6.623   5.957 131.368  0.00  0.00    +0.000 A 
ATOM     32  C   UNL     1      -6.635   5.296 132.596  0.00  0.00    +0.000 A 
ATOM     33  C   UNL     1      -7.551   4.269 132.854  0.00  0.00    +0.000 A 
ATOM     34  C   UNL     1      -8.454   3.868 131.892  0.00  0.00    +0.000 A 
ENDBRANCH  27  29
ENDBRANCH  26  27
ENDBRANCH   6  26
BRANCH   7  35
ATOM     35  O   UNL     1      -8.011  -0.038 130.264  0.00  0.00    +0.000 OA
BRANCH  35  36
ATOM     36  C   UNL     1      -8.677  -0.176 131.499  0.00  0.00    +0.000 C 
ATOM     37  C   UNL     1      -7.931  -0.929 132.548  0.00  0.00    +0.000 C 
ATOM     38  O   UNL     1      -9.664   0.480 131.849  0.00  0.00    +0.000 OA
ENDBRANCH  35  36
ENDBRANCH   7  35
TORSDOF 7
ENDMDL
MODEL 6
REMARK VINA RESULT:      -8.3      2.666      6.664
REMARK  Name = Diacetyl benzoyl lathyrol
REMARK  13 active torsions:
REMARK  status: ('A' for Active; 'I' for Inactive)
REMARK    1  A    between atoms: C_1  and  C_2
REMARK    2  A    between atoms: C_4  and  O_5
REMARK    3  A    between atoms: O_5  and  C_6
REMARK    4  A    between atoms: C_6  and  C_7
REMARK    5  A    between atoms: C_10  and  O_11
REMARK    6  A    between atoms: O_11  and  C_12
REMARK    7  A    between atoms: C_12  and  C_14
REMARK    8  A    between atoms: C_20  and  O_21
REMARK    9  A    between atoms: O_21  and  C_22
REMARK   10  A    between atoms: C_22  and  C_23
REMARK   11  A    between atoms: C_32  and  C_33
REMARK   12  A    between atoms: C_36  and  C_37
REMARK   13  A    between atoms: C_36  and  C_38
REMARK                            x       y       z     vdW  Elec       q    Type
REMARK                         _______ _______ _______ _____ _____    ______ ____
ROOT
ATOM      1  C   UNL     1      -3.740   4.153 131.201  0.00  0.00    +0.000 C 
ATOM      2  C   UNL     1      -3.998   3.262 130.052  0.00  0.00    +0.000 C 
ATOM      3  C   UNL     1      -3.099   2.893 128.982  0.00  0.00    +0.000 C 
ATOM      4  C   UNL     1      -4.402   3.087 128.188  0.00  0.00    +0.000 C 
ATOM      5  C   UNL     1      -5.807   2.617 129.576  0.00  0.00    +0.000 C 
ATOM      6  C   UNL     1      -4.705   1.875 130.190  0.00  0.00    +0.000 C 
ATOM      7  C   UNL     1      -7.067   1.529 130.274  0.00  0.00    +0.000 C 
ATOM      8  C   UNL     1      -8.307   1.906 129.553  0.00  0.00    +0.000 C 
ATOM      9  C   UNL     1      -9.271   2.745 129.938  0.00  0.00    +0.000 C 
ATOM     10  C   UNL     1      -8.250   1.238 128.246  0.00  0.00    +0.000 C 
ATOM     11  C   UNL     1      -8.353   2.200 127.124  0.00  0.00    +0.000 C 
ATOM     12  C   UNL     1      -7.882   1.442 125.935  0.00  0.00    +0.000 C 
ATOM     13  C   UNL     1      -7.352   2.205 124.842  0.00  0.00    +0.000 C 
ATOM     14  C   UNL     1      -5.940   2.129 125.258  0.00  0.00    +0.000 C 
ATOM     15  C   UNL     1      -5.487   3.071 126.101  0.00  0.00    +0.000 C 
ATOM     16  C   UNL     1      -6.068   4.474 126.433  0.00  0.00    +0.000 C 
ATOM     17  C   UNL     1      -4.297   2.662 126.830  0.00  0.00    +0.000 C 
ATOM     18  O   UNL     1      -3.206   2.319 126.277  0.00  0.00    +0.000 OA
ATOM     19  C   UNL     1      -8.773   1.220 124.806  0.00  0.00    +0.000 C 
ATOM     20  C   UNL     1      -8.617   0.533 123.498  0.00  0.00    +0.000 C 
ATOM     21  C   UNL     1      -9.815   0.332 125.612  0.00  0.00    +0.000 C 
ENDROOT
BRANCH   4  22
ATOM     22  O   UNL     1      -3.785   4.668 127.546  0.00  0.00    +0.000 OA
BRANCH  22  23
ATOM     23  C   UNL     1      -3.469   6.064 128.034  0.00  0.00    +0.000 C 
ATOM     24  C   UNL     1      -2.080   6.435 128.666  0.00  0.00    +0.000 C 
ATOM     25  O   UNL     1      -4.170   7.040 127.720  0.00  0.00    +0.000 OA
ENDBRANCH  22  23
ENDBRANCH   4  22
BRANCH   6  26
ATOM     26  O   UNL     1      -4.690   0.721 129.194  0.00  0.00    +0.000 OA
BRANCH  26  27
ATOM     27  C   UNL     1      -5.014  -0.573 129.534  0.00  0.00    +0.000 C 
ATOM     28  O   UNL     1      -4.940  -1.094 130.668  0.00  0.00    +0.000 OA
BRANCH  27  29
ATOM     29  C   UNL     1      -5.705  -1.385 128.530  0.00  0.00    +0.000 A 
ATOM     30  C   UNL     1      -5.518  -1.262 127.122  0.00  0.00    +0.000 A 
ATOM     31  C   UNL     1      -6.487  -1.770 126.263  0.00  0.00    +0.000 A 
ATOM     32  C   UNL     1      -7.579  -2.441 126.814  0.00  0.00    +0.000 A 
ATOM     33  C   UNL     1      -7.691  -2.624 128.198  0.00  0.00    +0.000 A 
ATOM     34  C   UNL     1      -6.733  -2.127 129.057  0.00  0.00    +0.000 A 
ENDBRANCH  27  29
ENDBRANCH  26  27
ENDBRANCH   6  26
BRANCH   7  35
ATOM     35  O   UNL     1      -7.414   1.405 131.780  0.00  0.00    +0.000 OA
BRANCH  35  36
ATOM     36  C   UNL     1      -7.624   0.244 132.554  0.00  0.00    +0.000 C 
ATOM     37  C   UNL     1      -8.398  -0.840 131.883  0.00  0.00    +0.000 C 
ATOM     38  O   UNL     1      -7.014  -0.036 133.590  0.00  0.00    +0.000 OA
ENDBRANCH  35  36
ENDBRANCH   7  35
TORSDOF 7
ENDMDL
MODEL 7
REMARK VINA RESULT:      -8.3      3.783      7.141
REMARK  Name = Diacetyl benzoyl lathyrol
REMARK  13 active torsions:
REMARK  status: ('A' for Active; 'I' for Inactive)
REMARK    1  A    between atoms: C_1  and  C_2
REMARK    2  A    between atoms: C_4  and  O_5
REMARK    3  A    between atoms: O_5  and  C_6
REMARK    4  A    between atoms: C_6  and  C_7
REMARK    5  A    between atoms: C_10  and  O_11
REMARK    6  A    between atoms: O_11  and  C_12
REMARK    7  A    between atoms: C_12  and  C_14
REMARK    8  A    between atoms: C_20  and  O_21
REMARK    9  A    between atoms: O_21  and  C_22
REMARK   10  A    between atoms: C_22  and  C_23
REMARK   11  A    between atoms: C_32  and  C_33
REMARK   12  A    between atoms: C_36  and  C_37
REMARK   13  A    between atoms: C_36  and  C_38
REMARK                            x       y       z     vdW  Elec       q    Type
REMARK                         _______ _______ _______ _____ _____    ______ ____
ROOT
ATOM      1  C   UNL     1      -6.388   5.944 133.613  0.00  0.00    +0.000 C 
ATOM      2  C   UNL     1      -6.473   5.656 132.168  0.00  0.00    +0.000 C 
ATOM      3  C   UNL     1      -7.253   6.338 131.160  0.00  0.00    +0.000 C 
ATOM      4  C   UNL     1      -7.455   4.878 130.719  0.00  0.00    +0.000 C 
ATOM      5  C   UNL     1      -5.732   4.012 131.354  0.00  0.00    +0.000 C 
ATOM      6  C   UNL     1      -5.218   5.380 131.278  0.00  0.00    +0.000 C 
ATOM      7  C   UNL     1      -4.110   3.274 131.066  0.00  0.00    +0.000 C 
ATOM      8  C   UNL     1      -4.406   1.844 130.806  0.00  0.00    +0.000 C 
ATOM      9  C   UNL     1      -4.370   0.818 131.660  0.00  0.00    +0.000 C 
ATOM     10  C   UNL     1      -4.854   1.756 129.410  0.00  0.00    +0.000 C 
ATOM     11  C   UNL     1      -6.200   1.148 129.293  0.00  0.00    +0.000 C 
ATOM     12  C   UNL     1      -6.653   1.499 127.921  0.00  0.00    +0.000 C 
ATOM     13  C   UNL     1      -8.068   1.541 127.692  0.00  0.00    +0.000 C 
ATOM     14  C   UNL     1      -8.233   2.984 127.949  0.00  0.00    +0.000 C 
ATOM     15  C   UNL     1      -8.453   3.369 129.217  0.00  0.00    +0.000 C 
ATOM     16  C   UNL     1      -8.958   2.546 130.435  0.00  0.00    +0.000 C 
ATOM     17  C   UNL     1      -8.113   4.762 129.459  0.00  0.00    +0.000 C 
ATOM     18  O   UNL     1      -8.634   5.739 128.838  0.00  0.00    +0.000 OA
ATOM     19  C   UNL     1      -6.946   0.452 126.954  0.00  0.00    +0.000 C 
ATOM     20  C   UNL     1      -7.415   0.462 125.545  0.00  0.00    +0.000 C 
ATOM     21  C   UNL     1      -5.460  -0.107 126.887  0.00  0.00    +0.000 C 
ENDROOT
BRANCH   4  22
ATOM     22  O   UNL     1      -9.142   4.901 131.388  0.00  0.00    +0.000 OA
BRANCH  22  23
ATOM     23  C   UNL     1     -10.177   5.895 131.868  0.00  0.00    +0.000 C 
ATOM     24  C   UNL     1     -11.544   6.104 131.125  0.00  0.00    +0.000 C 
ATOM     25  O   UNL     1     -10.126   6.391 133.006  0.00  0.00    +0.000 OA
ENDBRANCH  22  23
ENDBRANCH   4  22
BRANCH   6  26
ATOM     26  O   UNL     1      -5.122   5.450 129.758  0.00  0.00    +0.000 OA
BRANCH  26  27
ATOM     27  C   UNL     1      -3.956   5.747 129.089  0.00  0.00    +0.000 C 
ATOM     28  O   UNL     1      -3.049   6.520 129.465  0.00  0.00    +0.000 OA
BRANCH  27  29
ATOM     29  C   UNL     1      -3.626   4.940 127.913  0.00  0.00    +0.000 A 
ATOM     30  C   UNL     1      -4.552   4.585 126.890  0.00  0.00    +0.000 A 
ATOM     31  C   UNL     1      -4.261   3.509 126.056  0.00  0.00    +0.000 A 
ATOM     32  C   UNL     1      -3.039   2.857 126.213  0.00  0.00    +0.000 A 
ATOM     33  C   UNL     1      -2.109   3.285 127.169  0.00  0.00    +0.000 A 
ATOM     34  C   UNL     1      -2.387   4.353 127.997  0.00  0.00    +0.000 A 
ENDBRANCH  27  29
ENDBRANCH  26  27
ENDBRANCH   6  26
BRANCH   7  35
ATOM     35  O   UNL     1      -2.906   3.338 132.041  0.00  0.00    +0.000 OA
BRANCH  35  36
ATOM     36  C   UNL     1      -2.479   4.404 132.860  0.00  0.00    +0.000 C 
ATOM     37  C   UNL     1      -1.454   5.303 132.258  0.00  0.00    +0.000 C 
ATOM     38  O   UNL     1      -3.058   4.788 133.881  0.00  0.00    +0.000 OA
ENDBRANCH  35  36
ENDBRANCH   7  35
TORSDOF 7
ENDMDL
MODEL 8
REMARK VINA RESULT:      -8.2      3.452      6.636
REMARK  Name = Diacetyl benzoyl lathyrol
REMARK  13 active torsions:
REMARK  status: ('A' for Active; 'I' for Inactive)
REMARK    1  A    between atoms: C_1  and  C_2
REMARK    2  A    between atoms: C_4  and  O_5
REMARK    3  A    between atoms: O_5  and  C_6
REMARK    4  A    between atoms: C_6  and  C_7
REMARK    5  A    between atoms: C_10  and  O_11
REMARK    6  A    between atoms: O_11  and  C_12
REMARK    7  A    between atoms: C_12  and  C_14
REMARK    8  A    between atoms: C_20  and  O_21
REMARK    9  A    between atoms: O_21  and  C_22
REMARK   10  A    between atoms: C_22  and  C_23
REMARK   11  A    between atoms: C_32  and  C_33
REMARK   12  A    between atoms: C_36  and  C_37
REMARK   13  A    between atoms: C_36  and  C_38
REMARK                            x       y       z     vdW  Elec       q    Type
REMARK                         _______ _______ _______ _____ _____    ______ ____
ROOT
ATOM      1  C   UNL     1      -5.062   7.804 130.546  0.00  0.00    +0.000 C 
ATOM      2  C   UNL     1      -5.185   6.396 130.975  0.00  0.00    +0.000 C 
ATOM      3  C   UNL     1      -4.431   5.697 131.990  0.00  0.00    +0.000 C 
ATOM      4  C   UNL     1      -4.500   4.609 130.906  0.00  0.00    +0.000 C 
ATOM      5  C   UNL     1      -6.250   5.059 129.979  0.00  0.00    +0.000 C 
ATOM      6  C   UNL     1      -6.560   5.707 131.254  0.00  0.00    +0.000 C 
ATOM      7  C   UNL     1      -7.986   4.745 129.597  0.00  0.00    +0.000 C 
ATOM      8  C   UNL     1      -7.938   3.812 128.444  0.00  0.00    +0.000 C 
ATOM      9  C   UNL     1      -8.030   4.093 127.143  0.00  0.00    +0.000 C 
ATOM     10  C   UNL     1      -7.670   2.478 128.997  0.00  0.00    +0.000 C 
ATOM     11  C   UNL     1      -6.451   1.868 128.414  0.00  0.00    +0.000 C 
ATOM     12  C   UNL     1      -6.109   0.756 129.339  0.00  0.00    +0.000 C 
ATOM     13  C   UNL     1      -4.739   0.334 129.374  0.00  0.00    +0.000 C 
ATOM     14  C   UNL     1      -4.332   1.192 130.503  0.00  0.00    +0.000 C 
ATOM     15  C   UNL     1      -3.915   2.437 130.219  0.00  0.00    +0.000 C 
ATOM     16  C   UNL     1      -3.404   3.036 128.879  0.00  0.00    +0.000 C 
ATOM     17  C   UNL     1      -4.013   3.345 131.351  0.00  0.00    +0.000 C 
ATOM     18  O   UNL     1      -3.426   3.162 132.463  0.00  0.00    +0.000 OA
ATOM     19  C   UNL     1      -6.087  -0.618 128.859  0.00  0.00    +0.000 C 
ATOM     20  C   UNL     1      -5.784  -1.922 129.502  0.00  0.00    +0.000 C 
ATOM     21  C   UNL     1      -7.637  -0.680 128.518  0.00  0.00    +0.000 C 
ENDROOT
BRANCH   4  22
ATOM     22  O   UNL     1      -2.764   4.916 130.475  0.00  0.00    +0.000 OA
BRANCH  22  23
ATOM     23  C   UNL     1      -1.894   6.020 129.916  0.00  0.00    +0.000 C 
ATOM     24  C   UNL     1      -2.137   6.635 128.492  0.00  0.00    +0.000 C 
ATOM     25  O   UNL     1      -1.129   6.678 130.640  0.00  0.00    +0.000 OA
ENDBRANCH  22  23
ENDBRANCH   4  22
BRANCH   6  26
ATOM     26  O   UNL     1      -6.816   4.430 132.046  0.00  0.00    +0.000 OA
BRANCH  26  27
ATOM     27  C   UNL     1      -8.045   4.099 132.567  0.00  0.00    +0.000 C 
ATOM     28  O   UNL     1      -8.964   4.886 132.884  0.00  0.00    +0.000 OA
BRANCH  27  29
ATOM     29  C   UNL     1      -8.419   2.684 132.578  0.00  0.00    +0.000 A 
ATOM     30  C   UNL     1      -7.512   1.610 132.815  0.00  0.00    +0.000 A 
ATOM     31  C   UNL     1      -7.862   0.326 132.409  0.00  0.00    +0.000 A 
ATOM     32  C   UNL     1      -9.120   0.127 131.842  0.00  0.00    +0.000 A 
ATOM     33  C   UNL     1     -10.026   1.186 131.703  0.00  0.00    +0.000 A 
ATOM     34  C   UNL     1      -9.689   2.462 132.106  0.00  0.00    +0.000 A 
ENDBRANCH  27  29
ENDBRANCH  26  27
ENDBRANCH   6  26
BRANCH   7  35
ATOM     35  O   UNL     1      -9.049   5.830 129.284  0.00  0.00    +0.000 OA
BRANCH  35  36
ATOM     36  C   UNL     1     -10.369   5.948 129.763  0.00  0.00    +0.000 C 
ATOM     37  C   UNL     1     -10.860   7.344 129.952  0.00  0.00    +0.000 C 
ATOM     38  O   UNL     1     -11.202   5.035 129.780  0.00  0.00    +0.000 OA
ENDBRANCH  35  36
ENDBRANCH   7  35
TORSDOF 7
ENDMDL
MODEL 9
REMARK VINA RESULT:      -8.1      2.772      6.671
REMARK  Name = Diacetyl benzoyl lathyrol
REMARK  13 active torsions:
REMARK  status: ('A' for Active; 'I' for Inactive)
REMARK    1  A    between atoms: C_1  and  C_2
REMARK    2  A    between atoms: C_4  and  O_5
REMARK    3  A    between atoms: O_5  and  C_6
REMARK    4  A    between atoms: C_6  and  C_7
REMARK    5  A    between atoms: C_10  and  O_11
REMARK    6  A    between atoms: O_11  and  C_12
REMARK    7  A    between atoms: C_12  and  C_14
REMARK    8  A    between atoms: C_20  and  O_21
REMARK    9  A    between atoms: O_21  and  C_22
REMARK   10  A    between atoms: C_22  and  C_23
REMARK   11  A    between atoms: C_32  and  C_33
REMARK   12  A    between atoms: C_36  and  C_37
REMARK   13  A    between atoms: C_36  and  C_38
REMARK                            x       y       z     vdW  Elec       q    Type
REMARK                         _______ _______ _______ _____ _____    ______ ____
ROOT
ATOM      1  C   UNL     1      -6.742   7.009 131.089  0.00  0.00    +0.000 C 
ATOM      2  C   UNL     1      -7.104   5.701 130.508  0.00  0.00    +0.000 C 
ATOM      3  C   UNL     1      -8.351   5.304 129.894  0.00  0.00    +0.000 C 
ATOM      4  C   UNL     1      -8.029   4.035 130.702  0.00  0.00    +0.000 C 
ATOM      5  C   UNL     1      -5.999   4.077 130.746  0.00  0.00    +0.000 C 
ATOM      6  C   UNL     1      -6.161   4.903 129.550  0.00  0.00    +0.000 C 
ATOM      7  C   UNL     1      -4.374   3.476 130.241  0.00  0.00    +0.000 C 
ATOM      8  C   UNL     1      -4.094   2.361 131.178  0.00  0.00    +0.000 C 
ATOM      9  C   UNL     1      -3.384   2.383 132.308  0.00  0.00    +0.000 C 
ATOM     10  C   UNL     1      -4.838   1.198 130.679  0.00  0.00    +0.000 C 
ATOM     11  C   UNL     1      -5.769   0.653 131.695  0.00  0.00    +0.000 C 
ATOM     12  C   UNL     1      -6.698  -0.215 130.926  0.00  0.00    +0.000 C 
ATOM     13  C   UNL     1      -7.997  -0.443 131.490  0.00  0.00    +0.000 C 
ATOM     14  C   UNL     1      -8.680   0.653 130.778  0.00  0.00    +0.000 C 
ATOM     15  C   UNL     1      -8.672   1.869 131.351  0.00  0.00    +0.000 C 
ATOM     16  C   UNL     1      -8.408   2.271 132.829  0.00  0.00    +0.000 C 
ATOM     17  C   UNL     1      -8.903   2.948 130.405  0.00  0.00    +0.000 C 
ATOM     18  O   UNL     1      -9.944   3.051 129.684  0.00  0.00    +0.000 OA
ATOM     19  C   UNL     1      -6.780  -1.640 131.216  0.00  0.00    +0.000 C 
ATOM     20  C   UNL     1      -7.589  -2.753 130.656  0.00  0.00    +0.000 C 
ATOM     21  C   UNL     1      -5.285  -1.963 130.785  0.00  0.00    +0.000 C 
ENDROOT
BRANCH   4  22
ATOM     22  O   UNL     1      -9.297   4.479 131.921  0.00  0.00    +0.000 OA
BRANCH  22  23
ATOM     23  C   UNL     1      -9.566   5.535 132.970  0.00  0.00    +0.000 C 
ATOM     24  C   UNL     1      -8.577   5.805 134.159  0.00  0.00    +0.000 C 
ATOM     25  O   UNL     1     -10.426   6.417 132.803  0.00  0.00    +0.000 OA
ENDBRANCH  22  23
ENDBRANCH   4  22
BRANCH   6  26
ATOM     26  O   UNL     1      -6.541   3.772 128.601  0.00  0.00    +0.000 OA
BRANCH  26  27
ATOM     27  C   UNL     1      -6.701   3.945 127.246  0.00  0.00    +0.000 C 
ATOM     28  O   UNL     1      -6.161   4.816 126.530  0.00  0.00    +0.000 OA
BRANCH  27  29
ATOM     29  C   UNL     1      -7.411   2.899 126.508  0.00  0.00    +0.000 A 
ATOM     30  C   UNL     1      -8.031   3.083 125.238  0.00  0.00    +0.000 A 
ATOM     31  C   UNL     1      -9.002   2.179 124.820  0.00  0.00    +0.000 A 
ATOM     32  C   UNL     1      -9.287   1.085 125.636  0.00  0.00    +0.000 A 
ATOM     33  C   UNL     1      -8.598   0.881 126.838  0.00  0.00    +0.000 A 
ATOM     34  C   UNL     1      -7.630   1.769 127.258  0.00  0.00    +0.000 A 
ENDBRANCH  27  29
ENDBRANCH  26  27
ENDBRANCH   6  26
BRANCH   7  35
ATOM     35  O   UNL     1      -3.090   4.338 130.133  0.00  0.00    +0.000 OA
BRANCH  35  36
ATOM     36  C   UNL     1      -2.515   4.943 128.996  0.00  0.00    +0.000 C 
ATOM     37  C   UNL     1      -2.696   4.200 127.716  0.00  0.00    +0.000 C 
ATOM     38  O   UNL     1      -2.128   6.114 128.936  0.00  0.00    +0.000 OA
ENDBRANCH  35  36
ENDBRANCH   7  35
TORSDOF 7
ENDMDL
