MODEL 1
REMARK VINA RESULT:      -7.6      0.000      0.000
REMARK  Name = Diacerein
REMARK  8 active torsions:
REMARK  status: ('A' for Active; 'I' for Inactive)
REMARK    1  A    between atoms: C_1  and  C_2
REMARK    2  A    between atoms: C_2  and  O_4
REMARK    3  A    between atoms: O_4  and  C_5
REMARK    4  A    between atoms: C_14  and  O_15
REMARK    5  A    between atoms: O_15  and  C_16
REMARK    6  A    between atoms: C_16  and  C_17
REMARK    7  A    between atoms: C_20  and  C_25
REMARK    8  A    between atoms: C_25  and  O_26
REMARK                            x       y       z     vdW  Elec       q    Type
REMARK                         _______ _______ _______ _____ _____    ______ ____
ROOT
ATOM      1  C   UNL     1      -8.719  -2.911 126.475  0.00  0.00    +0.000 A 
ATOM      2  C   UNL     1      -8.980  -3.758 127.552  0.00  0.00    +0.000 A 
ATOM      3  C   UNL     1      -8.497  -3.425 128.824  0.00  0.00    +0.000 A 
ATOM      4  C   UNL     1      -7.661  -2.317 129.005  0.00  0.00    +0.000 A 
ATOM      5  C   UNL     1      -7.415  -1.455 127.943  0.00  0.00    +0.000 A 
ATOM      6  C   UNL     1      -8.062  -1.682 126.730  0.00  0.00    +0.000 A 
ATOM      7  C   UNL     1      -8.325  -0.380 126.086  0.00  0.00    +0.000 C 
ATOM      8  O   UNL     1      -9.460   0.059 125.925  0.00  0.00    +0.000 OA
ATOM      9  C   UNL     1      -7.208   0.530 125.843  0.00  0.00    +0.000 A 
ATOM     10  C   UNL     1      -7.112   1.388 124.735  0.00  0.00    +0.000 A 
ATOM     11  C   UNL     1      -6.287   2.519 124.825  0.00  0.00    +0.000 A 
ATOM     12  C   UNL     1      -5.568   2.777 126.019  0.00  0.00    +0.000 A 
ATOM     13  C   UNL     1      -5.626   1.852 127.076  0.00  0.00    +0.000 A 
ATOM     14  C   UNL     1      -6.421   0.711 126.972  0.00  0.00    +0.000 A 
ATOM     15  C   UNL     1      -6.560  -0.244 128.104  0.00  0.00    +0.000 C 
ATOM     16  O   UNL     1      -5.944  -0.041 129.151  0.00  0.00    +0.000 OA
ENDROOT
BRANCH  12  17
ATOM     17  C   UNL     1      -4.795   4.051 126.131  0.00  0.00    +0.000 C 
ATOM     18  O   UNL     1      -3.567   4.058 126.143  0.00  0.00    +0.000 OA
BRANCH  17  19
ATOM     19  O   UNL     1      -5.501   5.194 126.213  0.00  0.00    +0.000 OA
ATOM     20  H   UNL     1      -5.742   5.562 127.080  0.00  0.00    +0.000 HD
ENDBRANCH  17  19
ENDBRANCH  12  17
BRANCH   1  21
ATOM     21  O   UNL     1      -9.155  -3.392 125.200  0.00  0.00    +0.000 OA
BRANCH  21  23
ATOM     22  C   UNL     1      -8.667  -2.475 122.982  0.00  0.00    +0.000 C 
ATOM     23  C   UNL     1      -8.232  -3.390 124.131  0.00  0.00    +0.000 C 
ATOM     24  O   UNL     1      -7.125  -3.918 124.180  0.00  0.00    +0.000 OA
ENDBRANCH  21  23
ENDBRANCH   1  21
BRANCH  10  25
ATOM     25  O   UNL     1      -7.859   1.252 123.494  0.00  0.00    +0.000 OA
BRANCH  25  26
ATOM     26  C   UNL     1      -8.966   1.901 122.909  0.00  0.00    +0.000 C 
ATOM     27  C   UNL     1     -10.116   1.042 122.675  0.00  0.00    +0.000 C 
ATOM     28  O   UNL     1      -8.978   3.074 122.527  0.00  0.00    +0.000 OA
ENDBRANCH  25  26
ENDBRANCH  10  25
TORSDOF 6
ENDMDL
MODEL 2
REMARK VINA RESULT:      -7.4      1.801      4.560
REMARK  Name = Diacerein
REMARK  8 active torsions:
REMARK  status: ('A' for Active; 'I' for Inactive)
REMARK    1  A    between atoms: C_1  and  C_2
REMARK    2  A    between atoms: C_2  and  O_4
REMARK    3  A    between atoms: O_4  and  C_5
REMARK    4  A    between atoms: C_14  and  O_15
REMARK    5  A    between atoms: O_15  and  C_16
REMARK    6  A    between atoms: C_16  and  C_17
REMARK    7  A    between atoms: C_20  and  C_25
REMARK    8  A    between atoms: C_25  and  O_26
REMARK                            x       y       z     vdW  Elec       q    Type
REMARK                         _______ _______ _______ _____ _____    ______ ____
ROOT
ATOM      1  C   UNL     1      -7.454  -2.014 128.080  0.00  0.00    +0.000 A 
ATOM      2  C   UNL     1      -8.130  -3.229 128.203  0.00  0.00    +0.000 A 
ATOM      3  C   UNL     1      -8.972  -3.658 127.169  0.00  0.00    +0.000 A 
ATOM      4  C   UNL     1      -9.232  -2.832 126.068  0.00  0.00    +0.000 A 
ATOM      5  C   UNL     1      -8.545  -1.633 125.926  0.00  0.00    +0.000 A 
ATOM      6  C   UNL     1      -7.562  -1.306 126.857  0.00  0.00    +0.000 A 
ATOM      7  C   UNL     1      -6.499  -0.544 126.173  0.00  0.00    +0.000 C 
ATOM      8  O   UNL     1      -5.364  -0.986 126.020  0.00  0.00    +0.000 OA
ATOM      9  C   UNL     1      -6.855   0.671 125.443  0.00  0.00    +0.000 A 
ATOM     10  C   UNL     1      -6.033   1.806 125.345  0.00  0.00    +0.000 A 
ATOM     11  C   UNL     1      -6.231   2.694 124.279  0.00  0.00    +0.000 A 
ATOM     12  C   UNL     1      -7.248   2.438 123.324  0.00  0.00    +0.000 A 
ATOM     13  C   UNL     1      -8.103   1.336 123.502  0.00  0.00    +0.000 A 
ATOM     14  C   UNL     1      -7.925   0.473 124.581  0.00  0.00    +0.000 A 
ATOM     15  C   UNL     1      -8.766  -0.743 124.750  0.00  0.00    +0.000 C 
ATOM     16  O   UNL     1      -9.657  -0.984 123.934  0.00  0.00    +0.000 OA
ENDROOT
BRANCH  12  17
ATOM     17  C   UNL     1      -7.355   3.333 122.133  0.00  0.00    +0.000 C 
ATOM     18  O   UNL     1      -6.369   3.639 121.468  0.00  0.00    +0.000 OA
BRANCH  17  19
ATOM     19  O   UNL     1      -8.580   3.791 121.815  0.00  0.00    +0.000 OA
ATOM     20  H   UNL     1      -9.260   3.183 121.476  0.00  0.00    +0.000 HD
ENDBRANCH  17  19
ENDBRANCH  12  17
BRANCH   1  21
ATOM     21  O   UNL     1      -6.711  -1.609 129.233  0.00  0.00    +0.000 OA
BRANCH  21  23
ATOM     22  C   UNL     1      -4.577  -2.766 128.910  0.00  0.00    +0.000 C 
ATOM     23  C   UNL     1      -5.800  -2.527 129.801  0.00  0.00    +0.000 C 
ATOM     24  O   UNL     1      -5.882  -2.954 130.949  0.00  0.00    +0.000 OA
ENDBRANCH  21  23
ENDBRANCH   1  21
BRANCH  10  25
ATOM     25  O   UNL     1      -4.921   2.121 126.229  0.00  0.00    +0.000 OA
BRANCH  25  26
ATOM     26  C   UNL     1      -4.110   3.251 126.462  0.00  0.00    +0.000 C 
ATOM     27  C   UNL     1      -2.690   2.961 126.588  0.00  0.00    +0.000 C 
ATOM     28  O   UNL     1      -4.528   4.399 126.640  0.00  0.00    +0.000 OA
ENDBRANCH  25  26
ENDBRANCH  10  25
TORSDOF 6
ENDMDL
MODEL 3
REMARK VINA RESULT:      -7.4      7.919      9.358
REMARK  Name = Diacerein
REMARK  8 active torsions:
REMARK  status: ('A' for Active; 'I' for Inactive)
REMARK    1  A    between atoms: C_1  and  C_2
REMARK    2  A    between atoms: C_2  and  O_4
REMARK    3  A    between atoms: O_4  and  C_5
REMARK    4  A    between atoms: C_14  and  O_15
REMARK    5  A    between atoms: O_15  and  C_16
REMARK    6  A    between atoms: C_16  and  C_17
REMARK    7  A    between atoms: C_20  and  C_25
REMARK    8  A    between atoms: C_25  and  O_26
REMARK                            x       y       z     vdW  Elec       q    Type
REMARK                         _______ _______ _______ _____ _____    ______ ____
ROOT
ATOM      1  C   UNL     1      -9.898   6.279 129.795  0.00  0.00    +0.000 A 
ATOM      2  C   UNL     1     -11.233   6.399 130.182  0.00  0.00    +0.000 A 
ATOM      3  C   UNL     1     -11.560   6.382 131.544  0.00  0.00    +0.000 A 
ATOM      4  C   UNL     1     -10.582   6.132 132.512  0.00  0.00    +0.000 A 
ATOM      5  C   UNL     1      -9.247   6.036 132.138  0.00  0.00    +0.000 A 
ATOM      6  C   UNL     1      -8.905   6.253 130.805  0.00  0.00    +0.000 A 
ATOM      7  C   UNL     1      -7.568   6.877 130.757  0.00  0.00    +0.000 C 
ATOM      8  O   UNL     1      -7.391   8.028 130.368  0.00  0.00    +0.000 OA
ATOM      9  C   UNL     1      -6.447   6.205 131.410  0.00  0.00    +0.000 A 
ATOM     10  C   UNL     1      -5.125   6.229 130.938  0.00  0.00    +0.000 A 
ATOM     11  C   UNL     1      -4.080   5.978 131.839  0.00  0.00    +0.000 A 
ATOM     12  C   UNL     1      -4.369   5.705 133.200  0.00  0.00    +0.000 A 
ATOM     13  C   UNL     1      -5.708   5.609 133.617  0.00  0.00    +0.000 A 
ATOM     14  C   UNL     1      -6.746   5.827 132.712  0.00  0.00    +0.000 A 
ATOM     15  C   UNL     1      -8.170   5.806 133.144  0.00  0.00    +0.000 C 
ATOM     16  O   UNL     1      -8.445   5.570 134.321  0.00  0.00    +0.000 OA
ENDROOT
BRANCH  12  17
ATOM     17  C   UNL     1      -3.234   5.564 134.160  0.00  0.00    +0.000 C 
ATOM     18  O   UNL     1      -3.370   5.812 135.356  0.00  0.00    +0.000 OA
BRANCH  17  19
ATOM     19  O   UNL     1      -2.054   5.150 133.663  0.00  0.00    +0.000 OA
ATOM     20  H   UNL     1      -1.241   5.235 134.189  0.00  0.00    +0.000 HD
ENDBRANCH  17  19
ENDBRANCH  12  17
BRANCH   1  21
ATOM     21  O   UNL     1      -9.676   6.192 128.384  0.00  0.00    +0.000 OA
BRANCH  21  23
ATOM     22  C   UNL     1     -10.436   8.499 128.065  0.00  0.00    +0.000 C 
ATOM     23  C   UNL     1     -10.399   7.061 127.536  0.00  0.00    +0.000 C 
ATOM     24  O   UNL     1     -10.802   6.751 126.420  0.00  0.00    +0.000 OA
ENDBRANCH  21  23
ENDBRANCH   1  21
BRANCH  10  25
ATOM     25  O   UNL     1      -4.719   6.566 129.582  0.00  0.00    +0.000 OA
BRANCH  25  26
ATOM     26  C   UNL     1      -3.799   7.463 129.000  0.00  0.00    +0.000 C 
ATOM     27  C   UNL     1      -2.780   6.834 128.174  0.00  0.00    +0.000 C 
ATOM     28  O   UNL     1      -3.763   8.678 129.213  0.00  0.00    +0.000 OA
ENDBRANCH  25  26
ENDBRANCH  10  25
TORSDOF 6
ENDMDL
MODEL 4
REMARK VINA RESULT:      -7.4      2.168      4.242
REMARK  Name = Diacerein
REMARK  8 active torsions:
REMARK  status: ('A' for Active; 'I' for Inactive)
REMARK    1  A    between atoms: C_1  and  C_2
REMARK    2  A    between atoms: C_2  and  O_4
REMARK    3  A    between atoms: O_4  and  C_5
REMARK    4  A    between atoms: C_14  and  O_15
REMARK    5  A    between atoms: O_15  and  C_16
REMARK    6  A    between atoms: C_16  and  C_17
REMARK    7  A    between atoms: C_20  and  C_25
REMARK    8  A    between atoms: C_25  and  O_26
REMARK                            x       y       z     vdW  Elec       q    Type
REMARK                         _______ _______ _______ _____ _____    ______ ____
ROOT
ATOM      1  C   UNL     1      -8.723  -1.222 123.754  0.00  0.00    +0.000 A 
ATOM      2  C   UNL     1      -8.975  -2.468 123.180  0.00  0.00    +0.000 A 
ATOM      3  C   UNL     1      -8.969  -3.613 123.987  0.00  0.00    +0.000 A 
ATOM      4  C   UNL     1      -8.602  -3.537 125.335  0.00  0.00    +0.000 A 
ATOM      5  C   UNL     1      -8.373  -2.298 125.921  0.00  0.00    +0.000 A 
ATOM      6  C   UNL     1      -8.576  -1.148 125.162  0.00  0.00    +0.000 A 
ATOM      7  C   UNL     1      -9.058  -0.074 126.052  0.00  0.00    +0.000 C 
ATOM      8  O   UNL     1     -10.191   0.392 125.970  0.00  0.00    +0.000 OA
ATOM      9  C   UNL     1      -8.262   0.289 127.222  0.00  0.00    +0.000 A 
ATOM     10  C   UNL     1      -8.156   1.592 127.736  0.00  0.00    +0.000 A 
ATOM     11  C   UNL     1      -7.782   1.761 129.077  0.00  0.00    +0.000 A 
ATOM     12  C   UNL     1      -7.518   0.628 129.888  0.00  0.00    +0.000 A 
ATOM     13  C   UNL     1      -7.555  -0.655 129.316  0.00  0.00    +0.000 A 
ATOM     14  C   UNL     1      -7.895  -0.820 127.974  0.00  0.00    +0.000 A 
ATOM     15  C   UNL     1      -8.016  -2.172 127.363  0.00  0.00    +0.000 C 
ATOM     16  O   UNL     1      -7.790  -3.170 128.048  0.00  0.00    +0.000 OA
ENDROOT
BRANCH  12  17
ATOM     17  C   UNL     1      -7.243   0.834 131.341  0.00  0.00    +0.000 C 
ATOM     18  O   UNL     1      -7.340  -0.086 132.150  0.00  0.00    +0.000 OA
BRANCH  17  19
ATOM     19  O   UNL     1      -6.881   2.070 131.730  0.00  0.00    +0.000 OA
ATOM     20  H   UNL     1      -7.348   2.851 131.387  0.00  0.00    +0.000 HD
ENDBRANCH  17  19
ENDBRANCH  12  17
BRANCH   1  21
ATOM     21  O   UNL     1      -8.638  -0.131 122.833  0.00  0.00    +0.000 OA
BRANCH  21  23
ATOM     22  C   UNL     1      -9.341   2.198 122.549  0.00  0.00    +0.000 C 
ATOM     23  C   UNL     1      -9.750   0.730 122.706  0.00  0.00    +0.000 C 
ATOM     24  O   UNL     1     -10.905   0.341 122.561  0.00  0.00    +0.000 OA
ENDBRANCH  21  23
ENDBRANCH   1  21
BRANCH  10  25
ATOM     25  O   UNL     1      -8.472   2.813 127.012  0.00  0.00    +0.000 OA
BRANCH  25  26
ATOM     26  C   UNL     1      -8.037   3.412 125.812  0.00  0.00    +0.000 C 
ATOM     27  C   UNL     1      -6.720   2.986 125.365  0.00  0.00    +0.000 C 
ATOM     28  O   UNL     1      -8.645   4.295 125.199  0.00  0.00    +0.000 OA
ENDBRANCH  25  26
ENDBRANCH  10  25
TORSDOF 6
ENDMDL
MODEL 5
REMARK VINA RESULT:      -6.9      2.504      5.819
REMARK  Name = Diacerein
REMARK  8 active torsions:
REMARK  status: ('A' for Active; 'I' for Inactive)
REMARK    1  A    between atoms: C_1  and  C_2
REMARK    2  A    between atoms: C_2  and  O_4
REMARK    3  A    between atoms: O_4  and  C_5
REMARK    4  A    between atoms: C_14  and  O_15
REMARK    5  A    between atoms: O_15  and  C_16
REMARK    6  A    between atoms: C_16  and  C_17
REMARK    7  A    between atoms: C_20  and  C_25
REMARK    8  A    between atoms: C_25  and  O_26
REMARK                            x       y       z     vdW  Elec       q    Type
REMARK                         _______ _______ _______ _____ _____    ______ ____
ROOT
ATOM      1  C   UNL     1      -7.248  -0.544 131.008  0.00  0.00    +0.000 A 
ATOM      2  C   UNL     1      -7.042  -1.356 132.124  0.00  0.00    +0.000 A 
ATOM      3  C   UNL     1      -7.165  -2.746 131.998  0.00  0.00    +0.000 A 
ATOM      4  C   UNL     1      -7.604  -3.320 130.800  0.00  0.00    +0.000 A 
ATOM      5  C   UNL     1      -7.789  -2.523 129.677  0.00  0.00    +0.000 A 
ATOM      6  C   UNL     1      -7.471  -1.168 129.755  0.00  0.00    +0.000 A 
ATOM      7  C   UNL     1      -6.976  -0.724 128.438  0.00  0.00    +0.000 C 
ATOM      8  O   UNL     1      -5.814  -0.374 128.254  0.00  0.00    +0.000 OA
ATOM      9  C   UNL     1      -7.814  -0.927 127.259  0.00  0.00    +0.000 A 
ATOM     10  C   UNL     1      -7.869  -0.048 126.164  0.00  0.00    +0.000 A 
ATOM     11  C   UNL     1      -8.308  -0.538 124.926  0.00  0.00    +0.000 A 
ATOM     12  C   UNL     1      -8.689  -1.897 124.796  0.00  0.00    +0.000 A 
ATOM     13  C   UNL     1      -8.698  -2.724 125.933  0.00  0.00    +0.000 A 
ATOM     14  C   UNL     1      -8.293  -2.228 127.170  0.00  0.00    +0.000 A 
ATOM     15  C   UNL     1      -8.220  -3.101 128.373  0.00  0.00    +0.000 C 
ATOM     16  O   UNL     1      -8.548  -4.285 128.284  0.00  0.00    +0.000 OA
ENDROOT
BRANCH  12  17
ATOM     17  C   UNL     1      -9.034  -2.420 123.440  0.00  0.00    +0.000 C 
ATOM     18  O   UNL     1      -8.382  -2.108 122.447  0.00  0.00    +0.000 OA
BRANCH  17  19
ATOM     19  O   UNL     1     -10.089  -3.250 123.350  0.00  0.00    +0.000 OA
ATOM     20  H   UNL     1     -10.001  -4.186 123.600  0.00  0.00    +0.000 HD
ENDBRANCH  17  19
ENDBRANCH  12  17
BRANCH   1  21
ATOM     21  O   UNL     1      -7.213   0.863 131.261  0.00  0.00    +0.000 OA
BRANCH  21  23
ATOM     22  C   UNL     1      -9.560   1.292 131.812  0.00  0.00    +0.000 C 
ATOM     23  C   UNL     1      -8.090   1.393 132.233  0.00  0.00    +0.000 C 
ATOM     24  O   UNL     1      -7.741   1.734 133.359  0.00  0.00    +0.000 OA
ENDBRANCH  21  23
ENDBRANCH   1  21
BRANCH  10  25
ATOM     25  O   UNL     1      -7.436   1.341 126.175  0.00  0.00    +0.000 OA
BRANCH  25  26
ATOM     26  C   UNL     1      -8.073   2.592 126.307  0.00  0.00    +0.000 C 
ATOM     27  C   UNL     1      -7.763   3.301 127.539  0.00  0.00    +0.000 C 
ATOM     28  O   UNL     1      -8.900   3.053 125.517  0.00  0.00    +0.000 OA
ENDBRANCH  25  26
ENDBRANCH  10  25
TORSDOF 6
ENDMDL
MODEL 6
REMARK VINA RESULT:      -6.9      4.791      7.460
REMARK  Name = Diacerein
REMARK  8 active torsions:
REMARK  status: ('A' for Active; 'I' for Inactive)
REMARK    1  A    between atoms: C_1  and  C_2
REMARK    2  A    between atoms: C_2  and  O_4
REMARK    3  A    between atoms: O_4  and  C_5
REMARK    4  A    between atoms: C_14  and  O_15
REMARK    5  A    between atoms: O_15  and  C_16
REMARK    6  A    between atoms: C_16  and  C_17
REMARK    7  A    between atoms: C_20  and  C_25
REMARK    8  A    between atoms: C_25  and  O_26
REMARK                            x       y       z     vdW  Elec       q    Type
REMARK                         _______ _______ _______ _____ _____    ______ ____
ROOT
ATOM      1  C   UNL     1      -9.469   5.730 129.887  0.00  0.00    +0.000 A 
ATOM      2  C   UNL     1      -9.686   6.638 130.924  0.00  0.00    +0.000 A 
ATOM      3  C   UNL     1      -9.594   6.203 132.252  0.00  0.00    +0.000 A 
ATOM      4  C   UNL     1      -9.401   4.850 132.551  0.00  0.00    +0.000 A 
ATOM      5  C   UNL     1      -9.160   3.942 131.526  0.00  0.00    +0.000 A 
ATOM      6  C   UNL     1      -9.054   4.416 130.220  0.00  0.00    +0.000 A 
ATOM      7  C   UNL     1      -8.083   3.577 129.492  0.00  0.00    +0.000 C 
ATOM      8  O   UNL     1      -7.002   4.007 129.101  0.00  0.00    +0.000 OA
ATOM      9  C   UNL     1      -8.295   2.132 129.435  0.00  0.00    +0.000 A 
ATOM     10  C   UNL     1      -7.958   1.324 128.337  0.00  0.00    +0.000 A 
ATOM     11  C   UNL     1      -7.757  -0.048 128.544  0.00  0.00    +0.000 A 
ATOM     12  C   UNL     1      -7.896  -0.596 129.844  0.00  0.00    +0.000 A 
ATOM     13  C   UNL     1      -8.314   0.230 130.902  0.00  0.00    +0.000 A 
ATOM     14  C   UNL     1      -8.545   1.588 130.688  0.00  0.00    +0.000 A 
ATOM     15  C   UNL     1      -8.914   2.499 131.805  0.00  0.00    +0.000 C 
ATOM     16  O   UNL     1      -9.042   2.045 132.943  0.00  0.00    +0.000 OA
ENDROOT
BRANCH  12  17
ATOM     17  C   UNL     1      -7.557  -2.035 130.057  0.00  0.00    +0.000 C 
ATOM     18  O   UNL     1      -6.606  -2.374 130.757  0.00  0.00    +0.000 OA
BRANCH  17  19
ATOM     19  O   UNL     1      -8.337  -2.948 129.450  0.00  0.00    +0.000 OA
ATOM     20  H   UNL     1      -9.306  -2.890 129.517  0.00  0.00    +0.000 HD
ENDBRANCH  17  19
ENDBRANCH  12  17
BRANCH   1  21
ATOM     21  O   UNL     1      -9.697   6.240 128.570  0.00  0.00    +0.000 OA
BRANCH  21  23
ATOM     22  C   UNL     1     -10.604   8.415 127.905  0.00  0.00    +0.000 C 
ATOM     23  C   UNL     1     -10.882   6.969 128.329  0.00  0.00    +0.000 C 
ATOM     24  O   UNL     1     -12.000   6.466 128.288  0.00  0.00    +0.000 OA
ENDBRANCH  21  23
ENDBRANCH   1  21
BRANCH  10  25
ATOM     25  O   UNL     1      -7.724   1.797 126.982  0.00  0.00    +0.000 OA
BRANCH  25  26
ATOM     26  C   UNL     1      -8.475   1.848 125.790  0.00  0.00    +0.000 C 
ATOM     27  C   UNL     1      -8.410   0.640 124.981  0.00  0.00    +0.000 C 
ATOM     28  O   UNL     1      -9.081   2.840 125.376  0.00  0.00    +0.000 OA
ENDBRANCH  25  26
ENDBRANCH  10  25
TORSDOF 6
ENDMDL
MODEL 7
REMARK VINA RESULT:      -6.9      1.843      5.459
REMARK  Name = Diacerein
REMARK  8 active torsions:
REMARK  status: ('A' for Active; 'I' for Inactive)
REMARK    1  A    between atoms: C_1  and  C_2
REMARK    2  A    between atoms: C_2  and  O_4
REMARK    3  A    between atoms: O_4  and  C_5
REMARK    4  A    between atoms: C_14  and  O_15
REMARK    5  A    between atoms: O_15  and  C_16
REMARK    6  A    between atoms: C_16  and  C_17
REMARK    7  A    between atoms: C_20  and  C_25
REMARK    8  A    between atoms: C_25  and  O_26
REMARK                            x       y       z     vdW  Elec       q    Type
REMARK                         _______ _______ _______ _____ _____    ______ ____
ROOT
ATOM      1  C   UNL     1      -7.962  -1.054 123.941  0.00  0.00    +0.000 A 
ATOM      2  C   UNL     1      -8.617  -1.819 122.975  0.00  0.00    +0.000 A 
ATOM      3  C   UNL     1      -9.315  -2.970 123.364  0.00  0.00    +0.000 A 
ATOM      4  C   UNL     1      -9.267  -3.424 124.687  0.00  0.00    +0.000 A 
ATOM      5  C   UNL     1      -8.637  -2.657 125.659  0.00  0.00    +0.000 A 
ATOM      6  C   UNL     1      -8.118  -1.414 125.303  0.00  0.00    +0.000 A 
ATOM      7  C   UNL     1      -8.245  -0.502 126.456  0.00  0.00    +0.000 C 
ATOM      8  O   UNL     1      -8.989   0.473 126.447  0.00  0.00    +0.000 OA
ATOM      9  C   UNL     1      -7.656  -0.890 127.736  0.00  0.00    +0.000 A 
ATOM     10  C   UNL     1      -7.087   0.010 128.652  0.00  0.00    +0.000 A 
ATOM     11  C   UNL     1      -6.989  -0.368 129.999  0.00  0.00    +0.000 A 
ATOM     12  C   UNL     1      -7.460  -1.640 130.414  0.00  0.00    +0.000 A 
ATOM     13  C   UNL     1      -7.947  -2.544 129.454  0.00  0.00    +0.000 A 
ATOM     14  C   UNL     1      -8.014  -2.179 128.110  0.00  0.00    +0.000 A 
ATOM     15  C   UNL     1      -8.596  -3.088 127.086  0.00  0.00    +0.000 C 
ATOM     16  O   UNL     1      -9.009  -4.198 127.423  0.00  0.00    +0.000 OA
ENDROOT
BRANCH  12  17
ATOM     17  C   UNL     1      -7.455  -1.967 131.871  0.00  0.00    +0.000 C 
ATOM     18  O   UNL     1      -7.416  -3.128 132.269  0.00  0.00    +0.000 OA
BRANCH  17  19
ATOM     19  O   UNL     1      -7.493  -0.934 132.734  0.00  0.00    +0.000 OA
ATOM     20  H   UNL     1      -7.144  -1.033 133.636  0.00  0.00    +0.000 HD
ENDBRANCH  17  19
ENDBRANCH  12  17
BRANCH   1  21
ATOM     21  O   UNL     1      -7.185   0.034 123.434  0.00  0.00    +0.000 OA
BRANCH  21  23
ATOM     22  C   UNL     1      -6.828   2.388 122.859  0.00  0.00    +0.000 C 
ATOM     23  C   UNL     1      -7.813   1.288 123.268  0.00  0.00    +0.000 C 
ATOM     24  O   UNL     1      -9.029   1.452 123.276  0.00  0.00    +0.000 OA
ENDBRANCH  21  23
ENDBRANCH   1  21
BRANCH  10  25
ATOM     25  O   UNL     1      -6.641   1.359 128.343  0.00  0.00    +0.000 OA
BRANCH  25  26
ATOM     26  C   UNL     1      -5.478   1.932 127.789  0.00  0.00    +0.000 C 
ATOM     27  C   UNL     1      -5.426   1.910 126.335  0.00  0.00    +0.000 C 
ATOM     28  O   UNL     1      -4.515   2.351 128.438  0.00  0.00    +0.000 OA
ENDBRANCH  25  26
ENDBRANCH  10  25
TORSDOF 6
ENDMDL
MODEL 8
REMARK VINA RESULT:      -6.8      2.065      4.352
REMARK  Name = Diacerein
REMARK  8 active torsions:
REMARK  status: ('A' for Active; 'I' for Inactive)
REMARK    1  A    between atoms: C_1  and  C_2
REMARK    2  A    between atoms: C_2  and  O_4
REMARK    3  A    between atoms: O_4  and  C_5
REMARK    4  A    between atoms: C_14  and  O_15
REMARK    5  A    between atoms: O_15  and  C_16
REMARK    6  A    between atoms: C_16  and  C_17
REMARK    7  A    between atoms: C_20  and  C_25
REMARK    8  A    between atoms: C_25  and  O_26
REMARK                            x       y       z     vdW  Elec       q    Type
REMARK                         _______ _______ _______ _____ _____    ______ ____
ROOT
ATOM      1  C   UNL     1      -5.019  -1.384 129.032  0.00  0.00    +0.000 A 
ATOM      2  C   UNL     1      -4.505  -0.983 130.266  0.00  0.00    +0.000 A 
ATOM      3  C   UNL     1      -4.299   0.379 130.517  0.00  0.00    +0.000 A 
ATOM      4  C   UNL     1      -4.493   1.331 129.509  0.00  0.00    +0.000 A 
ATOM      5  C   UNL     1      -5.028   0.944 128.286  0.00  0.00    +0.000 A 
ATOM      6  C   UNL     1      -5.418  -0.382 128.113  0.00  0.00    +0.000 A 
ATOM      7  C   UNL     1      -6.584  -0.416 127.209  0.00  0.00    +0.000 C 
ATOM      8  O   UNL     1      -7.700  -0.762 127.585  0.00  0.00    +0.000 OA
ATOM      9  C   UNL     1      -6.478   0.203 125.890  0.00  0.00    +0.000 A 
ATOM     10  C   UNL     1      -7.117  -0.278 124.735  0.00  0.00    +0.000 A 
ATOM     11  C   UNL     1      -7.343   0.606 123.670  0.00  0.00    +0.000 A 
ATOM     12  C   UNL     1      -6.927   1.958 123.770  0.00  0.00    +0.000 A 
ATOM     13  C   UNL     1      -6.217   2.380 124.908  0.00  0.00    +0.000 A 
ATOM     14  C   UNL     1      -5.965   1.492 125.952  0.00  0.00    +0.000 A 
ATOM     15  C   UNL     1      -5.284   1.932 127.200  0.00  0.00    +0.000 C 
ATOM     16  O   UNL     1      -4.912   3.101 127.309  0.00  0.00    +0.000 OA
ENDROOT
BRANCH  12  17
ATOM     17  C   UNL     1      -7.289   2.904 122.673  0.00  0.00    +0.000 C 
ATOM     18  O   UNL     1      -6.527   3.121 121.734  0.00  0.00    +0.000 OA
BRANCH  17  19
ATOM     19  O   UNL     1      -8.489   3.508 122.752  0.00  0.00    +0.000 OA
ATOM     20  H   UNL     1      -8.648   4.349 122.290  0.00  0.00    +0.000 HD
ENDBRANCH  17  19
ENDBRANCH  12  17
BRANCH   1  21
ATOM     21  O   UNL     1      -5.087  -2.798 128.829  0.00  0.00    +0.000 OA
BRANCH  21  23
ATOM     22  C   UNL     1      -7.237  -3.418 129.824  0.00  0.00    +0.000 C 
ATOM     23  C   UNL     1      -5.714  -3.589 129.817  0.00  0.00    +0.000 C 
ATOM     24  O   UNL     1      -5.137  -4.447 130.477  0.00  0.00    +0.000 OA
ENDBRANCH  21  23
ENDBRANCH   1  21
BRANCH  10  25
ATOM     25  O   UNL     1      -7.644  -1.622 124.560  0.00  0.00    +0.000 OA
BRANCH  25  26
ATOM     26  C   UNL     1      -8.927  -2.208 124.556  0.00  0.00    +0.000 C 
ATOM     27  C   UNL     1      -9.235  -2.981 123.363  0.00  0.00    +0.000 C 
ATOM     28  O   UNL     1      -9.786  -2.037 125.425  0.00  0.00    +0.000 OA
ENDBRANCH  25  26
ENDBRANCH  10  25
TORSDOF 6
ENDMDL
MODEL 9
REMARK VINA RESULT:      -6.7      2.234      4.240
REMARK  Name = Diacerein
REMARK  8 active torsions:
REMARK  status: ('A' for Active; 'I' for Inactive)
REMARK    1  A    between atoms: C_1  and  C_2
REMARK    2  A    between atoms: C_2  and  O_4
REMARK    3  A    between atoms: O_4  and  C_5
REMARK    4  A    between atoms: C_14  and  O_15
REMARK    5  A    between atoms: O_15  and  C_16
REMARK    6  A    between atoms: C_16  and  C_17
REMARK    7  A    between atoms: C_20  and  C_25
REMARK    8  A    between atoms: C_25  and  O_26
REMARK                            x       y       z     vdW  Elec       q    Type
REMARK                         _______ _______ _______ _____ _____    ______ ____
ROOT
ATOM      1  C   UNL     1      -7.364  -0.853 129.028  0.00  0.00    +0.000 A 
ATOM      2  C   UNL     1      -7.793  -0.540 130.318  0.00  0.00    +0.000 A 
ATOM      3  C   UNL     1      -8.388   0.704 130.564  0.00  0.00    +0.000 A 
ATOM      4  C   UNL     1      -8.451   1.678 129.561  0.00  0.00    +0.000 A 
ATOM      5  C   UNL     1      -8.048   1.367 128.268  0.00  0.00    +0.000 A 
ATOM      6  C   UNL     1      -7.645   0.064 127.985  0.00  0.00    +0.000 A 
ATOM      7  C   UNL     1      -8.027  -0.256 126.596  0.00  0.00    +0.000 C 
ATOM      8  O   UNL     1      -8.879  -1.096 126.323  0.00  0.00    +0.000 OA
ATOM      9  C   UNL     1      -7.562   0.609 125.514  0.00  0.00    +0.000 A 
ATOM     10  C   UNL     1      -7.228   0.158 124.227  0.00  0.00    +0.000 A 
ATOM     11  C   UNL     1      -7.254   1.070 123.162  0.00  0.00    +0.000 A 
ATOM     12  C   UNL     1      -7.613   2.422 123.397  0.00  0.00    +0.000 A 
ATOM     13  C   UNL     1      -7.861   2.853 124.712  0.00  0.00    +0.000 A 
ATOM     14  C   UNL     1      -7.802   1.952 125.774  0.00  0.00    +0.000 A 
ATOM     15  C   UNL     1      -8.134   2.365 127.164  0.00  0.00    +0.000 C 
ATOM     16  O   UNL     1      -8.447   3.535 127.392  0.00  0.00    +0.000 OA
ENDROOT
BRANCH  12  17
ATOM     17  C   UNL     1      -7.752   3.341 122.228  0.00  0.00    +0.000 C 
ATOM     18  O   UNL     1      -8.828   3.492 121.655  0.00  0.00    +0.000 OA
BRANCH  17  19
ATOM     19  O   UNL     1      -6.650   4.001 121.829  0.00  0.00    +0.000 OA
ATOM     20  H   UNL     1      -6.674   4.964 121.693  0.00  0.00    +0.000 HD
ENDBRANCH  17  19
ENDBRANCH  12  17
BRANCH   1  21
ATOM     21  O   UNL     1      -6.669  -2.097 128.900  0.00  0.00    +0.000 OA
BRANCH  21  23
ATOM     22  C   UNL     1      -8.526  -3.662 128.586  0.00  0.00    +0.000 C 
ATOM     23  C   UNL     1      -7.288  -3.266 129.396  0.00  0.00    +0.000 C 
ATOM     24  O   UNL     1      -6.800  -3.984 130.263  0.00  0.00    +0.000 OA
ENDBRANCH  21  23
ENDBRANCH   1  21
BRANCH  10  25
ATOM     25  O   UNL     1      -6.915  -1.217 123.869  0.00  0.00    +0.000 OA
BRANCH  25  26
ATOM     26  C   UNL     1      -5.919  -2.149 124.227  0.00  0.00    +0.000 C 
ATOM     27  C   UNL     1      -6.285  -3.540 124.008  0.00  0.00    +0.000 C 
ATOM     28  O   UNL     1      -4.846  -1.867 124.768  0.00  0.00    +0.000 OA
ENDBRANCH  25  26
ENDBRANCH  10  25
TORSDOF 6
ENDMDL
