MODEL 1
REMARK VINA RESULT:      -5.3      0.000      0.000
REMARK  Name = Diaminopropanol tetraacetic acid
REMARK  17 active torsions:
REMARK  status: ('A' for Active; 'I' for Inactive)
REMARK    1  A    between atoms: O_1  and  C_2
REMARK    2  A    between atoms: C_2  and  C_3
REMARK    3  A    between atoms: C_2  and  C_13
REMARK    4  A    between atoms: C_3  and  N_4
REMARK    5  A    between atoms: N_4  and  C_5
REMARK    6  A    between atoms: N_4  and  C_9
REMARK    7  A    between atoms: C_5  and  C_6
REMARK    8  A    between atoms: C_6  and  O_7
REMARK    9  A    between atoms: C_9  and  C_10
REMARK   10  A    between atoms: C_10  and  O_11
REMARK   11  A    between atoms: C_13  and  N_14
REMARK   12  A    between atoms: N_14  and  C_15
REMARK   13  A    between atoms: N_14  and  C_19
REMARK   14  A    between atoms: C_15  and  C_16
REMARK   15  A    between atoms: C_16  and  O_17
REMARK   16  A    between atoms: C_19  and  C_20
REMARK   17  A    between atoms: C_20  and  O_21
REMARK                            x       y       z     vdW  Elec       q    Type
REMARK                         _______ _______ _______ _____ _____    ______ ____
ROOT
ATOM      1  C   UNL     1     -10.886   5.510 130.708  0.00  0.00    +0.000 C 
ENDROOT
BRANCH   1   2
ATOM      2  O   UNL     1     -11.242   5.788 132.060  0.00  0.00    +0.000 OA
ATOM      3  H   UNL     1     -11.652   4.997 132.451  0.00  0.00    +0.000 HD
ENDBRANCH   1   2
BRANCH   1   4
ATOM      4  C   UNL     1     -12.135   5.857 129.900  0.00  0.00    +0.000 C 
BRANCH   4   5
ATOM      5  N   UNL     1     -12.056   7.055 128.995  0.00  0.00    +0.000 NA
BRANCH   5   6
ATOM      6  C   UNL     1     -12.306   8.313 129.763  0.00  0.00    +0.000 C 
BRANCH   6   7
ATOM      7  C   UNL     1     -13.132   9.324 128.942  0.00  0.00    +0.000 C 
ATOM      8  O   UNL     1     -13.734   9.006 127.928  0.00  0.00    +0.000 OA
BRANCH   7   9
ATOM      9  O   UNL     1     -13.026  10.616 129.349  0.00  0.00    +0.000 OA
ATOM     10  H   UNL     1     -13.025  11.225 128.581  0.00  0.00    +0.000 HD
ENDBRANCH   7   9
ENDBRANCH   6   7
ENDBRANCH   5   6
BRANCH   5  11
ATOM     11  C   UNL     1     -10.617   7.038 128.556  0.00  0.00    +0.000 C 
BRANCH  11  12
ATOM     12  C   UNL     1     -10.411   7.160 127.058  0.00  0.00    +0.000 C 
ATOM     13  O   UNL     1      -9.771   6.320 126.418  0.00  0.00    +0.000 OA
BRANCH  12  14
ATOM     14  O   UNL     1     -10.956   8.235 126.455  0.00  0.00    +0.000 OA
ATOM     15  H   UNL     1     -11.638   8.678 126.996  0.00  0.00    +0.000 HD
ENDBRANCH  12  14
ENDBRANCH  11  12
ENDBRANCH   5  11
ENDBRANCH   4   5
ENDBRANCH   1   4
BRANCH   1  16
ATOM     16  C   UNL     1     -10.389   4.030 130.645  0.00  0.00    +0.000 C 
BRANCH  16  17
ATOM     17  N   UNL     1      -8.964   3.759 131.089  0.00  0.00    +0.000 NA
BRANCH  17  18
ATOM     18  C   UNL     1      -8.199   3.219 129.888  0.00  0.00    +0.000 C 
BRANCH  18  19
ATOM     19  C   UNL     1      -7.829   4.235 128.805  0.00  0.00    +0.000 C 
ATOM     20  O   UNL     1      -6.969   5.094 128.968  0.00  0.00    +0.000 OA
BRANCH  19  21
ATOM     21  O   UNL     1      -8.483   4.109 127.631  0.00  0.00    +0.000 OA
ATOM     22  H   UNL     1      -8.414   4.916 127.090  0.00  0.00    +0.000 HD
ENDBRANCH  19  21
ENDBRANCH  18  19
ENDBRANCH  17  18
BRANCH  17  23
ATOM     23  C   UNL     1      -9.082   2.717 132.137  0.00  0.00    +0.000 C 
BRANCH  23  24
ATOM     24  C   UNL     1      -8.870   3.358 133.498  0.00  0.00    +0.000 C 
ATOM     25  O   UNL     1      -7.827   3.289 134.124  0.00  0.00    +0.000 OA
BRANCH  24  26
ATOM     26  O   UNL     1      -9.990   3.907 134.039  0.00  0.00    +0.000 OA
ATOM     27  H   UNL     1     -10.179   4.782 133.623  0.00  0.00    +0.000 HD
ENDBRANCH  24  26
ENDBRANCH  23  24
ENDBRANCH  17  23
ENDBRANCH  16  17
ENDBRANCH   1  16
TORSDOF 17
ENDMDL
MODEL 2
REMARK VINA RESULT:      -5.2      5.880      8.268
REMARK  Name = Diaminopropanol tetraacetic acid
REMARK  17 active torsions:
REMARK  status: ('A' for Active; 'I' for Inactive)
REMARK    1  A    between atoms: O_1  and  C_2
REMARK    2  A    between atoms: C_2  and  C_3
REMARK    3  A    between atoms: C_2  and  C_13
REMARK    4  A    between atoms: C_3  and  N_4
REMARK    5  A    between atoms: N_4  and  C_5
REMARK    6  A    between atoms: N_4  and  C_9
REMARK    7  A    between atoms: C_5  and  C_6
REMARK    8  A    between atoms: C_6  and  O_7
REMARK    9  A    between atoms: C_9  and  C_10
REMARK   10  A    between atoms: C_10  and  O_11
REMARK   11  A    between atoms: C_13  and  N_14
REMARK   12  A    between atoms: N_14  and  C_15
REMARK   13  A    between atoms: N_14  and  C_19
REMARK   14  A    between atoms: C_15  and  C_16
REMARK   15  A    between atoms: C_16  and  O_17
REMARK   16  A    between atoms: C_19  and  C_20
REMARK   17  A    between atoms: C_20  and  O_21
REMARK                            x       y       z     vdW  Elec       q    Type
REMARK                         _______ _______ _______ _____ _____    ______ ____
ROOT
ATOM      1  C   UNL     1      -6.045   0.496 125.624  0.00  0.00    +0.000 C 
ENDROOT
BRANCH   1   2
ATOM      2  O   UNL     1      -4.973  -0.258 126.184  0.00  0.00    +0.000 OA
ATOM      3  H   UNL     1      -4.657  -0.901 125.525  0.00  0.00    +0.000 HD
ENDBRANCH   1   2
BRANCH   1   4
ATOM      4  C   UNL     1      -5.775   1.935 126.061  0.00  0.00    +0.000 C 
BRANCH   4   5
ATOM      5  N   UNL     1      -6.508   3.024 125.327  0.00  0.00    +0.000 NA
BRANCH   5   6
ATOM      6  C   UNL     1      -7.055   4.030 126.288  0.00  0.00    +0.000 C 
BRANCH   6   7
ATOM      7  C   UNL     1      -8.389   4.623 125.789  0.00  0.00    +0.000 C 
ATOM      8  O   UNL     1      -8.865   5.645 126.256  0.00  0.00    +0.000 OA
BRANCH   7   9
ATOM      9  O   UNL     1      -9.060   3.851 124.895  0.00  0.00    +0.000 OA
ATOM     10  H   UNL     1      -9.214   4.338 124.059  0.00  0.00    +0.000 HD
ENDBRANCH   7   9
ENDBRANCH   6   7
ENDBRANCH   5   6
BRANCH   5  11
ATOM     11  C   UNL     1      -5.411   3.671 124.526  0.00  0.00    +0.000 C 
BRANCH  11  12
ATOM     12  C   UNL     1      -5.824   4.124 123.138  0.00  0.00    +0.000 C 
ATOM     13  O   UNL     1      -5.082   4.810 122.429  0.00  0.00    +0.000 OA
BRANCH  12  14
ATOM     14  O   UNL     1      -7.046   3.745 122.713  0.00  0.00    +0.000 OA
ATOM     15  H   UNL     1      -7.140   2.778 122.617  0.00  0.00    +0.000 HD
ENDBRANCH  12  14
ENDBRANCH  11  12
ENDBRANCH   5  11
ENDBRANCH   4   5
ENDBRANCH   1   4
BRANCH   1  16
ATOM     16  C   UNL     1      -7.381  -0.152 126.105  0.00  0.00    +0.000 C 
BRANCH  16  17
ATOM     17  N   UNL     1      -8.318  -0.685 125.036  0.00  0.00    +0.000 NA
BRANCH  17  18
ATOM     18  C   UNL     1      -9.370   0.383 124.768  0.00  0.00    +0.000 C 
BRANCH  18  19
ATOM     19  C   UNL     1      -9.621   0.735 123.300  0.00  0.00    +0.000 C 
ATOM     20  O   UNL     1      -9.212   1.770 122.787  0.00  0.00    +0.000 OA
BRANCH  19  21
ATOM     21  O   UNL     1     -10.296  -0.187 122.581  0.00  0.00    +0.000 OA
ATOM     22  H   UNL     1      -9.693  -0.806 122.130  0.00  0.00    +0.000 HD
ENDBRANCH  19  21
ENDBRANCH  18  19
ENDBRANCH  17  18
BRANCH  17  23
ATOM     23  C   UNL     1      -8.943  -1.886 125.639  0.00  0.00    +0.000 C 
BRANCH  23  24
ATOM     24  C   UNL     1      -8.948  -3.009 124.616  0.00  0.00    +0.000 C 
ATOM     25  O   UNL     1      -8.078  -3.857 124.537  0.00  0.00    +0.000 OA
BRANCH  24  26
ATOM     26  O   UNL     1      -9.940  -2.918 123.690  0.00  0.00    +0.000 OA
ATOM     27  H   UNL     1     -10.435  -2.072 123.800  0.00  0.00    +0.000 HD
ENDBRANCH  24  26
ENDBRANCH  23  24
ENDBRANCH  17  23
ENDBRANCH  16  17
ENDBRANCH   1  16
TORSDOF 17
ENDMDL
MODEL 3
REMARK VINA RESULT:      -5.0      2.051      6.788
REMARK  Name = Diaminopropanol tetraacetic acid
REMARK  17 active torsions:
REMARK  status: ('A' for Active; 'I' for Inactive)
REMARK    1  A    between atoms: O_1  and  C_2
REMARK    2  A    between atoms: C_2  and  C_3
REMARK    3  A    between atoms: C_2  and  C_13
REMARK    4  A    between atoms: C_3  and  N_4
REMARK    5  A    between atoms: N_4  and  C_5
REMARK    6  A    between atoms: N_4  and  C_9
REMARK    7  A    between atoms: C_5  and  C_6
REMARK    8  A    between atoms: C_6  and  O_7
REMARK    9  A    between atoms: C_9  and  C_10
REMARK   10  A    between atoms: C_10  and  O_11
REMARK   11  A    between atoms: C_13  and  N_14
REMARK   12  A    between atoms: N_14  and  C_15
REMARK   13  A    between atoms: N_14  and  C_19
REMARK   14  A    between atoms: C_15  and  C_16
REMARK   15  A    between atoms: C_16  and  O_17
REMARK   16  A    between atoms: C_19  and  C_20
REMARK   17  A    between atoms: C_20  and  O_21
REMARK                            x       y       z     vdW  Elec       q    Type
REMARK                         _______ _______ _______ _____ _____    ______ ____
ROOT
ATOM      1  C   UNL     1      -9.498   6.708 130.897  0.00  0.00    +0.000 C 
ENDROOT
BRANCH   1   2
ATOM      2  O   UNL     1      -8.924   7.638 129.982  0.00  0.00    +0.000 OA
ATOM      3  H   UNL     1      -7.954   7.577 130.031  0.00  0.00    +0.000 HD
ENDBRANCH   1   2
BRANCH   1   4
ATOM      4  C   UNL     1      -8.853   5.370 130.545  0.00  0.00    +0.000 C 
BRANCH   4   5
ATOM      5  N   UNL     1      -7.855   4.810 131.520  0.00  0.00    +0.000 NA
BRANCH   5   6
ATOM      6  C   UNL     1      -8.004   3.327 131.634  0.00  0.00    +0.000 C 
BRANCH   6   7
ATOM      7  C   UNL     1      -9.361   2.941 132.258  0.00  0.00    +0.000 C 
ATOM      8  O   UNL     1     -10.185   2.264 131.663  0.00  0.00    +0.000 OA
BRANCH   7   9
ATOM      9  O   UNL     1      -9.628   3.524 133.455  0.00  0.00    +0.000 OA
ATOM     10  H   UNL     1      -9.998   2.872 134.087  0.00  0.00    +0.000 HD
ENDBRANCH   7   9
ENDBRANCH   6   7
ENDBRANCH   5   6
BRANCH   5  11
ATOM     11  C   UNL     1      -6.542   5.111 130.851  0.00  0.00    +0.000 C 
BRANCH  11  12
ATOM     12  C   UNL     1      -5.911   6.430 131.258  0.00  0.00    +0.000 C 
ATOM     13  O   UNL     1      -5.979   7.433 130.541  0.00  0.00    +0.000 OA
BRANCH  12  14
ATOM     14  O   UNL     1      -5.267   6.457 132.442  0.00  0.00    +0.000 OA
ATOM     15  H   UNL     1      -5.011   5.570 132.763  0.00  0.00    +0.000 HD
ENDBRANCH  12  14
ENDBRANCH  11  12
ENDBRANCH   5  11
ENDBRANCH   4   5
ENDBRANCH   1   4
BRANCH   1  16
ATOM     16  C   UNL     1     -11.051   6.806 130.758  0.00  0.00    +0.000 C 
BRANCH  16  17
ATOM     17  N   UNL     1     -11.595   7.774 129.724  0.00  0.00    +0.000 NA
BRANCH  17  18
ATOM     18  C   UNL     1     -12.858   8.402 130.297  0.00  0.00    +0.000 C 
BRANCH  18  19
ATOM     19  C   UNL     1     -13.130   9.857 129.907  0.00  0.00    +0.000 C 
ATOM     20  O   UNL     1     -13.271  10.750 130.734  0.00  0.00    +0.000 OA
BRANCH  19  21
ATOM     21  O   UNL     1     -13.170  10.113 128.582  0.00  0.00    +0.000 OA
ATOM     22  H   UNL     1     -12.715   9.424 128.066  0.00  0.00    +0.000 HD
ENDBRANCH  19  21
ENDBRANCH  18  19
ENDBRANCH  17  18
BRANCH  17  23
ATOM     23  C   UNL     1     -11.923   6.933 128.549  0.00  0.00    +0.000 C 
BRANCH  23  24
ATOM     24  C   UNL     1     -11.194   7.477 127.332  0.00  0.00    +0.000 C 
ATOM     25  O   UNL     1     -10.992   6.831 126.319  0.00  0.00    +0.000 OA
BRANCH  24  26
ATOM     26  O   UNL     1     -10.654   8.713 127.507  0.00  0.00    +0.000 OA
ATOM     27  H   UNL     1      -9.688   8.642 127.690  0.00  0.00    +0.000 HD
ENDBRANCH  24  26
ENDBRANCH  23  24
ENDBRANCH  17  23
ENDBRANCH  16  17
ENDBRANCH   1  16
TORSDOF 17
ENDMDL
MODEL 4
REMARK VINA RESULT:      -5.0      6.226      8.143
REMARK  Name = Diaminopropanol tetraacetic acid
REMARK  17 active torsions:
REMARK  status: ('A' for Active; 'I' for Inactive)
REMARK    1  A    between atoms: O_1  and  C_2
REMARK    2  A    between atoms: C_2  and  C_3
REMARK    3  A    between atoms: C_2  and  C_13
REMARK    4  A    between atoms: C_3  and  N_4
REMARK    5  A    between atoms: N_4  and  C_5
REMARK    6  A    between atoms: N_4  and  C_9
REMARK    7  A    between atoms: C_5  and  C_6
REMARK    8  A    between atoms: C_6  and  O_7
REMARK    9  A    between atoms: C_9  and  C_10
REMARK   10  A    between atoms: C_10  and  O_11
REMARK   11  A    between atoms: C_13  and  N_14
REMARK   12  A    between atoms: N_14  and  C_15
REMARK   13  A    between atoms: N_14  and  C_19
REMARK   14  A    between atoms: C_15  and  C_16
REMARK   15  A    between atoms: C_16  and  O_17
REMARK   16  A    between atoms: C_19  and  C_20
REMARK   17  A    between atoms: C_20  and  O_21
REMARK                            x       y       z     vdW  Elec       q    Type
REMARK                         _______ _______ _______ _____ _____    ______ ____
ROOT
ATOM      1  C   UNL     1      -9.201   0.269 125.459  0.00  0.00    +0.000 C 
ENDROOT
BRANCH   1   2
ATOM      2  O   UNL     1      -9.910   0.132 124.230  0.00  0.00    +0.000 OA
ATOM      3  H   UNL     1      -9.667  -0.712 123.813  0.00  0.00    +0.000 HD
ENDBRANCH   1   2
BRANCH   1   4
ATOM      4  C   UNL     1      -7.992   1.136 125.115  0.00  0.00    +0.000 C 
BRANCH   4   5
ATOM      5  N   UNL     1      -8.250   2.587 124.817  0.00  0.00    +0.000 NA
BRANCH   5   6
ATOM      6  C   UNL     1      -7.480   3.461 125.754  0.00  0.00    +0.000 C 
BRANCH   6   7
ATOM      7  C   UNL     1      -7.894   4.941 125.615  0.00  0.00    +0.000 C 
ATOM      8  O   UNL     1      -9.028   5.328 125.849  0.00  0.00    +0.000 OA
BRANCH   7   9
ATOM      9  O   UNL     1      -6.945   5.754 125.081  0.00  0.00    +0.000 OA
ATOM     10  H   UNL     1      -6.452   5.295 124.369  0.00  0.00    +0.000 HD
ENDBRANCH   7   9
ENDBRANCH   6   7
ENDBRANCH   5   6
BRANCH   5  11
ATOM     11  C   UNL     1      -7.678   2.742 123.435  0.00  0.00    +0.000 C 
BRANCH  11  12
ATOM     12  C   UNL     1      -8.712   2.848 122.329  0.00  0.00    +0.000 C 
ATOM     13  O   UNL     1      -9.570   1.977 122.155  0.00  0.00    +0.000 OA
BRANCH  12  14
ATOM     14  O   UNL     1      -8.649   3.939 121.540  0.00  0.00    +0.000 OA
ATOM     15  H   UNL     1      -9.467   4.093 121.028  0.00  0.00    +0.000 HD
ENDBRANCH  12  14
ENDBRANCH  11  12
ENDBRANCH   5  11
ENDBRANCH   4   5
ENDBRANCH   1   4
BRANCH   1  16
ATOM     16  C   UNL     1      -8.913  -1.168 126.000  0.00  0.00    +0.000 C 
BRANCH  16  17
ATOM     17  N   UNL     1      -7.703  -1.891 125.436  0.00  0.00    +0.000 NA
BRANCH  17  18
ATOM     18  C   UNL     1      -8.202  -3.140 124.723  0.00  0.00    +0.000 C 
BRANCH  18  19
ATOM     19  C   UNL     1      -9.035  -2.915 123.459  0.00  0.00    +0.000 C 
ATOM     20  O   UNL     1      -8.662  -2.198 122.538  0.00  0.00    +0.000 OA
BRANCH  19  21
ATOM     21  O   UNL     1     -10.204  -3.588 123.397  0.00  0.00    +0.000 OA
ATOM     22  H   UNL     1     -10.226  -4.334 124.023  0.00  0.00    +0.000 HD
ENDBRANCH  19  21
ENDBRANCH  18  19
ENDBRANCH  17  18
BRANCH  17  23
ATOM     23  C   UNL     1      -6.892  -2.261 126.620  0.00  0.00    +0.000 C 
BRANCH  23  24
ATOM     24  C   UNL     1      -5.642  -1.399 126.653  0.00  0.00    +0.000 C 
ATOM     25  O   UNL     1      -5.237  -0.756 125.701  0.00  0.00    +0.000 OA
BRANCH  24  26
ATOM     26  O   UNL     1      -4.917  -1.506 127.799  0.00  0.00    +0.000 OA
ATOM     27  H   UNL     1      -5.488  -1.826 128.536  0.00  0.00    +0.000 HD
ENDBRANCH  24  26
ENDBRANCH  23  24
ENDBRANCH  17  23
ENDBRANCH  16  17
ENDBRANCH   1  16
TORSDOF 17
ENDMDL
MODEL 5
REMARK VINA RESULT:      -5.0      6.211      8.166
REMARK  Name = Diaminopropanol tetraacetic acid
REMARK  17 active torsions:
REMARK  status: ('A' for Active; 'I' for Inactive)
REMARK    1  A    between atoms: O_1  and  C_2
REMARK    2  A    between atoms: C_2  and  C_3
REMARK    3  A    between atoms: C_2  and  C_13
REMARK    4  A    between atoms: C_3  and  N_4
REMARK    5  A    between atoms: N_4  and  C_5
REMARK    6  A    between atoms: N_4  and  C_9
REMARK    7  A    between atoms: C_5  and  C_6
REMARK    8  A    between atoms: C_6  and  O_7
REMARK    9  A    between atoms: C_9  and  C_10
REMARK   10  A    between atoms: C_10  and  O_11
REMARK   11  A    between atoms: C_13  and  N_14
REMARK   12  A    between atoms: N_14  and  C_15
REMARK   13  A    between atoms: N_14  and  C_19
REMARK   14  A    between atoms: C_15  and  C_16
REMARK   15  A    between atoms: C_16  and  O_17
REMARK   16  A    between atoms: C_19  and  C_20
REMARK   17  A    between atoms: C_20  and  O_21
REMARK                            x       y       z     vdW  Elec       q    Type
REMARK                         _______ _______ _______ _____ _____    ______ ____
ROOT
ATOM      1  C   UNL     1      -9.521   1.268 124.014  0.00  0.00    +0.000 C 
ENDROOT
BRANCH   1   2
ATOM      2  O   UNL     1     -10.940   1.340 124.121  0.00  0.00    +0.000 OA
ATOM      3  H   UNL     1     -11.214   0.990 124.987  0.00  0.00    +0.000 HD
ENDBRANCH   1   2
BRANCH   1   4
ATOM      4  C   UNL     1      -9.145   2.413 123.076  0.00  0.00    +0.000 C 
BRANCH   4   5
ATOM      5  N   UNL     1      -8.151   3.420 123.585  0.00  0.00    +0.000 NA
BRANCH   5   6
ATOM      6  C   UNL     1      -8.238   3.540 125.073  0.00  0.00    +0.000 C 
BRANCH   6   7
ATOM      7  C   UNL     1      -8.102   5.006 125.532  0.00  0.00    +0.000 C 
ATOM      8  O   UNL     1      -8.976   5.577 126.165  0.00  0.00    +0.000 OA
BRANCH   7   9
ATOM      9  O   UNL     1      -7.005   5.655 125.061  0.00  0.00    +0.000 OA
ATOM     10  H   UNL     1      -7.178   6.038 124.175  0.00  0.00    +0.000 HD
ENDBRANCH   7   9
ENDBRANCH   6   7
ENDBRANCH   5   6
BRANCH   5  11
ATOM     11  C   UNL     1      -6.834   2.787 123.230  0.00  0.00    +0.000 C 
BRANCH  11  12
ATOM     12  C   UNL     1      -5.987   3.589 122.260  0.00  0.00    +0.000 C 
ATOM     13  O   UNL     1      -5.700   3.162 121.137  0.00  0.00    +0.000 OA
BRANCH  12  14
ATOM     14  O   UNL     1      -5.555   4.794 122.683  0.00  0.00    +0.000 OA
ATOM     15  H   UNL     1      -5.433   5.438 121.958  0.00  0.00    +0.000 HD
ENDBRANCH  12  14
ENDBRANCH  11  12
ENDBRANCH   5  11
ENDBRANCH   4   5
ENDBRANCH   1   4
BRANCH   1  16
ATOM     16  C   UNL     1      -9.154  -0.178 123.552  0.00  0.00    +0.000 C 
BRANCH  16  17
ATOM     17  N   UNL     1      -7.884  -0.786 124.118  0.00  0.00    +0.000 NA
BRANCH  17  18
ATOM     18  C   UNL     1      -8.042  -2.300 124.088  0.00  0.00    +0.000 C 
BRANCH  18  19
ATOM     19  C   UNL     1      -9.425  -2.846 124.450  0.00  0.00    +0.000 C 
ATOM     20  O   UNL     1      -9.904  -2.748 125.574  0.00  0.00    +0.000 OA
BRANCH  19  21
ATOM     21  O   UNL     1     -10.116  -3.417 123.440  0.00  0.00    +0.000 OA
ATOM     22  H   UNL     1      -9.899  -4.361 123.342  0.00  0.00    +0.000 HD
ENDBRANCH  19  21
ENDBRANCH  18  19
ENDBRANCH  17  18
BRANCH  17  23
ATOM     23  C   UNL     1      -7.818  -0.301 125.517  0.00  0.00    +0.000 C 
BRANCH  23  24
ATOM     24  C   UNL     1      -6.389   0.102 125.835  0.00  0.00    +0.000 C 
ATOM     25  O   UNL     1      -5.410  -0.509 125.446  0.00  0.00    +0.000 OA
BRANCH  24  26
ATOM     26  O   UNL     1      -6.280   1.133 126.715  0.00  0.00    +0.000 OA
ATOM     27  H   UNL     1      -7.133   1.626 126.773  0.00  0.00    +0.000 HD
ENDBRANCH  24  26
ENDBRANCH  23  24
ENDBRANCH  17  23
ENDBRANCH  16  17
ENDBRANCH   1  16
TORSDOF 17
ENDMDL
MODEL 6
REMARK VINA RESULT:      -5.0      1.725      3.846
REMARK  Name = Diaminopropanol tetraacetic acid
REMARK  17 active torsions:
REMARK  status: ('A' for Active; 'I' for Inactive)
REMARK    1  A    between atoms: O_1  and  C_2
REMARK    2  A    between atoms: C_2  and  C_3
REMARK    3  A    between atoms: C_2  and  C_13
REMARK    4  A    between atoms: C_3  and  N_4
REMARK    5  A    between atoms: N_4  and  C_5
REMARK    6  A    between atoms: N_4  and  C_9
REMARK    7  A    between atoms: C_5  and  C_6
REMARK    8  A    between atoms: C_6  and  O_7
REMARK    9  A    between atoms: C_9  and  C_10
REMARK   10  A    between atoms: C_10  and  O_11
REMARK   11  A    between atoms: C_13  and  N_14
REMARK   12  A    between atoms: N_14  and  C_15
REMARK   13  A    between atoms: N_14  and  C_19
REMARK   14  A    between atoms: C_15  and  C_16
REMARK   15  A    between atoms: C_16  and  O_17
REMARK   16  A    between atoms: C_19  and  C_20
REMARK   17  A    between atoms: C_20  and  O_21
REMARK                            x       y       z     vdW  Elec       q    Type
REMARK                         _______ _______ _______ _____ _____    ______ ____
ROOT
ATOM      1  C   UNL     1      -9.204   5.550 129.617  0.00  0.00    +0.000 C 
ENDROOT
BRANCH   1   2
ATOM      2  O   UNL     1      -8.846   5.359 128.250  0.00  0.00    +0.000 OA
ATOM      3  H   UNL     1      -9.654   5.331 127.709  0.00  0.00    +0.000 HD
ENDBRANCH   1   2
BRANCH   1   4
ATOM      4  C   UNL     1      -9.295   7.065 129.785  0.00  0.00    +0.000 C 
BRANCH   4   5
ATOM      5  N   UNL     1     -10.668   7.677 129.771  0.00  0.00    +0.000 NA
BRANCH   5   6
ATOM      6  C   UNL     1     -11.038   8.109 128.388  0.00  0.00    +0.000 C 
BRANCH   6   7
ATOM      7  C   UNL     1     -12.498   8.603 128.321  0.00  0.00    +0.000 C 
ATOM      8  O   UNL     1     -12.904   9.537 128.996  0.00  0.00    +0.000 OA
BRANCH   7   9
ATOM      9  O   UNL     1     -13.328   7.838 127.566  0.00  0.00    +0.000 OA
ATOM     10  H   UNL     1     -14.207   7.751 127.991  0.00  0.00    +0.000 HD
ENDBRANCH   7   9
ENDBRANCH   6   7
ENDBRANCH   5   6
BRANCH   5  11
ATOM     11  C   UNL     1     -11.544   6.518 130.163  0.00  0.00    +0.000 C 
BRANCH  11  12
ATOM     12  C   UNL     1     -12.117   6.604 131.565  0.00  0.00    +0.000 C 
ATOM     13  O   UNL     1     -13.184   7.181 131.799  0.00  0.00    +0.000 OA
BRANCH  12  14
ATOM     14  O   UNL     1     -11.403   6.023 132.551  0.00  0.00    +0.000 OA
ATOM     15  H   UNL     1     -11.167   5.094 132.361  0.00  0.00    +0.000 HD
ENDBRANCH  12  14
ENDBRANCH  11  12
ENDBRANCH   5  11
ENDBRANCH   4   5
ENDBRANCH   1   4
BRANCH   1  16
ATOM     16  C   UNL     1      -8.148   4.801 130.491  0.00  0.00    +0.000 C 
BRANCH  16  17
ATOM     17  N   UNL     1      -8.673   3.830 131.532  0.00  0.00    +0.000 NA
BRANCH  17  18
ATOM     18  C   UNL     1      -7.837   4.006 132.792  0.00  0.00    +0.000 C 
BRANCH  18  19
ATOM     19  C   UNL     1      -8.610   4.234 134.094  0.00  0.00    +0.000 C 
ATOM     20  O   UNL     1      -8.077   4.645 135.118  0.00  0.00    +0.000 OA
BRANCH  19  21
ATOM     21  O   UNL     1      -9.937   3.990 134.041  0.00  0.00    +0.000 OA
ATOM     22  H   UNL     1     -10.127   3.039 133.957  0.00  0.00    +0.000 HD
ENDBRANCH  19  21
ENDBRANCH  18  19
ENDBRANCH  17  18
BRANCH  17  23
ATOM     23  C   UNL     1      -8.451   2.486 130.948  0.00  0.00    +0.000 C 
BRANCH  23  24
ATOM     24  C   UNL     1      -9.376   1.491 131.627  0.00  0.00    +0.000 C 
ATOM     25  O   UNL     1      -9.123   0.307 131.752  0.00  0.00    +0.000 OA
BRANCH  24  26
ATOM     26  O   UNL     1     -10.590   2.000 131.972  0.00  0.00    +0.000 OA
ATOM     27  H   UNL     1     -11.168   2.074 131.177  0.00  0.00    +0.000 HD
ENDBRANCH  24  26
ENDBRANCH  23  24
ENDBRANCH  17  23
ENDBRANCH  16  17
ENDBRANCH   1  16
TORSDOF 17
ENDMDL
MODEL 7
REMARK VINA RESULT:      -5.0      6.322      8.581
REMARK  Name = Diaminopropanol tetraacetic acid
REMARK  17 active torsions:
REMARK  status: ('A' for Active; 'I' for Inactive)
REMARK    1  A    between atoms: O_1  and  C_2
REMARK    2  A    between atoms: C_2  and  C_3
REMARK    3  A    between atoms: C_2  and  C_13
REMARK    4  A    between atoms: C_3  and  N_4
REMARK    5  A    between atoms: N_4  and  C_5
REMARK    6  A    between atoms: N_4  and  C_9
REMARK    7  A    between atoms: C_5  and  C_6
REMARK    8  A    between atoms: C_6  and  O_7
REMARK    9  A    between atoms: C_9  and  C_10
REMARK   10  A    between atoms: C_10  and  O_11
REMARK   11  A    between atoms: C_13  and  N_14
REMARK   12  A    between atoms: N_14  and  C_15
REMARK   13  A    between atoms: N_14  and  C_19
REMARK   14  A    between atoms: C_15  and  C_16
REMARK   15  A    between atoms: C_16  and  O_17
REMARK   16  A    between atoms: C_19  and  C_20
REMARK   17  A    between atoms: C_20  and  O_21
REMARK                            x       y       z     vdW  Elec       q    Type
REMARK                         _______ _______ _______ _____ _____    ______ ____
ROOT
ATOM      1  C   UNL     1      -8.932   1.031 125.527  0.00  0.00    +0.000 C 
ENDROOT
BRANCH   1   2
ATOM      2  O   UNL     1     -10.163   0.312 125.538  0.00  0.00    +0.000 OA
ATOM      3  H   UNL     1     -10.538   0.336 126.436  0.00  0.00    +0.000 HD
ENDBRANCH   1   2
BRANCH   1   4
ATOM      4  C   UNL     1      -8.890   1.703 124.156  0.00  0.00    +0.000 C 
BRANCH   4   5
ATOM      5  N   UNL     1      -8.163   3.016 124.057  0.00  0.00    +0.000 NA
BRANCH   5   6
ATOM      6  C   UNL     1      -7.718   3.474 125.409  0.00  0.00    +0.000 C 
BRANCH   6   7
ATOM      7  C   UNL     1      -7.892   4.998 125.576  0.00  0.00    +0.000 C 
ATOM      8  O   UNL     1      -8.917   5.494 126.016  0.00  0.00    +0.000 OA
BRANCH   7   9
ATOM      9  O   UNL     1      -6.880   5.750 125.069  0.00  0.00    +0.000 OA
ATOM     10  H   UNL     1      -6.313   6.103 125.787  0.00  0.00    +0.000 HD
ENDBRANCH   7   9
ENDBRANCH   6   7
ENDBRANCH   5   6
BRANCH   5  11
ATOM     11  C   UNL     1      -6.948   2.656 123.247  0.00  0.00    +0.000 C 
BRANCH  11  12
ATOM     12  C   UNL     1      -6.427   3.769 122.358  0.00  0.00    +0.000 C 
ATOM     13  O   UNL     1      -5.485   4.490 122.702  0.00  0.00    +0.000 OA
BRANCH  12  14
ATOM     14  O   UNL     1      -7.045   3.941 121.172  0.00  0.00    +0.000 OA
ATOM     15  H   UNL     1      -7.651   3.210 120.943  0.00  0.00    +0.000 HD
ENDBRANCH  12  14
ENDBRANCH  11  12
ENDBRANCH   5  11
ENDBRANCH   4   5
ENDBRANCH   1   4
BRANCH   1  16
ATOM     16  C   UNL     1      -7.790   0.018 125.855  0.00  0.00    +0.000 C 
BRANCH  16  17
ATOM     17  N   UNL     1      -7.768  -1.281 125.071  0.00  0.00    +0.000 NA
BRANCH  17  18
ATOM     18  C   UNL     1      -7.719  -2.426 126.073  0.00  0.00    +0.000 C 
BRANCH  18  19
ATOM     19  C   UNL     1      -9.053  -3.105 126.395  0.00  0.00    +0.000 C 
ATOM     20  O   UNL     1      -9.201  -3.852 127.356  0.00  0.00    +0.000 OA
BRANCH  19  21
ATOM     21  O   UNL     1     -10.081  -2.802 125.575  0.00  0.00    +0.000 OA
ATOM     22  H   UNL     1     -10.430  -3.592 125.125  0.00  0.00    +0.000 HD
ENDBRANCH  19  21
ENDBRANCH  18  19
ENDBRANCH  17  18
BRANCH  17  23
ATOM     23  C   UNL     1      -6.515  -1.231 124.281  0.00  0.00    +0.000 C 
BRANCH  23  24
ATOM     24  C   UNL     1      -6.782  -1.784 122.892  0.00  0.00    +0.000 C 
ATOM     25  O   UNL     1      -5.905  -2.060 122.093  0.00  0.00    +0.000 OA
BRANCH  24  26
ATOM     26  O   UNL     1      -8.097  -1.821 122.547  0.00  0.00    +0.000 OA
ATOM     27  H   UNL     1      -8.664  -1.784 123.353  0.00  0.00    +0.000 HD
ENDBRANCH  24  26
ENDBRANCH  23  24
ENDBRANCH  17  23
ENDBRANCH  16  17
ENDBRANCH   1  16
TORSDOF 17
ENDMDL
MODEL 8
REMARK VINA RESULT:      -4.9      1.964      6.675
REMARK  Name = Diaminopropanol tetraacetic acid
REMARK  17 active torsions:
REMARK  status: ('A' for Active; 'I' for Inactive)
REMARK    1  A    between atoms: O_1  and  C_2
REMARK    2  A    between atoms: C_2  and  C_3
REMARK    3  A    between atoms: C_2  and  C_13
REMARK    4  A    between atoms: C_3  and  N_4
REMARK    5  A    between atoms: N_4  and  C_5
REMARK    6  A    between atoms: N_4  and  C_9
REMARK    7  A    between atoms: C_5  and  C_6
REMARK    8  A    between atoms: C_6  and  O_7
REMARK    9  A    between atoms: C_9  and  C_10
REMARK   10  A    between atoms: C_10  and  O_11
REMARK   11  A    between atoms: C_13  and  N_14
REMARK   12  A    between atoms: N_14  and  C_15
REMARK   13  A    between atoms: N_14  and  C_19
REMARK   14  A    between atoms: C_15  and  C_16
REMARK   15  A    between atoms: C_16  and  O_17
REMARK   16  A    between atoms: C_19  and  C_20
REMARK   17  A    between atoms: C_20  and  O_21
REMARK                            x       y       z     vdW  Elec       q    Type
REMARK                         _______ _______ _______ _____ _____    ______ ____
ROOT
ATOM      1  C   UNL     1      -9.053   4.725 129.324  0.00  0.00    +0.000 C 
ENDROOT
BRANCH   1   2
ATOM      2  O   UNL     1     -10.141   4.023 129.919  0.00  0.00    +0.000 OA
ATOM      3  H   UNL     1     -10.700   4.653 130.406  0.00  0.00    +0.000 HD
ENDBRANCH   1   2
BRANCH   1   4
ATOM      4  C   UNL     1      -7.830   4.305 130.138  0.00  0.00    +0.000 C 
BRANCH   4   5
ATOM      5  N   UNL     1      -8.083   3.622 131.454  0.00  0.00    +0.000 NA
BRANCH   5   6
ATOM      6  C   UNL     1      -7.084   2.534 131.683  0.00  0.00    +0.000 C 
BRANCH   6   7
ATOM      7  C   UNL     1      -7.487   1.635 132.870  0.00  0.00    +0.000 C 
ATOM      8  O   UNL     1      -7.011   1.773 133.986  0.00  0.00    +0.000 OA
BRANCH   7   9
ATOM      9  O   UNL     1      -8.301   0.595 132.551  0.00  0.00    +0.000 OA
ATOM     10  H   UNL     1      -8.991   0.468 133.236  0.00  0.00    +0.000 HD
ENDBRANCH   7   9
ENDBRANCH   6   7
ENDBRANCH   5   6
BRANCH   5  11
ATOM     11  C   UNL     1      -7.830   4.723 132.446  0.00  0.00    +0.000 C 
BRANCH  11  12
ATOM     12  C   UNL     1      -9.068   5.218 133.172  0.00  0.00    +0.000 C 
ATOM     13  O   UNL     1      -9.345   6.419 133.245  0.00  0.00    +0.000 OA
BRANCH  12  14
ATOM     14  O   UNL     1      -9.853   4.281 133.742  0.00  0.00    +0.000 OA
ATOM     15  H   UNL     1      -9.351   3.597 134.224  0.00  0.00    +0.000 HD
ENDBRANCH  12  14
ENDBRANCH  11  12
ENDBRANCH   5  11
ENDBRANCH   4   5
ENDBRANCH   1   4
BRANCH   1  16
ATOM     16  C   UNL     1      -9.415   6.244 129.321  0.00  0.00    +0.000 C 
BRANCH  16  17
ATOM     17  N   UNL     1     -10.883   6.606 129.192  0.00  0.00    +0.000 NA
BRANCH  17  18
ATOM     18  C   UNL     1     -11.053   7.400 127.905  0.00  0.00    +0.000 C 
BRANCH  18  19
ATOM     19  C   UNL     1     -12.404   7.268 127.197  0.00  0.00    +0.000 C 
ATOM     20  O   UNL     1     -13.433   7.771 127.633  0.00  0.00    +0.000 OA
BRANCH  19  21
ATOM     21  O   UNL     1     -12.393   6.589 126.030  0.00  0.00    +0.000 OA
ATOM     22  H   UNL     1     -12.896   5.757 126.090  0.00  0.00    +0.000 HD
ENDBRANCH  19  21
ENDBRANCH  18  19
ENDBRANCH  17  18
BRANCH  17  23
ATOM     23  C   UNL     1     -11.171   7.460 130.368  0.00  0.00    +0.000 C 
BRANCH  23  24
ATOM     24  C   UNL     1     -12.269   6.812 131.195  0.00  0.00    +0.000 C 
ATOM     25  O   UNL     1     -13.376   7.296 131.349  0.00  0.00    +0.000 OA
BRANCH  24  26
ATOM     26  O   UNL     1     -11.877   5.701 131.874  0.00  0.00    +0.000 OA
ATOM     27  H   UNL     1     -10.908   5.556 131.764  0.00  0.00    +0.000 HD
ENDBRANCH  24  26
ENDBRANCH  23  24
ENDBRANCH  17  23
ENDBRANCH  16  17
ENDBRANCH   1  16
TORSDOF 17
ENDMDL
MODEL 9
REMARK VINA RESULT:      -4.9      5.865      8.374
REMARK  Name = Diaminopropanol tetraacetic acid
REMARK  17 active torsions:
REMARK  status: ('A' for Active; 'I' for Inactive)
REMARK    1  A    between atoms: O_1  and  C_2
REMARK    2  A    between atoms: C_2  and  C_3
REMARK    3  A    between atoms: C_2  and  C_13
REMARK    4  A    between atoms: C_3  and  N_4
REMARK    5  A    between atoms: N_4  and  C_5
REMARK    6  A    between atoms: N_4  and  C_9
REMARK    7  A    between atoms: C_5  and  C_6
REMARK    8  A    between atoms: C_6  and  O_7
REMARK    9  A    between atoms: C_9  and  C_10
REMARK   10  A    between atoms: C_10  and  O_11
REMARK   11  A    between atoms: C_13  and  N_14
REMARK   12  A    between atoms: N_14  and  C_15
REMARK   13  A    between atoms: N_14  and  C_19
REMARK   14  A    between atoms: C_15  and  C_16
REMARK   15  A    between atoms: C_16  and  O_17
REMARK   16  A    between atoms: C_19  and  C_20
REMARK   17  A    between atoms: C_20  and  O_21
REMARK                            x       y       z     vdW  Elec       q    Type
REMARK                         _______ _______ _______ _____ _____    ______ ____
ROOT
ATOM      1  C   UNL     1      -5.932   0.862 125.699  0.00  0.00    +0.000 C 
ENDROOT
BRANCH   1   2
ATOM      2  O   UNL     1      -4.951   0.132 126.432  0.00  0.00    +0.000 OA
ATOM      3  H   UNL     1      -5.369  -0.649 126.835  0.00  0.00    +0.000 HD
ENDBRANCH   1   2
BRANCH   1   4
ATOM      4  C   UNL     1      -5.506   2.322 125.832  0.00  0.00    +0.000 C 
BRANCH   4   5
ATOM      5  N   UNL     1      -6.325   3.346 125.095  0.00  0.00    +0.000 NA
BRANCH   5   6
ATOM      6  C   UNL     1      -6.898   4.346 126.046  0.00  0.00    +0.000 C 
BRANCH   6   7
ATOM      7  C   UNL     1      -8.367   4.674 125.707  0.00  0.00    +0.000 C 
ATOM      8  O   UNL     1      -8.922   5.684 126.109  0.00  0.00    +0.000 OA
BRANCH   7   9
ATOM      9  O   UNL     1      -9.036   3.691 125.049  0.00  0.00    +0.000 OA
ATOM     10  H   UNL     1      -9.386   4.018 124.194  0.00  0.00    +0.000 HD
ENDBRANCH   7   9
ENDBRANCH   6   7
ENDBRANCH   5   6
BRANCH   5  11
ATOM     11  C   UNL     1      -5.295   4.031 124.239  0.00  0.00    +0.000 C 
BRANCH  11  12
ATOM     12  C   UNL     1      -5.673   4.162 122.775  0.00  0.00    +0.000 C 
ATOM     13  O   UNL     1      -6.634   3.553 122.294  0.00  0.00    +0.000 OA
BRANCH  12  14
ATOM     14  O   UNL     1      -4.907   4.973 122.019  0.00  0.00    +0.000 OA
ATOM     15  H   UNL     1      -4.913   4.738 121.071  0.00  0.00    +0.000 HD
ENDBRANCH  12  14
ENDBRANCH  11  12
ENDBRANCH   5  11
ENDBRANCH   4   5
ENDBRANCH   1   4
BRANCH   1  16
ATOM     16  C   UNL     1      -7.333   0.477 126.272  0.00  0.00    +0.000 C 
BRANCH  16  17
ATOM     17  N   UNL     1      -8.250  -0.334 125.374  0.00  0.00    +0.000 NA
BRANCH  17  18
ATOM     18  C   UNL     1      -7.877  -1.801 125.535  0.00  0.00    +0.000 C 
BRANCH  18  19
ATOM     19  C   UNL     1      -9.038  -2.780 125.728  0.00  0.00    +0.000 C 
ATOM     20  O   UNL     1      -9.212  -3.408 126.766  0.00  0.00    +0.000 OA
BRANCH  19  21
ATOM     21  O   UNL     1      -9.896  -2.887 124.690  0.00  0.00    +0.000 OA
ATOM     22  H   UNL     1     -10.728  -3.320 124.952  0.00  0.00    +0.000 HD
ENDBRANCH  19  21
ENDBRANCH  18  19
ENDBRANCH  17  18
BRANCH  17  23
ATOM     23  C   UNL     1      -7.945   0.128 123.999  0.00  0.00    +0.000 C 
BRANCH  23  24
ATOM     24  C   UNL     1      -9.243   0.499 123.302  0.00  0.00    +0.000 C 
ATOM     25  O   UNL     1      -9.651   1.641 123.192  0.00  0.00    +0.000 OA
BRANCH  24  26
ATOM     26  O   UNL     1      -9.999  -0.566 122.922  0.00  0.00    +0.000 OA
ATOM     27  H   UNL     1      -9.620  -0.985 122.114  0.00  0.00    +0.000 HD
ENDBRANCH  24  26
ENDBRANCH  23  24
ENDBRANCH  17  23
ENDBRANCH  16  17
ENDBRANCH   1  16
TORSDOF 17
ENDMDL
