MODEL 1
REMARK VINA RESULT:      -7.9      0.000      0.000
REMARK  Name = Diamorphine
REMARK  7 active torsions:
REMARK  status: ('A' for Active; 'I' for Inactive)
REMARK    1  A    between atoms: C_5  and  O_6
REMARK    2  A    between atoms: O_6  and  C_7
REMARK    3  A    between atoms: C_7  and  C_8
REMARK    4  A    between atoms: C_13  and  O_14
REMARK    5  A    between atoms: O_14  and  C_15
REMARK    6  A    between atoms: C_15  and  C_16
REMARK    7  A    between atoms: N_25  and  C_26
REMARK                            x       y       z     vdW  Elec       q    Type
REMARK                         _______ _______ _______ _____ _____    ______ ____
ROOT
ATOM      1  C   UNL     1      -9.569   6.104 132.580  0.00  0.00    +0.000 C 
ATOM      2  C   UNL     1     -11.001   5.784 132.173  0.00  0.00    +0.000 C 
ATOM      3  C   UNL     1     -11.483   6.085 130.952  0.00  0.00    +0.000 C 
ATOM      4  C   UNL     1     -10.685   6.856 129.929  0.00  0.00    +0.000 C 
ATOM      5  C   UNL     1      -9.169   6.650 130.110  0.00  0.00    +0.000 C 
ATOM      6  O   UNL     1      -8.726   5.795 129.048  0.00  0.00    +0.000 OA
ATOM      7  C   UNL     1      -8.620   4.528 129.542  0.00  0.00    +0.000 A 
ATOM      8  C   UNL     1      -8.534   3.330 128.860  0.00  0.00    +0.000 A 
ATOM      9  C   UNL     1      -8.538   2.152 129.621  0.00  0.00    +0.000 A 
ATOM     10  C   UNL     1      -8.638   2.210 131.035  0.00  0.00    +0.000 A 
ATOM     11  C   UNL     1      -8.681   3.445 131.695  0.00  0.00    +0.000 A 
ATOM     12  C   UNL     1      -8.615   4.575 130.911  0.00  0.00    +0.000 A 
ATOM     13  C   UNL     1      -8.652   6.000 131.374  0.00  0.00    +0.000 C 
ATOM     14  C   UNL     1      -7.221   6.489 131.674  0.00  0.00    +0.000 C 
ATOM     15  C   UNL     1      -6.630   5.735 132.853  0.00  0.00    +0.000 C 
ATOM     16  N   UNL     1      -7.580   5.723 133.971  0.00  0.00    +0.000 NA
ATOM     17  C   UNL     1      -6.985   5.080 135.133  0.00  0.00    +0.000 C 
ATOM     18  C   UNL     1      -8.922   5.154 133.636  0.00  0.00    +0.000 C 
ATOM     19  C   UNL     1      -8.923   3.643 133.168  0.00  0.00    +0.000 C 
ENDROOT
BRANCH   4  20
ATOM     20  O   UNL     1     -11.142   6.473 128.600  0.00  0.00    +0.000 OA
BRANCH  20  21
ATOM     21  C   UNL     1     -11.938   7.223 127.798  0.00  0.00    +0.000 C 
ATOM     22  C   UNL     1     -12.489   8.547 128.292  0.00  0.00    +0.000 C 
ATOM     23  O   UNL     1     -12.167   6.854 126.646  0.00  0.00    +0.000 OA
ENDBRANCH  20  21
ENDBRANCH   4  20
BRANCH   8  24
ATOM     24  O   UNL     1      -8.467   3.175 127.423  0.00  0.00    +0.000 OA
BRANCH  24  25
ATOM     25  C   UNL     1      -7.940   3.929 126.343  0.00  0.00    +0.000 C 
ATOM     26  C   UNL     1      -6.500   4.178 126.429  0.00  0.00    +0.000 C 
ATOM     27  O   UNL     1      -8.644   4.406 125.438  0.00  0.00    +0.000 OA
ENDBRANCH  24  25
ENDBRANCH   8  24
TORSDOF 4
ENDMDL
MODEL 2
REMARK VINA RESULT:      -7.8      5.632      7.857
REMARK  Name = Diamorphine
REMARK  7 active torsions:
REMARK  status: ('A' for Active; 'I' for Inactive)
REMARK    1  A    between atoms: C_5  and  O_6
REMARK    2  A    between atoms: O_6  and  C_7
REMARK    3  A    between atoms: C_7  and  C_8
REMARK    4  A    between atoms: C_13  and  O_14
REMARK    5  A    between atoms: O_14  and  C_15
REMARK    6  A    between atoms: C_15  and  C_16
REMARK    7  A    between atoms: N_25  and  C_26
REMARK                            x       y       z     vdW  Elec       q    Type
REMARK                         _______ _______ _______ _____ _____    ______ ____
ROOT
ATOM      1  C   UNL     1      -6.322  -1.053 129.994  0.00  0.00    +0.000 C 
ATOM      2  C   UNL     1      -7.460  -0.064 129.790  0.00  0.00    +0.000 C 
ATOM      3  C   UNL     1      -7.539   0.723 128.700  0.00  0.00    +0.000 C 
ATOM      4  C   UNL     1      -6.457   0.767 127.648  0.00  0.00    +0.000 C 
ATOM      5  C   UNL     1      -5.686  -0.563 127.563  0.00  0.00    +0.000 C 
ATOM      6  O   UNL     1      -6.105  -1.222 126.361  0.00  0.00    +0.000 OA
ATOM      7  C   UNL     1      -7.032  -2.165 126.697  0.00  0.00    +0.000 A 
ATOM      8  C   UNL     1      -7.935  -2.828 125.890  0.00  0.00    +0.000 A 
ATOM      9  C   UNL     1      -8.855  -3.682 126.515  0.00  0.00    +0.000 A 
ATOM     10  C   UNL     1      -8.848  -3.838 127.925  0.00  0.00    +0.000 A 
ATOM     11  C   UNL     1      -7.889  -3.182 128.708  0.00  0.00    +0.000 A 
ATOM     12  C   UNL     1      -6.969  -2.400 128.045  0.00  0.00    +0.000 A 
ATOM     13  C   UNL     1      -5.860  -1.596 128.654  0.00  0.00    +0.000 C 
ATOM     14  C   UNL     1      -4.590  -2.463 128.771  0.00  0.00    +0.000 C 
ATOM     15  C   UNL     1      -4.803  -3.600 129.755  0.00  0.00    +0.000 C 
ATOM     16  N   UNL     1      -5.378  -3.085 131.003  0.00  0.00    +0.000 NA
ATOM     17  C   UNL     1      -5.501  -4.155 131.983  0.00  0.00    +0.000 C 
ATOM     18  C   UNL     1      -6.656  -2.329 130.829  0.00  0.00    +0.000 C 
ATOM     19  C   UNL     1      -7.857  -3.155 130.214  0.00  0.00    +0.000 C 
ENDROOT
BRANCH   4  20
ATOM     20  O   UNL     1      -7.061   1.140 126.377  0.00  0.00    +0.000 OA
BRANCH  20  21
ATOM     21  C   UNL     1      -8.328   1.598 126.214  0.00  0.00    +0.000 C 
ATOM     22  C   UNL     1      -9.465   0.627 125.962  0.00  0.00    +0.000 C 
ATOM     23  O   UNL     1      -8.562   2.802 126.329  0.00  0.00    +0.000 OA
ENDBRANCH  20  21
ENDBRANCH   4  20
BRANCH   8  24
ATOM     24  O   UNL     1      -8.040  -2.701 124.453  0.00  0.00    +0.000 OA
BRANCH  24  25
ATOM     25  C   UNL     1      -9.099  -2.538 123.521  0.00  0.00    +0.000 C 
ATOM     26  C   UNL     1      -9.114  -1.238 122.849  0.00  0.00    +0.000 C 
ATOM     27  O   UNL     1      -9.983  -3.391 123.340  0.00  0.00    +0.000 OA
ENDBRANCH  24  25
ENDBRANCH   8  24
TORSDOF 4
ENDMDL
MODEL 3
REMARK VINA RESULT:      -7.3      5.722      9.523
REMARK  Name = Diamorphine
REMARK  7 active torsions:
REMARK  status: ('A' for Active; 'I' for Inactive)
REMARK    1  A    between atoms: C_5  and  O_6
REMARK    2  A    between atoms: O_6  and  C_7
REMARK    3  A    between atoms: C_7  and  C_8
REMARK    4  A    between atoms: C_13  and  O_14
REMARK    5  A    between atoms: O_14  and  C_15
REMARK    6  A    between atoms: C_15  and  C_16
REMARK    7  A    between atoms: N_25  and  C_26
REMARK                            x       y       z     vdW  Elec       q    Type
REMARK                         _______ _______ _______ _____ _____    ______ ____
ROOT
ATOM      1  C   UNL     1      -7.846  -3.157 126.037  0.00  0.00    +0.000 C 
ATOM      2  C   UNL     1      -8.994  -3.498 126.977  0.00  0.00    +0.000 C 
ATOM      3  C   UNL     1      -8.831  -3.562 128.313  0.00  0.00    +0.000 C 
ATOM      4  C   UNL     1      -7.485  -3.407 128.978  0.00  0.00    +0.000 C 
ATOM      5  C   UNL     1      -6.531  -2.531 128.144  0.00  0.00    +0.000 C 
ATOM      6  O   UNL     1      -6.424  -1.266 128.809  0.00  0.00    +0.000 OA
ATOM      7  C   UNL     1      -7.251  -0.385 128.175  0.00  0.00    +0.000 A 
ATOM      8  C   UNL     1      -7.724   0.837 128.612  0.00  0.00    +0.000 A 
ATOM      9  C   UNL     1      -8.653   1.499 127.796  0.00  0.00    +0.000 A 
ATOM     10  C   UNL     1      -9.085   0.916 126.578  0.00  0.00    +0.000 A 
ATOM     11  C   UNL     1      -8.552  -0.306 126.146  0.00  0.00    +0.000 A 
ATOM     12  C   UNL     1      -7.599  -0.892 126.951  0.00  0.00    +0.000 A 
ATOM     13  C   UNL     1      -6.891  -2.191 126.715  0.00  0.00    +0.000 C 
ATOM     14  C   UNL     1      -5.611  -1.946 125.890  0.00  0.00    +0.000 C 
ATOM     15  C   UNL     1      -5.955  -1.456 124.494  0.00  0.00    +0.000 C 
ATOM     16  N   UNL     1      -6.981  -2.319 123.896  0.00  0.00    +0.000 NA
ATOM     17  C   UNL     1      -7.250  -1.909 122.525  0.00  0.00    +0.000 C 
ATOM     18  C   UNL     1      -8.232  -2.443 124.705  0.00  0.00    +0.000 C 
ATOM     19  C   UNL     1      -9.020  -1.093 124.951  0.00  0.00    +0.000 C 
ENDROOT
BRANCH   4  20
ATOM     20  O   UNL     1      -7.689  -2.881 130.321  0.00  0.00    +0.000 OA
BRANCH  20  21
ATOM     21  C   UNL     1      -7.062  -3.324 131.439  0.00  0.00    +0.000 C 
ATOM     22  C   UNL     1      -5.830  -4.201 131.328  0.00  0.00    +0.000 C 
ATOM     23  O   UNL     1      -7.463  -2.966 132.547  0.00  0.00    +0.000 OA
ENDBRANCH  20  21
ENDBRANCH   4  20
BRANCH   8  24
ATOM     24  O   UNL     1      -7.370   1.488 129.854  0.00  0.00    +0.000 OA
BRANCH  24  25
ATOM     25  C   UNL     1      -7.908   1.537 131.167  0.00  0.00    +0.000 C 
ATOM     26  C   UNL     1      -8.712   0.369 131.531  0.00  0.00    +0.000 C 
ATOM     27  O   UNL     1      -7.777   2.515 131.920  0.00  0.00    +0.000 OA
ENDBRANCH  24  25
ENDBRANCH   8  24
TORSDOF 4
ENDMDL
MODEL 4
REMARK VINA RESULT:      -7.0      3.267      7.084
REMARK  Name = Diamorphine
REMARK  7 active torsions:
REMARK  status: ('A' for Active; 'I' for Inactive)
REMARK    1  A    between atoms: C_5  and  O_6
REMARK    2  A    between atoms: O_6  and  C_7
REMARK    3  A    between atoms: C_7  and  C_8
REMARK    4  A    between atoms: C_13  and  O_14
REMARK    5  A    between atoms: O_14  and  C_15
REMARK    6  A    between atoms: C_15  and  C_16
REMARK    7  A    between atoms: N_25  and  C_26
REMARK                            x       y       z     vdW  Elec       q    Type
REMARK                         _______ _______ _______ _____ _____    ______ ____
ROOT
ATOM      1  C   UNL     1      -6.360   1.794 125.380  0.00  0.00    +0.000 C 
ATOM      2  C   UNL     1      -5.091   1.949 126.206  0.00  0.00    +0.000 C 
ATOM      3  C   UNL     1      -4.569   3.156 126.497  0.00  0.00    +0.000 C 
ATOM      4  C   UNL     1      -5.133   4.442 125.944  0.00  0.00    +0.000 C 
ATOM      5  C   UNL     1      -6.639   4.325 125.644  0.00  0.00    +0.000 C 
ATOM      6  O   UNL     1      -7.334   5.065 126.658  0.00  0.00    +0.000 OA
ATOM      7  C   UNL     1      -7.789   4.179 127.589  0.00  0.00    +0.000 A 
ATOM      8  C   UNL     1      -8.232   4.416 128.876  0.00  0.00    +0.000 A 
ATOM      9  C   UNL     1      -8.551   3.301 129.665  0.00  0.00    +0.000 A 
ATOM     10  C   UNL     1      -8.408   1.989 129.147  0.00  0.00    +0.000 A 
ATOM     11  C   UNL     1      -7.996   1.788 127.823  0.00  0.00    +0.000 A 
ATOM     12  C   UNL     1      -7.750   2.913 127.067  0.00  0.00    +0.000 A 
ATOM     13  C   UNL     1      -7.294   2.962 125.640  0.00  0.00    +0.000 C 
ATOM     14  C   UNL     1      -8.517   2.964 124.701  0.00  0.00    +0.000 C 
ATOM     15  C   UNL     1      -9.275   1.651 124.800  0.00  0.00    +0.000 C 
ATOM     16  N   UNL     1      -8.344   0.522 124.683  0.00  0.00    +0.000 NA
ATOM     17  C   UNL     1      -9.074  -0.737 124.687  0.00  0.00    +0.000 C 
ATOM     18  C   UNL     1      -7.231   0.534 125.681  0.00  0.00    +0.000 C 
ATOM     19  C   UNL     1      -7.675   0.456 127.198  0.00  0.00    +0.000 C 
ENDROOT
BRANCH   4  20
ATOM     20  O   UNL     1      -4.835   5.519 126.878  0.00  0.00    +0.000 OA
BRANCH  20  21
ATOM     21  C   UNL     1      -4.143   5.384 128.036  0.00  0.00    +0.000 C 
ATOM     22  C   UNL     1      -2.638   5.567 128.053  0.00  0.00    +0.000 C 
ATOM     23  O   UNL     1      -4.747   5.167 129.088  0.00  0.00    +0.000 OA
ENDBRANCH  20  21
ENDBRANCH   4  20
BRANCH   8  24
ATOM     24  O   UNL     1      -8.372   5.714 129.499  0.00  0.00    +0.000 OA
BRANCH  24  25
ATOM     25  C   UNL     1      -9.436   6.458 130.072  0.00  0.00    +0.000 C 
ATOM     26  C   UNL     1     -10.522   6.770 129.142  0.00  0.00    +0.000 C 
ATOM     27  O   UNL     1      -9.421   6.877 131.241  0.00  0.00    +0.000 OA
ENDBRANCH  24  25
ENDBRANCH   8  24
TORSDOF 4
ENDMDL
MODEL 5
REMARK VINA RESULT:      -6.8      3.317      5.919
REMARK  Name = Diamorphine
REMARK  7 active torsions:
REMARK  status: ('A' for Active; 'I' for Inactive)
REMARK    1  A    between atoms: C_5  and  O_6
REMARK    2  A    between atoms: O_6  and  C_7
REMARK    3  A    between atoms: C_7  and  C_8
REMARK    4  A    between atoms: C_13  and  O_14
REMARK    5  A    between atoms: O_14  and  C_15
REMARK    6  A    between atoms: C_15  and  C_16
REMARK    7  A    between atoms: N_25  and  C_26
REMARK                            x       y       z     vdW  Elec       q    Type
REMARK                         _______ _______ _______ _____ _____    ______ ____
ROOT
ATOM      1  C   UNL     1      -2.679   5.849 129.647  0.00  0.00    +0.000 C 
ATOM      2  C   UNL     1      -3.171   6.327 128.289  0.00  0.00    +0.000 C 
ATOM      3  C   UNL     1      -3.797   5.506 127.424  0.00  0.00    +0.000 C 
ATOM      4  C   UNL     1      -3.965   4.028 127.681  0.00  0.00    +0.000 C 
ATOM      5  C   UNL     1      -4.008   3.710 129.188  0.00  0.00    +0.000 C 
ATOM      6  O   UNL     1      -5.367   3.393 129.517  0.00  0.00    +0.000 OA
ATOM      7  C   UNL     1      -5.936   4.501 130.073  0.00  0.00    +0.000 A 
ATOM      8  C   UNL     1      -7.272   4.793 130.266  0.00  0.00    +0.000 A 
ATOM      9  C   UNL     1      -7.590   6.061 130.772  0.00  0.00    +0.000 A 
ATOM     10  C   UNL     1      -6.564   6.997 131.061  0.00  0.00    +0.000 A 
ATOM     11  C   UNL     1      -5.217   6.651 130.894  0.00  0.00    +0.000 A 
ATOM     12  C   UNL     1      -4.950   5.375 130.450  0.00  0.00    +0.000 A 
ATOM     13  C   UNL     1      -3.603   4.773 130.185  0.00  0.00    +0.000 C 
ATOM     14  C   UNL     1      -3.064   4.115 131.470  0.00  0.00    +0.000 C 
ATOM     15  C   UNL     1      -2.795   5.161 132.539  0.00  0.00    +0.000 C 
ATOM     16  N   UNL     1      -2.013   6.267 131.975  0.00  0.00    +0.000 NA
ATOM     17  C   UNL     1      -1.676   7.229 133.015  0.00  0.00    +0.000 C 
ATOM     18  C   UNL     1      -2.636   6.919 130.783  0.00  0.00    +0.000 C 
ATOM     19  C   UNL     1      -4.047   7.589 131.033  0.00  0.00    +0.000 C 
ENDROOT
BRANCH   4  20
ATOM     20  O   UNL     1      -5.157   3.568 126.983  0.00  0.00    +0.000 OA
BRANCH  20  21
ATOM     21  C   UNL     1      -5.879   4.300 126.098  0.00  0.00    +0.000 C 
ATOM     22  C   UNL     1      -5.538   4.266 124.621  0.00  0.00    +0.000 C 
ATOM     23  O   UNL     1      -6.850   4.950 126.489  0.00  0.00    +0.000 OA
ENDBRANCH  20  21
ENDBRANCH   4  20
BRANCH   8  24
ATOM     24  O   UNL     1      -8.383   3.917 129.964  0.00  0.00    +0.000 OA
BRANCH  24  25
ATOM     25  C   UNL     1      -9.630   3.610 130.570  0.00  0.00    +0.000 C 
ATOM     26  C   UNL     1      -9.521   3.000 131.895  0.00  0.00    +0.000 C 
ATOM     27  O   UNL     1     -10.721   3.771 129.999  0.00  0.00    +0.000 OA
ENDBRANCH  24  25
ENDBRANCH   8  24
TORSDOF 4
ENDMDL
MODEL 6
REMARK VINA RESULT:      -6.7      5.223      7.999
REMARK  Name = Diamorphine
REMARK  7 active torsions:
REMARK  status: ('A' for Active; 'I' for Inactive)
REMARK    1  A    between atoms: C_5  and  O_6
REMARK    2  A    between atoms: O_6  and  C_7
REMARK    3  A    between atoms: C_7  and  C_8
REMARK    4  A    between atoms: C_13  and  O_14
REMARK    5  A    between atoms: O_14  and  C_15
REMARK    6  A    between atoms: C_15  and  C_16
REMARK    7  A    between atoms: N_25  and  C_26
REMARK                            x       y       z     vdW  Elec       q    Type
REMARK                         _______ _______ _______ _____ _____    ______ ____
ROOT
ATOM      1  C   UNL     1      -7.795   1.612 126.876  0.00  0.00    +0.000 C 
ATOM      2  C   UNL     1      -9.062   0.857 126.499  0.00  0.00    +0.000 C 
ATOM      3  C   UNL     1      -9.027  -0.374 125.954  0.00  0.00    +0.000 C 
ATOM      4  C   UNL     1      -7.738  -1.060 125.574  0.00  0.00    +0.000 C 
ATOM      5  C   UNL     1      -6.559  -0.589 126.446  0.00  0.00    +0.000 C 
ATOM      6  O   UNL     1      -6.251  -1.654 127.356  0.00  0.00    +0.000 OA
ATOM      7  C   UNL     1      -6.825  -1.361 128.558  0.00  0.00    +0.000 A 
ATOM      8  C   UNL     1      -7.073  -2.194 129.633  0.00  0.00    +0.000 A 
ATOM      9  C   UNL     1      -7.776  -1.654 130.719  0.00  0.00    +0.000 A 
ATOM     10  C   UNL     1      -8.216  -0.305 130.693  0.00  0.00    +0.000 A 
ATOM     11  C   UNL     1      -7.909   0.522 129.604  0.00  0.00    +0.000 A 
ATOM     12  C   UNL     1      -7.166  -0.035 128.586  0.00  0.00    +0.000 A 
ATOM     13  C   UNL     1      -6.722   0.634 127.320  0.00  0.00    +0.000 C 
ATOM     14  C   UNL     1      -5.356   1.313 127.542  0.00  0.00    +0.000 C 
ATOM     15  C   UNL     1      -5.475   2.454 128.538  0.00  0.00    +0.000 C 
ATOM     16  N   UNL     1      -6.602   3.322 128.177  0.00  0.00    +0.000 NA
ATOM     17  C   UNL     1      -6.668   4.465 129.076  0.00  0.00    +0.000 C 
ATOM     18  C   UNL     1      -7.916   2.615 128.066  0.00  0.00    +0.000 C 
ATOM     19  C   UNL     1      -8.428   1.919 129.391  0.00  0.00    +0.000 C 
ENDROOT
BRANCH   4  20
ATOM     20  O   UNL     1      -7.940  -2.500 125.645  0.00  0.00    +0.000 OA
BRANCH  20  21
ATOM     21  C   UNL     1      -8.048  -3.331 124.578  0.00  0.00    +0.000 C 
ATOM     22  C   UNL     1      -9.305  -3.327 123.731  0.00  0.00    +0.000 C 
ATOM     23  O   UNL     1      -7.098  -4.049 124.264  0.00  0.00    +0.000 OA
ENDBRANCH  20  21
ENDBRANCH   4  20
BRANCH   8  24
ATOM     24  O   UNL     1      -6.697  -3.587 129.730  0.00  0.00    +0.000 OA
BRANCH  24  25
ATOM     25  C   UNL     1      -5.574  -4.306 130.216  0.00  0.00    +0.000 C 
ATOM     26  C   UNL     1      -4.283  -3.694 129.896  0.00  0.00    +0.000 C 
ATOM     27  O   UNL     1      -5.665  -5.399 130.797  0.00  0.00    +0.000 OA
ENDBRANCH  24  25
ENDBRANCH   8  24
TORSDOF 4
ENDMDL
MODEL 7
REMARK VINA RESULT:      -6.7      3.809      7.262
REMARK  Name = Diamorphine
REMARK  7 active torsions:
REMARK  status: ('A' for Active; 'I' for Inactive)
REMARK    1  A    between atoms: C_5  and  O_6
REMARK    2  A    between atoms: O_6  and  C_7
REMARK    3  A    between atoms: C_7  and  C_8
REMARK    4  A    between atoms: C_13  and  O_14
REMARK    5  A    between atoms: O_14  and  C_15
REMARK    6  A    between atoms: C_15  and  C_16
REMARK    7  A    between atoms: N_25  and  C_26
REMARK                            x       y       z     vdW  Elec       q    Type
REMARK                         _______ _______ _______ _____ _____    ______ ____
ROOT
ATOM      1  C   UNL     1      -6.516  -0.024 125.561  0.00  0.00    +0.000 C 
ATOM      2  C   UNL     1      -5.313   0.755 126.073  0.00  0.00    +0.000 C 
ATOM      3  C   UNL     1      -5.298   2.101 126.118  0.00  0.00    +0.000 C 
ATOM      4  C   UNL     1      -6.421   2.947 125.569  0.00  0.00    +0.000 C 
ATOM      5  C   UNL     1      -7.771   2.207 125.614  0.00  0.00    +0.000 C 
ATOM      6  O   UNL     1      -8.542   2.794 126.671  0.00  0.00    +0.000 OA
ATOM      7  C   UNL     1      -8.441   1.986 127.766  0.00  0.00    +0.000 A 
ATOM      8  C   UNL     1      -8.737   2.265 129.087  0.00  0.00    +0.000 A 
ATOM      9  C   UNL     1      -8.440   1.277 130.037  0.00  0.00    +0.000 A 
ATOM     10  C   UNL     1      -7.850   0.050 129.639  0.00  0.00    +0.000 A 
ATOM     11  C   UNL     1      -7.603  -0.214 128.285  0.00  0.00    +0.000 A 
ATOM     12  C   UNL     1      -7.964   0.761 127.382  0.00  0.00    +0.000 A 
ATOM     13  C   UNL     1      -7.796   0.721 125.893  0.00  0.00    +0.000 C 
ATOM     14  C   UNL     1      -9.040   0.081 125.244  0.00  0.00    +0.000 C 
ATOM     15  C   UNL     1      -9.163  -1.381 125.640  0.00  0.00    +0.000 C 
ATOM     16  N   UNL     1      -7.879  -2.065 125.443  0.00  0.00    +0.000 NA
ATOM     17  C   UNL     1      -8.014  -3.485 125.735  0.00  0.00    +0.000 C 
ATOM     18  C   UNL     1      -6.730  -1.445 126.171  0.00  0.00    +0.000 C 
ATOM     19  C   UNL     1      -6.863  -1.410 127.747  0.00  0.00    +0.000 C 
ENDROOT
BRANCH   4  20
ATOM     20  O   UNL     1      -6.453   4.206 126.300  0.00  0.00    +0.000 OA
BRANCH  20  21
ATOM     21  C   UNL     1      -5.524   4.615 127.199  0.00  0.00    +0.000 C 
ATOM     22  C   UNL     1      -5.522   4.050 128.606  0.00  0.00    +0.000 C 
ATOM     23  O   UNL     1      -4.646   5.407 126.854  0.00  0.00    +0.000 OA
ENDBRANCH  20  21
ENDBRANCH   4  20
BRANCH   8  24
ATOM     24  O   UNL     1      -9.302   3.499 129.586  0.00  0.00    +0.000 OA
BRANCH  24  25
ATOM     25  C   UNL     1      -8.981   4.878 129.486  0.00  0.00    +0.000 C 
ATOM     26  C   UNL     1      -8.564   5.493 130.747  0.00  0.00    +0.000 C 
ATOM     27  O   UNL     1      -9.112   5.533 128.438  0.00  0.00    +0.000 OA
ENDBRANCH  24  25
ENDBRANCH   8  24
TORSDOF 4
ENDMDL
MODEL 8
REMARK VINA RESULT:      -6.7      3.523      6.683
REMARK  Name = Diamorphine
REMARK  7 active torsions:
REMARK  status: ('A' for Active; 'I' for Inactive)
REMARK    1  A    between atoms: C_5  and  O_6
REMARK    2  A    between atoms: O_6  and  C_7
REMARK    3  A    between atoms: C_7  and  C_8
REMARK    4  A    between atoms: C_13  and  O_14
REMARK    5  A    between atoms: O_14  and  C_15
REMARK    6  A    between atoms: C_15  and  C_16
REMARK    7  A    between atoms: N_25  and  C_26
REMARK                            x       y       z     vdW  Elec       q    Type
REMARK                         _______ _______ _______ _____ _____    ______ ____
ROOT
ATOM      1  C   UNL     1      -4.443   1.798 127.533  0.00  0.00    +0.000 C 
ATOM      2  C   UNL     1      -3.877   2.509 128.754  0.00  0.00    +0.000 C 
ATOM      3  C   UNL     1      -3.784   3.851 128.824  0.00  0.00    +0.000 C 
ATOM      4  C   UNL     1      -4.133   4.752 127.665  0.00  0.00    +0.000 C 
ATOM      5  C   UNL     1      -5.190   4.116 126.741  0.00  0.00    +0.000 C 
ATOM      6  O   UNL     1      -6.426   4.804 126.973  0.00  0.00    +0.000 OA
ATOM      7  C   UNL     1      -7.183   4.040 127.813  0.00  0.00    +0.000 A 
ATOM      8  C   UNL     1      -8.290   4.397 128.558  0.00  0.00    +0.000 A 
ATOM      9  C   UNL     1      -8.822   3.433 129.427  0.00  0.00    +0.000 A 
ATOM     10  C   UNL     1      -8.227   2.150 129.528  0.00  0.00    +0.000 A 
ATOM     11  C   UNL     1      -7.130   1.809 128.725  0.00  0.00    +0.000 A 
ATOM     12  C   UNL     1      -6.678   2.767 127.845  0.00  0.00    +0.000 A 
ATOM     13  C   UNL     1      -5.525   2.650 126.894  0.00  0.00    +0.000 C 
ATOM     14  C   UNL     1      -6.015   2.076 125.549  0.00  0.00    +0.000 C 
ATOM     15  C   UNL     1      -6.500   0.645 125.718  0.00  0.00    +0.000 C 
ATOM     16  N   UNL     1      -5.504  -0.139 126.457  0.00  0.00    +0.000 NA
ATOM     17  C   UNL     1      -5.922  -1.531 126.544  0.00  0.00    +0.000 C 
ATOM     18  C   UNL     1      -5.140   0.426 127.793  0.00  0.00    +0.000 C 
ATOM     19  C   UNL     1      -6.328   0.539 128.831  0.00  0.00    +0.000 C 
ENDROOT
BRANCH   4  20
ATOM     20  O   UNL     1      -4.560   6.041 128.191  0.00  0.00    +0.000 OA
BRANCH  20  21
ATOM     21  C   UNL     1      -3.733   7.016 128.643  0.00  0.00    +0.000 C 
ATOM     22  C   UNL     1      -4.137   7.873 129.827  0.00  0.00    +0.000 C 
ATOM     23  O   UNL     1      -2.626   7.168 128.124  0.00  0.00    +0.000 OA
ENDBRANCH  20  21
ENDBRANCH   4  20
BRANCH   8  24
ATOM     24  O   UNL     1      -8.937   5.691 128.548  0.00  0.00    +0.000 OA
BRANCH  24  25
ATOM     25  C   UNL     1      -9.993   6.306 129.271  0.00  0.00    +0.000 C 
ATOM     26  C   UNL     1      -9.564   7.003 130.484  0.00  0.00    +0.000 C 
ATOM     27  O   UNL     1     -11.188   6.202 128.951  0.00  0.00    +0.000 OA
ENDBRANCH  24  25
ENDBRANCH   8  24
TORSDOF 4
ENDMDL
MODEL 9
REMARK VINA RESULT:      -6.6      3.415      6.065
REMARK  Name = Diamorphine
REMARK  7 active torsions:
REMARK  status: ('A' for Active; 'I' for Inactive)
REMARK    1  A    between atoms: C_5  and  O_6
REMARK    2  A    between atoms: O_6  and  C_7
REMARK    3  A    between atoms: C_7  and  C_8
REMARK    4  A    between atoms: C_13  and  O_14
REMARK    5  A    between atoms: O_14  and  C_15
REMARK    6  A    between atoms: C_15  and  C_16
REMARK    7  A    between atoms: N_25  and  C_26
REMARK                            x       y       z     vdW  Elec       q    Type
REMARK                         _______ _______ _______ _____ _____    ______ ____
ROOT
ATOM      1  C   UNL     1      -8.353   6.835 131.270  0.00  0.00    +0.000 C 
ATOM      2  C   UNL     1      -6.883   6.605 130.950  0.00  0.00    +0.000 C 
ATOM      3  C   UNL     1      -6.027   6.082 131.849  0.00  0.00    +0.000 C 
ATOM      4  C   UNL     1      -6.426   5.782 133.273  0.00  0.00    +0.000 C 
ATOM      5  C   UNL     1      -7.929   5.470 133.395  0.00  0.00    +0.000 C 
ATOM      6  O   UNL     1      -8.055   4.058 133.611  0.00  0.00    +0.000 OA
ATOM      7  C   UNL     1      -8.369   3.475 132.419  0.00  0.00    +0.000 A 
ATOM      8  C   UNL     1      -8.292   2.146 132.050  0.00  0.00    +0.000 A 
ATOM      9  C   UNL     1      -8.582   1.828 130.715  0.00  0.00    +0.000 A 
ATOM     10  C   UNL     1      -8.930   2.848 129.793  0.00  0.00    +0.000 A 
ATOM     11  C   UNL     1      -9.040   4.180 130.212  0.00  0.00    +0.000 A 
ATOM     12  C   UNL     1      -8.803   4.437 131.545  0.00  0.00    +0.000 A 
ATOM     13  C   UNL     1      -8.847   5.769 132.231  0.00  0.00    +0.000 C 
ATOM     14  C   UNL     1     -10.276   6.046 132.740  0.00  0.00    +0.000 C 
ATOM     15  C   UNL     1     -11.243   6.198 131.579  0.00  0.00    +0.000 C 
ATOM     16  N   UNL     1     -10.695   7.130 130.586  0.00  0.00    +0.000 NA
ATOM     17  C   UNL     1     -11.655   7.349 129.514  0.00  0.00    +0.000 C 
ATOM     18  C   UNL     1      -9.344   6.755 130.066  0.00  0.00    +0.000 C 
ATOM     19  C   UNL     1      -9.266   5.366 129.313  0.00  0.00    +0.000 C 
ENDROOT
BRANCH   4  20
ATOM     20  O   UNL     1      -5.592   4.696 133.769  0.00  0.00    +0.000 OA
BRANCH  20  21
ATOM     21  C   UNL     1      -4.317   4.826 134.213  0.00  0.00    +0.000 C 
ATOM     22  C   UNL     1      -3.259   3.820 133.803  0.00  0.00    +0.000 C 
ATOM     23  O   UNL     1      -4.007   5.795 134.906  0.00  0.00    +0.000 OA
ENDBRANCH  20  21
ENDBRANCH   4  20
BRANCH   8  24
ATOM     24  O   UNL     1      -7.910   1.048 132.911  0.00  0.00    +0.000 OA
BRANCH  24  25
ATOM     25  C   UNL     1      -6.689   0.536 133.424  0.00  0.00    +0.000 C 
ATOM     26  C   UNL     1      -5.495   1.023 132.733  0.00  0.00    +0.000 C 
ATOM     27  O   UNL     1      -6.635  -0.311 134.330  0.00  0.00    +0.000 OA
ENDBRANCH  24  25
ENDBRANCH   8  24
TORSDOF 4
ENDMDL
