MODEL 1
REMARK VINA RESULT:      -6.0      0.000      0.000
REMARK  Name = Diatrizoate
REMARK  6 active torsions:
REMARK  status: ('A' for Active; 'I' for Inactive)
REMARK    1  A    between atoms: C_1  and  C_2
REMARK    2  A    between atoms: N_4  and  C_5
REMARK    3  A    between atoms: C_8  and  C_9
REMARK    4  A    between atoms: C_9  and  O_10
REMARK    5  A    between atoms: C_14  and  N_15
REMARK    6  A    between atoms: C_16  and  C_17
REMARK                            x       y       z     vdW  Elec       q    Type
REMARK                         _______ _______ _______ _____ _____    ______ ____
ROOT
ATOM      1  C   UNL     1      -5.605   1.441 126.472  0.00  0.00    +0.000 A 
ATOM      2  C   UNL     1      -5.428   2.717 125.897  0.00  0.00    +0.000 A 
ATOM      3  I   UNL     1      -3.502   3.702 126.501  0.00  0.00    +0.000 I 
ATOM      4  C   UNL     1      -6.233   3.183 124.817  0.00  0.00    +0.000 A 
ATOM      5  C   UNL     1      -7.211   2.251 124.303  0.00  0.00    +0.000 A 
ATOM      6  I   UNL     1      -8.378   2.747 122.469  0.00  0.00    +0.000 I 
ATOM      7  C   UNL     1      -7.433   0.902 124.835  0.00  0.00    +0.000 A 
ATOM      8  C   UNL     1      -6.543   0.531 125.917  0.00  0.00    +0.000 A 
ATOM      9  I   UNL     1      -6.110  -1.579 127.096  0.00  0.00    +0.000 I 
ENDROOT
BRANCH   1  13
ATOM     10  C   UNL     1      -4.229   0.663 129.891  0.00  0.00    +0.000 C 
ATOM     11  C   UNL     1      -5.103   1.347 128.871  0.00  0.00    +0.000 C 
ATOM     12  O   UNL     1      -6.013   2.100 129.198  0.00  0.00    +0.000 OA
ATOM     13  N   UNL     1      -4.807   0.995 127.566  0.00  0.00    +0.000 N 
ATOM     14  H   UNL     1      -4.486   0.033 127.488  0.00  0.00    +0.000 HD
ENDBRANCH   1  13
BRANCH   7  15
ATOM     15  N   UNL     1      -8.537   0.186 124.193  0.00  0.00    +0.000 N 
ATOM     16  C   UNL     1      -8.657  -0.932 123.398  0.00  0.00    +0.000 C 
ATOM     17  C   UNL     1      -7.418  -1.634 123.088  0.00  0.00    +0.000 C 
ATOM     18  O   UNL     1      -9.736  -1.336 122.972  0.00  0.00    +0.000 OA
ATOM     19  H   UNL     1      -9.478   0.519 124.412  0.00  0.00    +0.000 HD
ENDBRANCH   7  15
BRANCH   4  20
ATOM     20  C   UNL     1      -6.000   4.608 124.334  0.00  0.00    +0.000 C 
ATOM     21  O   UNL     1      -5.332   4.889 123.336  0.00  0.00    +0.000 OA
BRANCH  20  22
ATOM     22  O   UNL     1      -6.492   5.651 125.010  0.00  0.00    +0.000 OA
ATOM     23  H   UNL     1      -7.179   5.480 125.673  0.00  0.00    +0.000 HD
ENDBRANCH  20  22
ENDBRANCH   4  20
TORSDOF 4
ENDMDL
MODEL 2
REMARK VINA RESULT:      -5.7      1.643      5.307
REMARK  Name = Diatrizoate
REMARK  6 active torsions:
REMARK  status: ('A' for Active; 'I' for Inactive)
REMARK    1  A    between atoms: C_1  and  C_2
REMARK    2  A    between atoms: N_4  and  C_5
REMARK    3  A    between atoms: C_8  and  C_9
REMARK    4  A    between atoms: C_9  and  O_10
REMARK    5  A    between atoms: C_14  and  N_15
REMARK    6  A    between atoms: C_16  and  C_17
REMARK                            x       y       z     vdW  Elec       q    Type
REMARK                         _______ _______ _______ _____ _____    ______ ____
ROOT
ATOM      1  C   UNL     1      -7.965  -0.320 125.062  0.00  0.00    +0.000 A 
ATOM      2  C   UNL     1      -7.951   0.889 124.333  0.00  0.00    +0.000 A 
ATOM      3  I   UNL     1      -9.747   1.145 123.009  0.00  0.00    +0.000 I 
ATOM      4  C   UNL     1      -7.056   1.954 124.643  0.00  0.00    +0.000 A 
ATOM      5  C   UNL     1      -6.195   1.750 125.786  0.00  0.00    +0.000 A 
ATOM      6  I   UNL     1      -4.913   3.413 126.535  0.00  0.00    +0.000 I 
ATOM      7  C   UNL     1      -6.172   0.532 126.603  0.00  0.00    +0.000 A 
ATOM      8  C   UNL     1      -7.139  -0.473 126.206  0.00  0.00    +0.000 A 
ATOM      9  I   UNL     1      -7.889  -2.582 127.215  0.00  0.00    +0.000 I 
ENDROOT
BRANCH   1  13
ATOM     10  C   UNL     1      -9.564  -3.390 123.577  0.00  0.00    +0.000 C 
ATOM     11  C   UNL     1      -8.585  -2.249 123.680  0.00  0.00    +0.000 C 
ATOM     12  O   UNL     1      -7.625  -2.149 122.924  0.00  0.00    +0.000 OA
ATOM     13  N   UNL     1      -8.851  -1.385 124.728  0.00  0.00    +0.000 N 
ATOM     14  H   UNL     1      -9.256  -1.863 125.530  0.00  0.00    +0.000 HD
ENDBRANCH   1  13
BRANCH   7  15
ATOM     15  N   UNL     1      -5.154   0.542 127.654  0.00  0.00    +0.000 N 
ATOM     16  C   UNL     1      -5.158   0.509 129.031  0.00  0.00    +0.000 C 
ATOM     17  C   UNL     1      -6.467   0.434 129.667  0.00  0.00    +0.000 C 
ATOM     18  O   UNL     1      -4.130   0.533 129.703  0.00  0.00    +0.000 OA
ATOM     19  H   UNL     1      -4.183   0.494 127.341  0.00  0.00    +0.000 HD
ENDBRANCH   7  15
BRANCH   4  20
ATOM     20  C   UNL     1      -7.081   3.176 123.734  0.00  0.00    +0.000 C 
ATOM     21  O   UNL     1      -6.377   3.292 122.729  0.00  0.00    +0.000 OA
BRANCH  20  22
ATOM     22  O   UNL     1      -7.864   4.222 124.013  0.00  0.00    +0.000 OA
ATOM     23  H   UNL     1      -8.784   4.196 123.709  0.00  0.00    +0.000 HD
ENDBRANCH  20  22
ENDBRANCH   4  20
TORSDOF 4
ENDMDL
MODEL 3
REMARK VINA RESULT:      -5.6      1.496      1.711
REMARK  Name = Diatrizoate
REMARK  6 active torsions:
REMARK  status: ('A' for Active; 'I' for Inactive)
REMARK    1  A    between atoms: C_1  and  C_2
REMARK    2  A    between atoms: N_4  and  C_5
REMARK    3  A    between atoms: C_8  and  C_9
REMARK    4  A    between atoms: C_9  and  O_10
REMARK    5  A    between atoms: C_14  and  N_15
REMARK    6  A    between atoms: C_16  and  C_17
REMARK                            x       y       z     vdW  Elec       q    Type
REMARK                         _______ _______ _______ _____ _____    ______ ____
ROOT
ATOM      1  C   UNL     1      -6.200   0.940 126.876  0.00  0.00    +0.000 A 
ATOM      2  C   UNL     1      -6.514   2.173 126.264  0.00  0.00    +0.000 A 
ATOM      3  I   UNL     1      -4.919   3.729 126.537  0.00  0.00    +0.000 I 
ATOM      4  C   UNL     1      -7.576   2.306 125.323  0.00  0.00    +0.000 A 
ATOM      5  C   UNL     1      -8.284   1.092 124.985  0.00  0.00    +0.000 A 
ATOM      6  I   UNL     1      -9.808   1.098 123.358  0.00  0.00    +0.000 I 
ATOM      7  C   UNL     1      -7.997  -0.225 125.562  0.00  0.00    +0.000 A 
ATOM      8  C   UNL     1      -6.884  -0.243 126.491  0.00  0.00    +0.000 A 
ATOM      9  I   UNL     1      -5.649  -2.046 127.610  0.00  0.00    +0.000 I 
ENDROOT
BRANCH   1  13
ATOM     10  C   UNL     1      -4.158   0.816 130.038  0.00  0.00    +0.000 C 
ATOM     11  C   UNL     1      -5.343   1.138 129.166  0.00  0.00    +0.000 C 
ATOM     12  O   UNL     1      -6.386   1.586 129.629  0.00  0.00    +0.000 OA
ATOM     13  N   UNL     1      -5.149   0.825 127.831  0.00  0.00    +0.000 N 
ATOM     14  H   UNL     1      -4.556   0.008 127.708  0.00  0.00    +0.000 HD
ENDBRANCH   1  13
BRANCH   7  15
ATOM     15  N   UNL     1      -8.909  -1.280 125.116  0.00  0.00    +0.000 N 
ATOM     16  C   UNL     1      -8.786  -2.456 124.408  0.00  0.00    +0.000 C 
ATOM     17  C   UNL     1      -7.440  -2.805 123.974  0.00  0.00    +0.000 C 
ATOM     18  O   UNL     1      -9.741  -3.185 124.154  0.00  0.00    +0.000 OA
ATOM     19  H   UNL     1      -9.875  -1.207 125.440  0.00  0.00    +0.000 HD
ENDBRANCH   7  15
BRANCH   4  20
ATOM     20  C   UNL     1      -7.869   3.703 124.791  0.00  0.00    +0.000 C 
ATOM     21  O   UNL     1      -8.657   4.485 125.329  0.00  0.00    +0.000 OA
BRANCH  20  22
ATOM     22  O   UNL     1      -7.297   4.144 123.667  0.00  0.00    +0.000 OA
ATOM     23  H   UNL     1      -7.748   3.966 122.827  0.00  0.00    +0.000 HD
ENDBRANCH  20  22
ENDBRANCH   4  20
TORSDOF 4
ENDMDL
MODEL 4
REMARK VINA RESULT:      -5.5      2.888      6.716
REMARK  Name = Diatrizoate
REMARK  6 active torsions:
REMARK  status: ('A' for Active; 'I' for Inactive)
REMARK    1  A    between atoms: C_1  and  C_2
REMARK    2  A    between atoms: N_4  and  C_5
REMARK    3  A    between atoms: C_8  and  C_9
REMARK    4  A    between atoms: C_9  and  O_10
REMARK    5  A    between atoms: C_14  and  N_15
REMARK    6  A    between atoms: C_16  and  C_17
REMARK                            x       y       z     vdW  Elec       q    Type
REMARK                         _______ _______ _______ _____ _____    ______ ____
ROOT
ATOM      1  C   UNL     1      -7.670   0.479 125.101  0.00  0.00    +0.000 A 
ATOM      2  C   UNL     1      -8.201  -0.824 125.000  0.00  0.00    +0.000 A 
ATOM      3  I   UNL     1      -8.375  -1.548 122.881  0.00  0.00    +0.000 I 
ATOM      4  C   UNL     1      -8.317  -1.689 126.128  0.00  0.00    +0.000 A 
ATOM      5  C   UNL     1      -7.807  -1.174 127.379  0.00  0.00    +0.000 A 
ATOM      6  I   UNL     1      -7.702  -2.493 129.174  0.00  0.00    +0.000 I 
ATOM      7  C   UNL     1      -7.222   0.159 127.553  0.00  0.00    +0.000 A 
ATOM      8  C   UNL     1      -7.137   0.940 126.334  0.00  0.00    +0.000 A 
ATOM      9  I   UNL     1      -6.059   3.072 125.768  0.00  0.00    +0.000 I 
ENDROOT
BRANCH   1  13
ATOM     10  C   UNL     1      -8.337   3.023 122.405  0.00  0.00    +0.000 C 
ATOM     11  C   UNL     1      -8.669   2.067 123.521  0.00  0.00    +0.000 C 
ATOM     12  O   UNL     1      -9.796   1.997 124.001  0.00  0.00    +0.000 OA
ATOM     13  N   UNL     1      -7.580   1.341 123.969  0.00  0.00    +0.000 N 
ATOM     14  H   UNL     1      -6.712   1.869 123.911  0.00  0.00    +0.000 HD
ENDBRANCH   1  13
BRANCH   7  15
ATOM     15  N   UNL     1      -6.855   0.470 128.935  0.00  0.00    +0.000 N 
ATOM     16  C   UNL     1      -7.307   1.337 129.905  0.00  0.00    +0.000 C 
ATOM     17  C   UNL     1      -8.440   2.177 129.536  0.00  0.00    +0.000 C 
ATOM     18  O   UNL     1      -6.806   1.408 131.024  0.00  0.00    +0.000 OA
ATOM     19  H   UNL     1      -6.133  -0.121 129.353  0.00  0.00    +0.000 HD
ENDBRANCH   7  15
BRANCH   4  20
ATOM     20  C   UNL     1      -8.979  -3.042 125.908  0.00  0.00    +0.000 C 
ATOM     21  O   UNL     1      -8.350  -4.084 125.707  0.00  0.00    +0.000 OA
BRANCH  20  22
ATOM     22  O   UNL     1     -10.310  -3.159 125.885  0.00  0.00    +0.000 OA
ATOM     23  H   UNL     1     -10.744  -3.254 125.023  0.00  0.00    +0.000 HD
ENDBRANCH  20  22
ENDBRANCH   4  20
TORSDOF 4
ENDMDL
MODEL 5
REMARK VINA RESULT:      -5.4      2.691      5.090
REMARK  Name = Diatrizoate
REMARK  6 active torsions:
REMARK  status: ('A' for Active; 'I' for Inactive)
REMARK    1  A    between atoms: C_1  and  C_2
REMARK    2  A    between atoms: N_4  and  C_5
REMARK    3  A    between atoms: C_8  and  C_9
REMARK    4  A    between atoms: C_9  and  O_10
REMARK    5  A    between atoms: C_14  and  N_15
REMARK    6  A    between atoms: C_16  and  C_17
REMARK                            x       y       z     vdW  Elec       q    Type
REMARK                         _______ _______ _______ _____ _____    ______ ____
ROOT
ATOM      1  C   UNL     1      -7.860  -0.560 127.031  0.00  0.00    +0.000 A 
ATOM      2  C   UNL     1      -8.219  -1.090 125.773  0.00  0.00    +0.000 A 
ATOM      3  I   UNL     1      -9.082  -3.160 125.898  0.00  0.00    +0.000 I 
ATOM      4  C   UNL     1      -8.309  -0.281 124.603  0.00  0.00    +0.000 A 
ATOM      5  C   UNL     1      -8.065   1.133 124.787  0.00  0.00    +0.000 A 
ATOM      6  I   UNL     1      -8.400   2.555 123.104  0.00  0.00    +0.000 I 
ATOM      7  C   UNL     1      -7.712   1.756 126.066  0.00  0.00    +0.000 A 
ATOM      8  C   UNL     1      -7.670   0.838 127.188  0.00  0.00    +0.000 A 
ATOM      9  I   UNL     1      -7.449   1.150 129.614  0.00  0.00    +0.000 I 
ENDROOT
BRANCH   1  13
ATOM     10  C   UNL     1      -6.644  -2.834 129.776  0.00  0.00    +0.000 C 
ATOM     11  C   UNL     1      -6.624  -2.144 128.436  0.00  0.00    +0.000 C 
ATOM     12  O   UNL     1      -5.662  -2.226 127.680  0.00  0.00    +0.000 OA
ATOM     13  N   UNL     1      -7.753  -1.384 128.189  0.00  0.00    +0.000 N 
ATOM     14  H   UNL     1      -8.135  -0.971 129.036  0.00  0.00    +0.000 HD
ENDBRANCH   1  13
BRANCH   7  15
ATOM     15  N   UNL     1      -7.437   3.190 125.971  0.00  0.00    +0.000 N 
ATOM     16  C   UNL     1      -6.311   3.983 125.996  0.00  0.00    +0.000 C 
ATOM     17  C   UNL     1      -5.039   3.285 126.138  0.00  0.00    +0.000 C 
ATOM     18  O   UNL     1      -6.353   5.206 125.897  0.00  0.00    +0.000 OA
ATOM     19  H   UNL     1      -8.240   3.790 125.770  0.00  0.00    +0.000 HD
ENDBRANCH   7  15
BRANCH   4  20
ATOM     20  C   UNL     1      -8.627  -0.982 123.290  0.00  0.00    +0.000 C 
ATOM     21  O   UNL     1      -7.782  -1.565 122.607  0.00  0.00    +0.000 OA
BRANCH  20  22
ATOM     22  O   UNL     1      -9.864  -0.966 122.785  0.00  0.00    +0.000 OA
ATOM     23  H   UNL     1     -10.095  -1.638 122.124  0.00  0.00    +0.000 HD
ENDBRANCH  20  22
ENDBRANCH   4  20
TORSDOF 4
ENDMDL
MODEL 6
REMARK VINA RESULT:      -5.2      2.740      5.638
REMARK  Name = Diatrizoate
REMARK  6 active torsions:
REMARK  status: ('A' for Active; 'I' for Inactive)
REMARK    1  A    between atoms: C_1  and  C_2
REMARK    2  A    between atoms: N_4  and  C_5
REMARK    3  A    between atoms: C_8  and  C_9
REMARK    4  A    between atoms: C_9  and  O_10
REMARK    5  A    between atoms: C_14  and  N_15
REMARK    6  A    between atoms: C_16  and  C_17
REMARK                            x       y       z     vdW  Elec       q    Type
REMARK                         _______ _______ _______ _____ _____    ______ ____
ROOT
ATOM      1  C   UNL     1      -8.370  -0.789 126.225  0.00  0.00    +0.000 A 
ATOM      2  C   UNL     1      -8.249   0.588 125.939  0.00  0.00    +0.000 A 
ATOM      3  I   UNL     1      -9.697   1.298 124.376  0.00  0.00    +0.000 I 
ATOM      4  C   UNL     1      -7.508   1.476 126.772  0.00  0.00    +0.000 A 
ATOM      5  C   UNL     1      -6.928   0.897 127.963  0.00  0.00    +0.000 A 
ATOM      6  I   UNL     1      -5.945   2.202 129.480  0.00  0.00    +0.000 I 
ATOM      7  C   UNL     1      -7.034  -0.517 128.335  0.00  0.00    +0.000 A 
ATOM      8  C   UNL     1      -7.828  -1.319 127.425  0.00  0.00    +0.000 A 
ATOM      9  I   UNL     1      -8.681  -3.620 127.510  0.00  0.00    +0.000 I 
ENDROOT
BRANCH   1  13
ATOM     10  C   UNL     1      -9.404  -3.228 123.548  0.00  0.00    +0.000 C 
ATOM     11  C   UNL     1      -8.526  -2.214 124.235  0.00  0.00    +0.000 C 
ATOM     12  O   UNL     1      -7.398  -1.954 123.832  0.00  0.00    +0.000 OA
ATOM     13  N   UNL     1      -9.097  -1.670 125.372  0.00  0.00    +0.000 N 
ATOM     14  H   UNL     1      -9.693  -2.333 125.862  0.00  0.00    +0.000 HD
ENDBRANCH   1  13
BRANCH   7  15
ATOM     15  N   UNL     1      -6.291  -0.869 129.547  0.00  0.00    +0.000 N 
ATOM     16  C   UNL     1      -5.241  -1.706 129.853  0.00  0.00    +0.000 C 
ATOM     17  C   UNL     1      -4.670  -2.451 128.738  0.00  0.00    +0.000 C 
ATOM     18  O   UNL     1      -4.792  -1.826 130.990  0.00  0.00    +0.000 OA
ATOM     19  H   UNL     1      -6.529  -0.340 130.389  0.00  0.00    +0.000 HD
ENDBRANCH   7  15
BRANCH   4  20
ATOM     20  C   UNL     1      -7.383   2.923 126.316  0.00  0.00    +0.000 C 
ATOM     21  O   UNL     1      -6.516   3.319 125.534  0.00  0.00    +0.000 OA
BRANCH  20  22
ATOM     22  O   UNL     1      -8.210   3.864 126.784  0.00  0.00    +0.000 OA
ATOM     23  H   UNL     1      -8.338   3.921 127.743  0.00  0.00    +0.000 HD
ENDBRANCH  20  22
ENDBRANCH   4  20
TORSDOF 4
ENDMDL
MODEL 7
REMARK VINA RESULT:      -5.0      2.686      5.101
REMARK  Name = Diatrizoate
REMARK  6 active torsions:
REMARK  status: ('A' for Active; 'I' for Inactive)
REMARK    1  A    between atoms: C_1  and  C_2
REMARK    2  A    between atoms: N_4  and  C_5
REMARK    3  A    between atoms: C_8  and  C_9
REMARK    4  A    between atoms: C_9  and  O_10
REMARK    5  A    between atoms: C_14  and  N_15
REMARK    6  A    between atoms: C_16  and  C_17
REMARK                            x       y       z     vdW  Elec       q    Type
REMARK                         _______ _______ _______ _____ _____    ______ ____
ROOT
ATOM      1  C   UNL     1      -7.634   1.171 126.647  0.00  0.00    +0.000 A 
ATOM      2  C   UNL     1      -7.196   0.654 127.885  0.00  0.00    +0.000 A 
ATOM      3  I   UNL     1      -6.667   2.250 129.374  0.00  0.00    +0.000 I 
ATOM      4  C   UNL     1      -7.371  -0.715 128.243  0.00  0.00    +0.000 A 
ATOM      5  C   UNL     1      -8.075  -1.538 127.285  0.00  0.00    +0.000 A 
ATOM      6  I   UNL     1      -8.631  -3.634 127.803  0.00  0.00    +0.000 I 
ATOM      7  C   UNL     1      -8.578  -1.063 125.992  0.00  0.00    +0.000 A 
ATOM      8  C   UNL     1      -8.361   0.349 125.746  0.00  0.00    +0.000 A 
ATOM      9  I   UNL     1      -9.139   1.898 124.007  0.00  0.00    +0.000 I 
ENDROOT
BRANCH   1  13
ATOM     10  C   UNL     1      -6.265   4.424 125.332  0.00  0.00    +0.000 C 
ATOM     11  C   UNL     1      -6.232   2.984 125.773  0.00  0.00    +0.000 C 
ATOM     12  O   UNL     1      -5.236   2.284 125.627  0.00  0.00    +0.000 OA
ATOM     13  N   UNL     1      -7.434   2.538 126.293  0.00  0.00    +0.000 N 
ATOM     14  H   UNL     1      -8.236   2.979 125.849  0.00  0.00    +0.000 HD
ENDBRANCH   1  13
BRANCH   7  15
ATOM     15  N   UNL     1      -9.184  -2.112 125.170  0.00  0.00    +0.000 N 
ATOM     16  C   UNL     1      -8.980  -2.615 123.904  0.00  0.00    +0.000 C 
ATOM     17  C   UNL     1      -7.900  -2.005 123.139  0.00  0.00    +0.000 C 
ATOM     18  O   UNL     1      -9.652  -3.528 123.432  0.00  0.00    +0.000 OA
ATOM     19  H   UNL     1      -9.895  -2.687 125.627  0.00  0.00    +0.000 HD
ENDBRANCH   7  15
BRANCH   4  20
ATOM     20  C   UNL     1      -6.785  -1.171 129.572  0.00  0.00    +0.000 C 
ATOM     21  O   UNL     1      -7.448  -1.283 130.606  0.00  0.00    +0.000 OA
BRANCH  20  22
ATOM     22  O   UNL     1      -5.483  -1.445 129.690  0.00  0.00    +0.000 OA
ATOM     23  H   UNL     1      -5.062  -1.294 130.551  0.00  0.00    +0.000 HD
ENDBRANCH  20  22
ENDBRANCH   4  20
TORSDOF 4
ENDMDL
MODEL 8
REMARK VINA RESULT:      -5.0      4.794      6.328
REMARK  Name = Diatrizoate
REMARK  6 active torsions:
REMARK  status: ('A' for Active; 'I' for Inactive)
REMARK    1  A    between atoms: C_1  and  C_2
REMARK    2  A    between atoms: N_4  and  C_5
REMARK    3  A    between atoms: C_8  and  C_9
REMARK    4  A    between atoms: C_9  and  O_10
REMARK    5  A    between atoms: C_14  and  N_15
REMARK    6  A    between atoms: C_16  and  C_17
REMARK                            x       y       z     vdW  Elec       q    Type
REMARK                         _______ _______ _______ _____ _____    ______ ____
ROOT
ATOM      1  C   UNL     1      -4.114   4.507 131.642  0.00  0.00    +0.000 A 
ATOM      2  C   UNL     1      -3.715   5.498 130.720  0.00  0.00    +0.000 A 
ATOM      3  I   UNL     1      -3.031   7.398 131.704  0.00  0.00    +0.000 I 
ATOM      4  C   UNL     1      -3.481   5.209 129.344  0.00  0.00    +0.000 A 
ATOM      5  C   UNL     1      -3.623   3.824 128.952  0.00  0.00    +0.000 A 
ATOM      6  I   UNL     1      -3.062   3.179 126.893  0.00  0.00    +0.000 I 
ATOM      7  C   UNL     1      -4.011   2.739 129.859  0.00  0.00    +0.000 A 
ATOM      8  C   UNL     1      -4.202   3.149 131.237  0.00  0.00    +0.000 A 
ATOM      9  I   UNL     1      -4.561   1.915 133.329  0.00  0.00    +0.000 I 
ENDROOT
BRANCH   1  13
ATOM     10  C   UNL     1      -5.685   5.504 134.916  0.00  0.00    +0.000 C 
ATOM     11  C   UNL     1      -5.556   5.389 133.419  0.00  0.00    +0.000 C 
ATOM     12  O   UNL     1      -6.457   5.733 132.662  0.00  0.00    +0.000 OA
ATOM     13  N   UNL     1      -4.364   4.814 133.011  0.00  0.00    +0.000 N 
ATOM     14  H   UNL     1      -4.027   4.115 133.668  0.00  0.00    +0.000 HD
ENDBRANCH   1  13
BRANCH   7  15
ATOM     15  N   UNL     1      -4.163   1.441 129.200  0.00  0.00    +0.000 N 
ATOM     16  C   UNL     1      -5.206   0.576 128.952  0.00  0.00    +0.000 C 
ATOM     17  C   UNL     1      -6.517   1.001 129.426  0.00  0.00    +0.000 C 
ATOM     18  O   UNL     1      -5.063  -0.490 128.361  0.00  0.00    +0.000 OA
ATOM     19  H   UNL     1      -3.331   1.073 128.734  0.00  0.00    +0.000 HD
ENDBRANCH   7  15
BRANCH   4  20
ATOM     20  C   UNL     1      -3.132   6.377 128.432  0.00  0.00    +0.000 C 
ATOM     21  O   UNL     1      -3.975   7.117 127.920  0.00  0.00    +0.000 OA
BRANCH  20  22
ATOM     22  O   UNL     1      -1.863   6.639 128.107  0.00  0.00    +0.000 OA
ATOM     23  H   UNL     1      -1.642   7.540 127.826  0.00  0.00    +0.000 HD
ENDBRANCH  20  22
ENDBRANCH   4  20
TORSDOF 4
ENDMDL
MODEL 9
REMARK VINA RESULT:      -4.9      4.926      7.222
REMARK  Name = Diatrizoate
REMARK  6 active torsions:
REMARK  status: ('A' for Active; 'I' for Inactive)
REMARK    1  A    between atoms: C_1  and  C_2
REMARK    2  A    between atoms: N_4  and  C_5
REMARK    3  A    between atoms: C_8  and  C_9
REMARK    4  A    between atoms: C_9  and  O_10
REMARK    5  A    between atoms: C_14  and  N_15
REMARK    6  A    between atoms: C_16  and  C_17
REMARK                            x       y       z     vdW  Elec       q    Type
REMARK                         _______ _______ _______ _____ _____    ______ ____
ROOT
ATOM      1  C   UNL     1      -5.158   4.848 129.819  0.00  0.00    +0.000 A 
ATOM      2  C   UNL     1      -5.959   4.504 128.708  0.00  0.00    +0.000 A 
ATOM      3  I   UNL     1      -4.761   4.000 126.876  0.00  0.00    +0.000 I 
ATOM      4  C   UNL     1      -7.348   4.212 128.833  0.00  0.00    +0.000 A 
ATOM      5  C   UNL     1      -7.886   4.234 130.175  0.00  0.00    +0.000 A 
ATOM      6  I   UNL     1      -9.980   3.570 130.554  0.00  0.00    +0.000 I 
ATOM      7  C   UNL     1      -7.109   4.558 131.376  0.00  0.00    +0.000 A 
ATOM      8  C   UNL     1      -5.704   4.816 131.129  0.00  0.00    +0.000 A 
ATOM      9  I   UNL     1      -3.764   5.131 132.601  0.00  0.00    +0.000 I 
ENDROOT
BRANCH   1  13
ATOM     10  C   UNL     1      -1.855   6.577 129.288  0.00  0.00    +0.000 C 
ATOM     11  C   UNL     1      -3.350   6.398 129.234  0.00  0.00    +0.000 C 
ATOM     12  O   UNL     1      -4.099   7.300 128.874  0.00  0.00    +0.000 OA
ATOM     13  N   UNL     1      -3.774   5.158 129.678  0.00  0.00    +0.000 N 
ATOM     14  H   UNL     1      -3.183   4.788 130.418  0.00  0.00    +0.000 HD
ENDBRANCH   1  13
BRANCH   7  15
ATOM     15  N   UNL     1      -7.904   4.589 132.605  0.00  0.00    +0.000 N 
ATOM     16  C   UNL     1      -7.970   3.835 133.756  0.00  0.00    +0.000 C 
ATOM     17  C   UNL     1      -7.038   2.718 133.846  0.00  0.00    +0.000 C 
ATOM     18  O   UNL     1      -8.756   4.077 134.668  0.00  0.00    +0.000 OA
ATOM     19  H   UNL     1      -8.533   5.387 132.714  0.00  0.00    +0.000 HD
ENDBRANCH   7  15
BRANCH   4  20
ATOM     20  C   UNL     1      -8.123   3.934 127.551  0.00  0.00    +0.000 C 
ATOM     21  O   UNL     1      -8.412   2.800 127.163  0.00  0.00    +0.000 OA
BRANCH  20  22
ATOM     22  O   UNL     1      -8.503   4.932 126.748  0.00  0.00    +0.000 OA
ATOM     23  H   UNL     1      -9.304   4.808 126.216  0.00  0.00    +0.000 HD
ENDBRANCH  20  22
ENDBRANCH   4  20
TORSDOF 4
ENDMDL
