MODEL 1
REMARK VINA RESULT:      -5.9      0.000      0.000
REMARK  Name = Diazolidinylurea
REMARK  9 active torsions:
REMARK  status: ('A' for Active; 'I' for Inactive)
REMARK    1  A    between atoms: O_1  and  C_2
REMARK    2  A    between atoms: C_2  and  N_3
REMARK    3  A    between atoms: N_6  and  C_7
REMARK    4  A    between atoms: N_6  and  C_9
REMARK    5  A    between atoms: C_7  and  O_8
REMARK    6  A    between atoms: N_10  and  C_11
REMARK    7  A    between atoms: C_11  and  O_12
REMARK    8  A    between atoms: N_15  and  C_16
REMARK    9  A    between atoms: C_16  and  O_17
REMARK                            x       y       z     vdW  Elec       q    Type
REMARK                         _______ _______ _______ _____ _____    ______ ____
ROOT
ATOM      1  C   UNL     1     -11.570   6.122 129.801  0.00  0.00    +0.000 C 
ATOM      2  N   UNL     1     -10.959   6.842 128.706  0.00  0.00    +0.000 N 
ATOM      3  C   UNL     1     -11.358   8.162 128.692  0.00  0.00    +0.000 C 
ATOM      4  O   UNL     1     -10.948   9.002 127.896  0.00  0.00    +0.000 OA
ATOM      5  N   UNL     1     -12.290   8.374 129.659  0.00  0.00    +0.000 N 
ATOM      6  C   UNL     1     -12.545   7.205 130.329  0.00  0.00    +0.000 C 
ATOM      7  O   UNL     1     -13.382   7.036 131.207  0.00  0.00    +0.000 OA
ENDROOT
BRANCH   1  11
ATOM      8  N   UNL     1      -9.655   3.656 131.766  0.00  0.00    +0.000 N 
ATOM      9  C   UNL     1     -10.447   4.185 130.788  0.00  0.00    +0.000 C 
ATOM     10  O   UNL     1     -10.997   3.451 129.970  0.00  0.00    +0.000 OA
ATOM     11  N   UNL     1     -10.660   5.554 130.814  0.00  0.00    +0.000 N 
ATOM     12  H   UNL     1      -8.894   4.225 132.118  0.00  0.00    +0.000 HD
BRANCH   8  13
ATOM     13  C   UNL     1      -9.414   2.249 131.825  0.00  0.00    +0.000 C 
BRANCH  13  14
ATOM     14  O   UNL     1     -10.653   1.648 132.128  0.00  0.00    +0.000 OA
ATOM     15  H   UNL     1     -10.603   1.386 133.065  0.00  0.00    +0.000 HD
ENDBRANCH  13  14
ENDBRANCH   8  13
BRANCH  11  16
ATOM     16  C   UNL     1      -9.973   6.536 131.641  0.00  0.00    +0.000 C 
BRANCH  16  17
ATOM     17  O   UNL     1     -10.285   6.408 133.011  0.00  0.00    +0.000 OA
ATOM     18  H   UNL     1     -10.290   5.448 133.183  0.00  0.00    +0.000 HD
ENDBRANCH  16  17
ENDBRANCH  11  16
ENDBRANCH   1  11
BRANCH   2  19
ATOM     19  C   UNL     1      -9.960   6.235 127.869  0.00  0.00    +0.000 C 
BRANCH  19  20
ATOM     20  O   UNL     1     -10.173   6.475 126.496  0.00  0.00    +0.000 OA
ATOM     21  H   UNL     1      -9.815   5.710 126.008  0.00  0.00    +0.000 HD
ENDBRANCH  19  20
ENDBRANCH   2  19
BRANCH   5  22
ATOM     22  C   UNL     1     -12.923   9.625 129.993  0.00  0.00    +0.000 C 
BRANCH  22  23
ATOM     23  O   UNL     1     -13.138  10.460 128.871  0.00  0.00    +0.000 OA
ATOM     24  H   UNL     1     -12.520  10.162 128.177  0.00  0.00    +0.000 HD
ENDBRANCH  22  23
ENDBRANCH   5  22
TORSDOF 9
ENDMDL
MODEL 2
REMARK VINA RESULT:      -5.6      8.793     10.686
REMARK  Name = Diazolidinylurea
REMARK  9 active torsions:
REMARK  status: ('A' for Active; 'I' for Inactive)
REMARK    1  A    between atoms: O_1  and  C_2
REMARK    2  A    between atoms: C_2  and  N_3
REMARK    3  A    between atoms: N_6  and  C_7
REMARK    4  A    between atoms: N_6  and  C_9
REMARK    5  A    between atoms: C_7  and  O_8
REMARK    6  A    between atoms: N_10  and  C_11
REMARK    7  A    between atoms: C_11  and  O_12
REMARK    8  A    between atoms: N_15  and  C_16
REMARK    9  A    between atoms: C_16  and  O_17
REMARK                            x       y       z     vdW  Elec       q    Type
REMARK                         _______ _______ _______ _____ _____    ______ ____
ROOT
ATOM      1  C   UNL     1      -7.185  -0.488 124.440  0.00  0.00    +0.000 C 
ATOM      2  N   UNL     1      -8.447  -0.506 125.147  0.00  0.00    +0.000 N 
ATOM      3  C   UNL     1      -9.303   0.463 124.664  0.00  0.00    +0.000 C 
ATOM      4  O   UNL     1     -10.455   0.628 125.057  0.00  0.00    +0.000 OA
ATOM      5  N   UNL     1      -8.669   1.217 123.728  0.00  0.00    +0.000 N 
ATOM      6  C   UNL     1      -7.377   0.781 123.572  0.00  0.00    +0.000 C 
ATOM      7  O   UNL     1      -6.518   1.288 122.861  0.00  0.00    +0.000 OA
ENDROOT
BRANCH   1  11
ATOM      8  N   UNL     1      -5.387  -3.546 123.426  0.00  0.00    +0.000 N 
ATOM      9  C   UNL     1      -5.757  -2.454 124.158  0.00  0.00    +0.000 C 
ATOM     10  O   UNL     1      -5.109  -2.124 125.149  0.00  0.00    +0.000 OA
ATOM     11  N   UNL     1      -6.826  -1.707 123.691  0.00  0.00    +0.000 N 
ATOM     12  H   UNL     1      -6.114  -4.055 122.937  0.00  0.00    +0.000 HD
BRANCH   8  13
ATOM     13  C   UNL     1      -4.275  -4.347 123.827  0.00  0.00    +0.000 C 
BRANCH  13  14
ATOM     14  O   UNL     1      -4.288  -5.487 122.996  0.00  0.00    +0.000 OA
ATOM     15  H   UNL     1      -5.193  -5.549 122.640  0.00  0.00    +0.000 HD
ENDBRANCH  13  14
ENDBRANCH   8  13
BRANCH  11  16
ATOM     16  C   UNL     1      -7.744  -2.061 122.617  0.00  0.00    +0.000 C 
BRANCH  16  17
ATOM     17  O   UNL     1      -8.641  -3.087 122.983  0.00  0.00    +0.000 OA
ATOM     18  H   UNL     1      -9.135  -2.734 123.746  0.00  0.00    +0.000 HD
ENDBRANCH  16  17
ENDBRANCH  11  16
ENDBRANCH   1  11
BRANCH   2  19
ATOM     19  C   UNL     1      -8.755  -1.524 126.115  0.00  0.00    +0.000 C 
BRANCH  19  20
ATOM     20  O   UNL     1      -9.805  -2.372 125.705  0.00  0.00    +0.000 OA
ATOM     21  H   UNL     1     -10.319  -1.892 125.030  0.00  0.00    +0.000 HD
ENDBRANCH  19  20
ENDBRANCH   2  19
BRANCH   5  22
ATOM     22  C   UNL     1      -9.230   2.299 122.960  0.00  0.00    +0.000 C 
BRANCH  22  23
ATOM     23  O   UNL     1      -8.474   3.492 123.042  0.00  0.00    +0.000 OA
ATOM     24  H   UNL     1      -8.116   3.537 123.949  0.00  0.00    +0.000 HD
ENDBRANCH  22  23
ENDBRANCH   5  22
TORSDOF 9
ENDMDL
MODEL 3
REMARK VINA RESULT:      -5.5      2.739      4.263
REMARK  Name = Diazolidinylurea
REMARK  9 active torsions:
REMARK  status: ('A' for Active; 'I' for Inactive)
REMARK    1  A    between atoms: O_1  and  C_2
REMARK    2  A    between atoms: C_2  and  N_3
REMARK    3  A    between atoms: N_6  and  C_7
REMARK    4  A    between atoms: N_6  and  C_9
REMARK    5  A    between atoms: C_7  and  O_8
REMARK    6  A    between atoms: N_10  and  C_11
REMARK    7  A    between atoms: C_11  and  O_12
REMARK    8  A    between atoms: N_15  and  C_16
REMARK    9  A    between atoms: C_16  and  O_17
REMARK                            x       y       z     vdW  Elec       q    Type
REMARK                         _______ _______ _______ _____ _____    ______ ____
ROOT
ATOM      1  C   UNL     1      -9.358   6.947 130.686  0.00  0.00    +0.000 C 
ATOM      2  N   UNL     1     -10.429   6.535 131.567  0.00  0.00    +0.000 N 
ATOM      3  C   UNL     1     -11.663   6.838 131.028  0.00  0.00    +0.000 C 
ATOM      4  O   UNL     1     -12.736   6.551 131.551  0.00  0.00    +0.000 OA
ATOM      5  N   UNL     1     -11.505   7.527 129.867  0.00  0.00    +0.000 N 
ATOM      6  C   UNL     1     -10.170   7.711 129.610  0.00  0.00    +0.000 C 
ATOM      7  O   UNL     1      -9.689   8.352 128.683  0.00  0.00    +0.000 OA
ENDROOT
BRANCH   1  11
ATOM      8  N   UNL     1      -6.377   4.833 130.181  0.00  0.00    +0.000 N 
ATOM      9  C   UNL     1      -7.209   5.778 130.710  0.00  0.00    +0.000 C 
ATOM     10  O   UNL     1      -6.805   6.541 131.584  0.00  0.00    +0.000 OA
ATOM     11  N   UNL     1      -8.479   5.883 130.165  0.00  0.00    +0.000 N 
ATOM     12  H   UNL     1      -6.793   3.976 129.836  0.00  0.00    +0.000 HD
BRANCH   8  13
ATOM     13  C   UNL     1      -5.042   4.686 130.668  0.00  0.00    +0.000 C 
BRANCH  13  14
ATOM     14  O   UNL     1      -4.329   5.815 130.216  0.00  0.00    +0.000 OA
ATOM     15  H   UNL     1      -4.974   6.544 130.182  0.00  0.00    +0.000 HD
ENDBRANCH  13  14
ENDBRANCH   8  13
BRANCH  11  16
ATOM     16  C   UNL     1      -9.113   4.966 129.228  0.00  0.00    +0.000 C 
BRANCH  16  17
ATOM     17  O   UNL     1      -8.556   5.039 127.934  0.00  0.00    +0.000 OA
ATOM     18  H   UNL     1      -8.647   5.973 127.668  0.00  0.00    +0.000 HD
ENDBRANCH  16  17
ENDBRANCH  11  16
ENDBRANCH   1  11
BRANCH   2  19
ATOM     19  C   UNL     1     -10.173   5.780 132.764  0.00  0.00    +0.000 C 
BRANCH  19  20
ATOM     20  O   UNL     1      -9.200   6.377 133.592  0.00  0.00    +0.000 OA
ATOM     21  H   UNL     1      -8.335   6.004 133.339  0.00  0.00    +0.000 HD
ENDBRANCH  19  20
ENDBRANCH   2  19
BRANCH   5  22
ATOM     22  C   UNL     1     -12.546   7.988 128.984  0.00  0.00    +0.000 C 
BRANCH  22  23
ATOM     23  O   UNL     1     -12.400   9.345 128.610  0.00  0.00    +0.000 OA
ATOM     24  H   UNL     1     -13.153   9.827 128.999  0.00  0.00    +0.000 HD
ENDBRANCH  22  23
ENDBRANCH   5  22
TORSDOF 9
ENDMDL
MODEL 4
REMARK VINA RESULT:      -5.4      2.165      5.644
REMARK  Name = Diazolidinylurea
REMARK  9 active torsions:
REMARK  status: ('A' for Active; 'I' for Inactive)
REMARK    1  A    between atoms: O_1  and  C_2
REMARK    2  A    between atoms: C_2  and  N_3
REMARK    3  A    between atoms: N_6  and  C_7
REMARK    4  A    between atoms: N_6  and  C_9
REMARK    5  A    between atoms: C_7  and  O_8
REMARK    6  A    between atoms: N_10  and  C_11
REMARK    7  A    between atoms: C_11  and  O_12
REMARK    8  A    between atoms: N_15  and  C_16
REMARK    9  A    between atoms: C_16  and  O_17
REMARK                            x       y       z     vdW  Elec       q    Type
REMARK                         _______ _______ _______ _____ _____    ______ ____
ROOT
ATOM      1  C   UNL     1      -8.839   5.368 130.482  0.00  0.00    +0.000 C 
ATOM      2  N   UNL     1      -9.299   4.116 131.040  0.00  0.00    +0.000 N 
ATOM      3  C   UNL     1      -8.931   3.994 132.364  0.00  0.00    +0.000 C 
ATOM      4  O   UNL     1      -9.239   3.049 133.085  0.00  0.00    +0.000 OA
ATOM      5  N   UNL     1      -8.157   5.050 132.728  0.00  0.00    +0.000 N 
ATOM      6  C   UNL     1      -7.977   5.891 131.659  0.00  0.00    +0.000 C 
ATOM      7  O   UNL     1      -7.275   6.894 131.631  0.00  0.00    +0.000 OA
ENDROOT
BRANCH   1  11
ATOM      8  N   UNL     1     -10.895   7.415 128.203  0.00  0.00    +0.000 N 
ATOM      9  C   UNL     1      -9.978   6.501 128.637  0.00  0.00    +0.000 C 
ATOM     10  O   UNL     1      -9.234   5.940 127.835  0.00  0.00    +0.000 OA
ATOM     11  N   UNL     1      -9.875   6.304 130.004  0.00  0.00    +0.000 N 
ATOM     12  H   UNL     1     -11.748   7.521 128.740  0.00  0.00    +0.000 HD
BRANCH   8  13
ATOM     13  C   UNL     1     -11.038   7.697 126.810  0.00  0.00    +0.000 C 
BRANCH  13  14
ATOM     14  O   UNL     1     -11.688   6.581 126.245  0.00  0.00    +0.000 OA
ATOM     15  H   UNL     1     -11.832   6.800 125.307  0.00  0.00    +0.000 HD
ENDBRANCH  13  14
ENDBRANCH   8  13
BRANCH  11  16
ATOM     16  C   UNL     1     -10.774   6.804 131.035  0.00  0.00    +0.000 C 
BRANCH  16  17
ATOM     17  O   UNL     1     -12.067   6.247 130.948  0.00  0.00    +0.000 OA
ATOM     18  H   UNL     1     -12.041   5.451 131.511  0.00  0.00    +0.000 HD
ENDBRANCH  16  17
ENDBRANCH  11  16
ENDBRANCH   1  11
BRANCH   2  19
ATOM     19  C   UNL     1     -10.150   3.226 130.296  0.00  0.00    +0.000 C 
BRANCH  19  20
ATOM     20  O   UNL     1     -11.500   3.295 130.696  0.00  0.00    +0.000 OA
ATOM     21  H   UNL     1     -11.561   3.971 131.397  0.00  0.00    +0.000 HD
ENDBRANCH  19  20
ENDBRANCH   2  19
BRANCH   5  22
ATOM     22  C   UNL     1      -7.608   5.313 134.034  0.00  0.00    +0.000 C 
BRANCH  22  23
ATOM     23  O   UNL     1      -8.448   4.883 135.089  0.00  0.00    +0.000 OA
ATOM     24  H   UNL     1      -8.948   5.666 135.388  0.00  0.00    +0.000 HD
ENDBRANCH  22  23
ENDBRANCH   5  22
TORSDOF 9
ENDMDL
MODEL 5
REMARK VINA RESULT:      -5.4      8.446      9.222
REMARK  Name = Diazolidinylurea
REMARK  9 active torsions:
REMARK  status: ('A' for Active; 'I' for Inactive)
REMARK    1  A    between atoms: O_1  and  C_2
REMARK    2  A    between atoms: C_2  and  N_3
REMARK    3  A    between atoms: N_6  and  C_7
REMARK    4  A    between atoms: N_6  and  C_9
REMARK    5  A    between atoms: C_7  and  O_8
REMARK    6  A    between atoms: N_10  and  C_11
REMARK    7  A    between atoms: C_11  and  O_12
REMARK    8  A    between atoms: N_15  and  C_16
REMARK    9  A    between atoms: C_16  and  O_17
REMARK                            x       y       z     vdW  Elec       q    Type
REMARK                         _______ _______ _______ _____ _____    ______ ____
ROOT
ATOM      1  C   UNL     1      -8.132   1.337 124.334  0.00  0.00    +0.000 C 
ATOM      2  N   UNL     1      -8.951   1.843 123.255  0.00  0.00    +0.000 N 
ATOM      3  C   UNL     1      -8.268   2.779 122.506  0.00  0.00    +0.000 C 
ATOM      4  O   UNL     1      -8.718   3.326 121.503  0.00  0.00    +0.000 OA
ATOM      5  N   UNL     1      -7.054   3.023 123.066  0.00  0.00    +0.000 N 
ATOM      6  C   UNL     1      -6.902   2.271 124.203  0.00  0.00    +0.000 C 
ATOM      7  O   UNL     1      -5.956   2.307 124.980  0.00  0.00    +0.000 OA
ENDROOT
BRANCH   1  11
ATOM      8  N   UNL     1      -8.210  -2.249 125.200  0.00  0.00    +0.000 N 
ATOM      9  C   UNL     1      -8.541  -0.924 125.174  0.00  0.00    +0.000 C 
ATOM     10  O   UNL     1      -9.395  -0.483 125.941  0.00  0.00    +0.000 OA
ATOM     11  N   UNL     1      -7.825  -0.106 124.315  0.00  0.00    +0.000 N 
ATOM     12  H   UNL     1      -7.885  -2.671 124.338  0.00  0.00    +0.000 HD
BRANCH   8  13
ATOM     13  C   UNL     1      -8.882  -3.149 126.081  0.00  0.00    +0.000 C 
BRANCH  13  14
ATOM     14  O   UNL     1     -10.245  -3.114 125.719  0.00  0.00    +0.000 OA
ATOM     15  H   UNL     1     -10.523  -4.043 125.633  0.00  0.00    +0.000 HD
ENDBRANCH  13  14
ENDBRANCH   8  13
BRANCH  11  16
ATOM     16  C   UNL     1      -6.891  -0.522 123.278  0.00  0.00    +0.000 C 
BRANCH  16  17
ATOM     17  O   UNL     1      -7.345  -1.646 122.557  0.00  0.00    +0.000 OA
ATOM     18  H   UNL     1      -6.722  -1.740 121.812  0.00  0.00    +0.000 HD
ENDBRANCH  16  17
ENDBRANCH  11  16
ENDBRANCH   1  11
BRANCH   2  19
ATOM     19  C   UNL     1     -10.247   1.289 122.968  0.00  0.00    +0.000 C 
BRANCH  19  20
ATOM     20  O   UNL     1     -11.123   1.340 124.072  0.00  0.00    +0.000 OA
ATOM     21  H   UNL     1     -12.017   1.133 123.743  0.00  0.00    +0.000 HD
ENDBRANCH  19  20
ENDBRANCH   2  19
BRANCH   5  22
ATOM     22  C   UNL     1      -6.029   3.903 122.565  0.00  0.00    +0.000 C 
BRANCH  22  23
ATOM     23  O   UNL     1      -5.714   4.957 123.456  0.00  0.00    +0.000 OA
ATOM     24  H   UNL     1      -6.385   5.651 123.319  0.00  0.00    +0.000 HD
ENDBRANCH  22  23
ENDBRANCH   5  22
TORSDOF 9
ENDMDL
MODEL 6
REMARK VINA RESULT:      -5.2      7.314      9.729
REMARK  Name = Diazolidinylurea
REMARK  9 active torsions:
REMARK  status: ('A' for Active; 'I' for Inactive)
REMARK    1  A    between atoms: O_1  and  C_2
REMARK    2  A    between atoms: C_2  and  N_3
REMARK    3  A    between atoms: N_6  and  C_7
REMARK    4  A    between atoms: N_6  and  C_9
REMARK    5  A    between atoms: C_7  and  O_8
REMARK    6  A    between atoms: N_10  and  C_11
REMARK    7  A    between atoms: C_11  and  O_12
REMARK    8  A    between atoms: N_15  and  C_16
REMARK    9  A    between atoms: C_16  and  O_17
REMARK                            x       y       z     vdW  Elec       q    Type
REMARK                         _______ _______ _______ _____ _____    ______ ____
ROOT
ATOM      1  C   UNL     1      -7.382   0.984 123.661  0.00  0.00    +0.000 C 
ATOM      2  N   UNL     1      -8.722   1.122 123.135  0.00  0.00    +0.000 N 
ATOM      3  C   UNL     1      -9.311  -0.111 122.940  0.00  0.00    +0.000 C 
ATOM      4  O   UNL     1     -10.463  -0.273 122.548  0.00  0.00    +0.000 OA
ATOM      5  N   UNL     1      -8.417  -1.099 123.208  0.00  0.00    +0.000 N 
ATOM      6  C   UNL     1      -7.212  -0.554 123.574  0.00  0.00    +0.000 C 
ATOM      7  O   UNL     1      -6.179  -1.167 123.812  0.00  0.00    +0.000 OA
ENDROOT
BRANCH   1  11
ATOM      8  N   UNL     1      -6.061   3.208 126.292  0.00  0.00    +0.000 N 
ATOM      9  C   UNL     1      -6.348   2.710 125.053  0.00  0.00    +0.000 C 
ATOM     10  O   UNL     1      -5.865   3.229 124.048  0.00  0.00    +0.000 OA
ATOM     11  N   UNL     1      -7.127   1.565 124.993  0.00  0.00    +0.000 N 
ATOM     12  H   UNL     1      -6.759   3.097 127.018  0.00  0.00    +0.000 HD
BRANCH   8  13
ATOM     13  C   UNL     1      -5.238   4.366 126.436  0.00  0.00    +0.000 C 
BRANCH  13  14
ATOM     14  O   UNL     1      -5.960   5.438 125.872  0.00  0.00    +0.000 OA
ATOM     15  H   UNL     1      -5.629   6.244 126.308  0.00  0.00    +0.000 HD
ENDBRANCH  13  14
ENDBRANCH   8  13
BRANCH  11  16
ATOM     16  C   UNL     1      -7.856   0.939 126.086  0.00  0.00    +0.000 C 
BRANCH  16  17
ATOM     17  O   UNL     1      -8.863   1.772 126.617  0.00  0.00    +0.000 OA
ATOM     18  H   UNL     1      -9.556   1.804 125.932  0.00  0.00    +0.000 HD
ENDBRANCH  16  17
ENDBRANCH  11  16
ENDBRANCH   1  11
BRANCH   2  19
ATOM     19  C   UNL     1      -9.349   2.409 122.997  0.00  0.00    +0.000 C 
BRANCH  19  20
ATOM     20  O   UNL     1      -8.497   3.378 122.430  0.00  0.00    +0.000 OA
ATOM     21  H   UNL     1      -7.596   3.004 122.424  0.00  0.00    +0.000 HD
ENDBRANCH  19  20
ENDBRANCH   2  19
BRANCH   5  22
ATOM     22  C   UNL     1      -8.656  -2.519 123.164  0.00  0.00    +0.000 C 
BRANCH  22  23
ATOM     23  O   UNL     1      -9.993  -2.870 123.466  0.00  0.00    +0.000 OA
ATOM     24  H   UNL     1      -9.954  -3.649 124.051  0.00  0.00    +0.000 HD
ENDBRANCH  22  23
ENDBRANCH   5  22
TORSDOF 9
ENDMDL
MODEL 7
REMARK VINA RESULT:      -4.8      2.828      5.991
REMARK  Name = Diazolidinylurea
REMARK  9 active torsions:
REMARK  status: ('A' for Active; 'I' for Inactive)
REMARK    1  A    between atoms: O_1  and  C_2
REMARK    2  A    between atoms: C_2  and  N_3
REMARK    3  A    between atoms: N_6  and  C_7
REMARK    4  A    between atoms: N_6  and  C_9
REMARK    5  A    between atoms: C_7  and  O_8
REMARK    6  A    between atoms: N_10  and  C_11
REMARK    7  A    between atoms: C_11  and  O_12
REMARK    8  A    between atoms: N_15  and  C_16
REMARK    9  A    between atoms: C_16  and  O_17
REMARK                            x       y       z     vdW  Elec       q    Type
REMARK                         _______ _______ _______ _____ _____    ______ ____
ROOT
ATOM      1  C   UNL     1      -9.167   4.363 129.789  0.00  0.00    +0.000 C 
ATOM      2  N   UNL     1      -8.485   3.544 130.767  0.00  0.00    +0.000 N 
ATOM      3  C   UNL     1      -7.195   3.260 130.368  0.00  0.00    +0.000 C 
ATOM      4  O   UNL     1      -6.387   2.625 131.039  0.00  0.00    +0.000 OA
ATOM      5  N   UNL     1      -6.977   3.754 129.121  0.00  0.00    +0.000 N 
ATOM      6  C   UNL     1      -8.113   4.365 128.653  0.00  0.00    +0.000 C 
ATOM      7  O   UNL     1      -8.274   4.849 127.540  0.00  0.00    +0.000 OA
ENDROOT
BRANCH   1  11
ATOM      8  N   UNL     1     -11.361   7.243 130.500  0.00  0.00    +0.000 N 
ATOM      9  C   UNL     1     -10.964   5.984 130.149  0.00  0.00    +0.000 C 
ATOM     10  O   UNL     1     -11.780   5.175 129.712  0.00  0.00    +0.000 OA
ATOM     11  N   UNL     1      -9.610   5.698 130.232  0.00  0.00    +0.000 N 
ATOM     12  H   UNL     1     -10.843   7.715 131.231  0.00  0.00    +0.000 HD
BRANCH   8  13
ATOM     13  C   UNL     1     -12.735   7.622 130.410  0.00  0.00    +0.000 C 
BRANCH  13  14
ATOM     14  O   UNL     1     -13.354   7.147 131.585  0.00  0.00    +0.000 OA
ATOM     15  H   UNL     1     -13.971   6.449 131.300  0.00  0.00    +0.000 HD
ENDBRANCH  13  14
ENDBRANCH   8  13
BRANCH  11  16
ATOM     16  C   UNL     1      -8.574   6.516 130.847  0.00  0.00    +0.000 C 
BRANCH  16  17
ATOM     17  O   UNL     1      -8.293   7.685 130.108  0.00  0.00    +0.000 OA
ATOM     18  H   UNL     1      -7.449   8.016 130.466  0.00  0.00    +0.000 HD
ENDBRANCH  16  17
ENDBRANCH  11  16
ENDBRANCH   1  11
BRANCH   2  19
ATOM     19  C   UNL     1      -9.085   3.228 132.036  0.00  0.00    +0.000 C 
BRANCH  19  20
ATOM     20  O   UNL     1     -10.365   2.651 131.911  0.00  0.00    +0.000 OA
ATOM     21  H   UNL     1     -10.853   3.170 131.244  0.00  0.00    +0.000 HD
ENDBRANCH  19  20
ENDBRANCH   2  19
BRANCH   5  22
ATOM     22  C   UNL     1      -5.748   3.703 128.371  0.00  0.00    +0.000 C 
BRANCH  22  23
ATOM     23  O   UNL     1      -5.164   2.414 128.346  0.00  0.00    +0.000 OA
ATOM     24  H   UNL     1      -4.282   2.496 128.756  0.00  0.00    +0.000 HD
ENDBRANCH  22  23
ENDBRANCH   5  22
TORSDOF 9
ENDMDL
MODEL 8
REMARK VINA RESULT:      -4.7      6.845      8.367
REMARK  Name = Diazolidinylurea
REMARK  9 active torsions:
REMARK  status: ('A' for Active; 'I' for Inactive)
REMARK    1  A    between atoms: O_1  and  C_2
REMARK    2  A    between atoms: C_2  and  N_3
REMARK    3  A    between atoms: N_6  and  C_7
REMARK    4  A    between atoms: N_6  and  C_9
REMARK    5  A    between atoms: C_7  and  O_8
REMARK    6  A    between atoms: N_10  and  C_11
REMARK    7  A    between atoms: C_11  and  O_12
REMARK    8  A    between atoms: N_15  and  C_16
REMARK    9  A    between atoms: C_16  and  O_17
REMARK                            x       y       z     vdW  Elec       q    Type
REMARK                         _______ _______ _______ _____ _____    ______ ____
ROOT
ATOM      1  C   UNL     1      -8.372   1.702 124.570  0.00  0.00    +0.000 C 
ATOM      2  N   UNL     1      -7.612   2.718 123.877  0.00  0.00    +0.000 N 
ATOM      3  C   UNL     1      -7.118   3.659 124.757  0.00  0.00    +0.000 C 
ATOM      4  O   UNL     1      -6.398   4.600 124.433  0.00  0.00    +0.000 OA
ATOM      5  N   UNL     1      -7.577   3.406 126.011  0.00  0.00    +0.000 N 
ATOM      6  C   UNL     1      -8.395   2.305 125.997  0.00  0.00    +0.000 C 
ATOM      7  O   UNL     1      -9.025   1.854 126.946  0.00  0.00    +0.000 OA
ENDROOT
BRANCH   1  11
ATOM      8  N   UNL     1      -8.203  -1.899 123.785  0.00  0.00    +0.000 N 
ATOM      9  C   UNL     1      -8.644  -0.607 123.807  0.00  0.00    +0.000 C 
ATOM     10  O   UNL     1      -9.725  -0.311 123.301  0.00  0.00    +0.000 OA
ATOM     11  N   UNL     1      -7.866   0.319 124.485  0.00  0.00    +0.000 N 
ATOM     12  H   UNL     1      -7.203  -2.057 123.777  0.00  0.00    +0.000 HD
BRANCH   8  13
ATOM     13  C   UNL     1      -8.966  -2.916 123.134  0.00  0.00    +0.000 C 
BRANCH  13  14
ATOM     14  O   UNL     1     -10.027  -3.235 124.007  0.00  0.00    +0.000 OA
ATOM     15  H   UNL     1      -9.756  -2.918 124.886  0.00  0.00    +0.000 HD
ENDBRANCH  13  14
ENDBRANCH   8  13
BRANCH  11  16
ATOM     16  C   UNL     1      -6.522   0.123 125.008  0.00  0.00    +0.000 C 
BRANCH  16  17
ATOM     17  O   UNL     1      -6.403  -1.052 125.779  0.00  0.00    +0.000 OA
ATOM     18  H   UNL     1      -6.254  -1.768 125.133  0.00  0.00    +0.000 HD
ENDBRANCH  16  17
ENDBRANCH  11  16
ENDBRANCH   1  11
BRANCH   2  19
ATOM     19  C   UNL     1      -7.324   2.617 122.471  0.00  0.00    +0.000 C 
BRANCH  19  20
ATOM     20  O   UNL     1      -7.457   3.846 121.793  0.00  0.00    +0.000 OA
ATOM     21  H   UNL     1      -8.033   3.690 121.021  0.00  0.00    +0.000 HD
ENDBRANCH  19  20
ENDBRANCH   2  19
BRANCH   5  22
ATOM     22  C   UNL     1      -7.258   4.133 127.213  0.00  0.00    +0.000 C 
BRANCH  22  23
ATOM     23  O   UNL     1      -8.378   4.780 127.788  0.00  0.00    +0.000 OA
ATOM     24  H   UNL     1      -8.095   5.108 128.663  0.00  0.00    +0.000 HD
ENDBRANCH  22  23
ENDBRANCH   5  22
TORSDOF 9
ENDMDL
MODEL 9
REMARK VINA RESULT:      -4.7      3.214      4.707
REMARK  Name = Diazolidinylurea
REMARK  9 active torsions:
REMARK  status: ('A' for Active; 'I' for Inactive)
REMARK    1  A    between atoms: O_1  and  C_2
REMARK    2  A    between atoms: C_2  and  N_3
REMARK    3  A    between atoms: N_6  and  C_7
REMARK    4  A    between atoms: N_6  and  C_9
REMARK    5  A    between atoms: C_7  and  O_8
REMARK    6  A    between atoms: N_10  and  C_11
REMARK    7  A    between atoms: C_11  and  O_12
REMARK    8  A    between atoms: N_15  and  C_16
REMARK    9  A    between atoms: C_16  and  O_17
REMARK                            x       y       z     vdW  Elec       q    Type
REMARK                         _______ _______ _______ _____ _____    ______ ____
ROOT
ATOM      1  C   UNL     1      -8.469   5.827 130.059  0.00  0.00    +0.000 C 
ATOM      2  N   UNL     1      -8.847   6.048 131.437  0.00  0.00    +0.000 N 
ATOM      3  C   UNL     1     -10.188   6.357 131.544  0.00  0.00    +0.000 C 
ATOM      4  O   UNL     1     -10.774   6.541 132.607  0.00  0.00    +0.000 OA
ATOM      5  N   UNL     1     -10.739   6.460 130.306  0.00  0.00    +0.000 N 
ATOM      6  C   UNL     1      -9.783   6.238 129.347  0.00  0.00    +0.000 C 
ATOM      7  O   UNL     1      -9.933   6.326 128.135  0.00  0.00    +0.000 OA
ENDROOT
BRANCH   1  11
ATOM      8  N   UNL     1      -6.172   3.134 129.019  0.00  0.00    +0.000 N 
ATOM      9  C   UNL     1      -6.621   4.366 129.400  0.00  0.00    +0.000 C 
ATOM     10  O   UNL     1      -5.862   5.333 129.389  0.00  0.00    +0.000 OA
ATOM     11  N   UNL     1      -7.965   4.485 129.714  0.00  0.00    +0.000 N 
ATOM     12  H   UNL     1      -6.613   2.322 129.435  0.00  0.00    +0.000 HD
BRANCH   8  13
ATOM     13  C   UNL     1      -4.807   2.940 128.650  0.00  0.00    +0.000 C 
BRANCH  13  14
ATOM     14  O   UNL     1      -4.643   3.565 127.396  0.00  0.00    +0.000 OA
ATOM     15  H   UNL     1      -4.951   2.921 126.733  0.00  0.00    +0.000 HD
ENDBRANCH  13  14
ENDBRANCH   8  13
BRANCH  11  16
ATOM     16  C   UNL     1      -8.927   3.405 129.887  0.00  0.00    +0.000 C 
BRANCH  16  17
ATOM     17  O   UNL     1      -9.132   2.663 128.705  0.00  0.00    +0.000 OA
ATOM     18  H   UNL     1      -8.280   2.225 128.526  0.00  0.00    +0.000 HD
ENDBRANCH  16  17
ENDBRANCH  11  16
ENDBRANCH   1  11
BRANCH   2  19
ATOM     19  C   UNL     1      -7.928   5.813 132.518  0.00  0.00    +0.000 C 
BRANCH  19  20
ATOM     20  O   UNL     1      -6.638   6.321 132.264  0.00  0.00    +0.000 OA
ATOM     21  H   UNL     1      -6.600   7.219 132.644  0.00  0.00    +0.000 HD
ENDBRANCH  19  20
ENDBRANCH   2  19
BRANCH   5  22
ATOM     22  C   UNL     1     -12.119   6.728 129.991  0.00  0.00    +0.000 C 
BRANCH  22  23
ATOM     23  O   UNL     1     -12.614   5.932 128.931  0.00  0.00    +0.000 OA
ATOM     24  H   UNL     1     -11.848   5.464 128.549  0.00  0.00    +0.000 HD
ENDBRANCH  22  23
ENDBRANCH   5  22
TORSDOF 9
ENDMDL
