MODEL 1
REMARK VINA RESULT:      -6.7      0.000      0.000
REMARK  Name = Diazoxide
REMARK  1 active torsions:
REMARK  status: ('A' for Active; 'I' for Inactive)
REMARK    1  A    between atoms: C_1  and  C_2
REMARK                            x       y       z     vdW  Elec       q    Type
REMARK                         _______ _______ _______ _____ _____    ______ ____
ROOT
ATOM      1  C   UNL     1      -8.868   4.039 133.885  0.00  0.00    +0.000 C 
ATOM      2  C   UNL     1      -9.219   4.948 132.725  0.00  0.00    +0.000 C 
ATOM      3  N   UNL     1      -8.278   5.142 131.869  0.00  0.00    +0.000 NA
ATOM      4  S   UNL     1      -8.502   6.106 130.598  0.00  0.00    +0.000 S 
ATOM      5  O   UNL     1      -7.678   7.288 130.759  0.00  0.00    +0.000 OA
ATOM      6  O   UNL     1      -8.424   5.308 129.388  0.00  0.00    +0.000 OA
ATOM      7  C   UNL     1     -10.155   6.693 130.653  0.00  0.00    +0.000 A 
ATOM      8  C   UNL     1     -10.967   6.309 131.714  0.00  0.00    +0.000 A 
ATOM      9  N   UNL     1     -10.493   5.464 132.717  0.00  0.00    +0.000 N 
ATOM     10  C   UNL     1     -12.274   6.809 131.735  0.00  0.00    +0.000 A 
ATOM     11  C   UNL     1     -12.727   7.663 130.718  0.00  0.00    +0.000 A 
ATOM     12  C   UNL     1     -11.882   8.024 129.669  0.00  0.00    +0.000 A 
ATOM     13 CL   UNL     1     -12.436   9.071 128.427  0.00  0.00    +0.000 Cl
ATOM     14  C   UNL     1     -10.585   7.540 129.629  0.00  0.00    +0.000 A 
ATOM     15  H   UNL     1     -11.134   5.217 133.464  0.00  0.00    +0.000 HD
ENDROOT
TORSDOF 0
ENDMDL
MODEL 2
REMARK VINA RESULT:      -6.3     10.845     11.715
REMARK  Name = Diazoxide
REMARK  1 active torsions:
REMARK  status: ('A' for Active; 'I' for Inactive)
REMARK    1  A    between atoms: C_1  and  C_2
REMARK                            x       y       z     vdW  Elec       q    Type
REMARK                         _______ _______ _______ _____ _____    ______ ____
ROOT
ATOM      1  C   UNL     1     -10.066   1.572 124.221  0.00  0.00    +0.000 C 
ATOM      2  C   UNL     1      -9.287   0.291 124.439  0.00  0.00    +0.000 C 
ATOM      3  N   UNL     1      -9.680  -0.435 125.426  0.00  0.00    +0.000 NA
ATOM      4  S   UNL     1      -8.928  -1.813 125.790  0.00  0.00    +0.000 S 
ATOM      5  O   UNL     1      -8.248  -1.650 127.059  0.00  0.00    +0.000 OA
ATOM      6  O   UNL     1      -9.846  -2.917 125.578  0.00  0.00    +0.000 OA
ATOM      7  C   UNL     1      -7.646  -2.053 124.615  0.00  0.00    +0.000 A 
ATOM      8  C   UNL     1      -7.447  -1.087 123.634  0.00  0.00    +0.000 A 
ATOM      9  N   UNL     1      -8.252   0.050 123.568  0.00  0.00    +0.000 N 
ATOM     10  C   UNL     1      -6.407  -1.302 122.724  0.00  0.00    +0.000 A 
ATOM     11  C   UNL     1      -5.607  -2.451 122.814  0.00  0.00    +0.000 A 
ATOM     12  C   UNL     1      -5.839  -3.398 123.812  0.00  0.00    +0.000 A 
ATOM     13 CL   UNL     1      -4.858  -4.802 123.924  0.00  0.00    +0.000 Cl
ATOM     14  C   UNL     1      -6.864  -3.205 124.723  0.00  0.00    +0.000 A 
ATOM     15  H   UNL     1      -8.059   0.718 122.828  0.00  0.00    +0.000 HD
ENDROOT
TORSDOF 0
ENDMDL
MODEL 3
REMARK VINA RESULT:      -6.2      3.503      4.975
REMARK  Name = Diazoxide
REMARK  1 active torsions:
REMARK  status: ('A' for Active; 'I' for Inactive)
REMARK    1  A    between atoms: C_1  and  C_2
REMARK                            x       y       z     vdW  Elec       q    Type
REMARK                         _______ _______ _______ _____ _____    ______ ____
ROOT
ATOM      1  C   UNL     1     -10.663   8.485 127.829  0.00  0.00    +0.000 C 
ATOM      2  C   UNL     1     -10.523   7.574 129.031  0.00  0.00    +0.000 C 
ATOM      3  N   UNL     1     -11.575   6.900 129.341  0.00  0.00    +0.000 NA
ATOM      4  S   UNL     1     -11.577   5.910 130.612  0.00  0.00    +0.000 S 
ATOM      5  O   UNL     1     -12.454   6.459 131.627  0.00  0.00    +0.000 OA
ATOM      6  O   UNL     1     -11.749   4.547 130.142  0.00  0.00    +0.000 OA
ATOM      7  C   UNL     1      -9.975   5.948 131.327  0.00  0.00    +0.000 A 
ATOM      8  C   UNL     1      -9.012   6.782 130.770  0.00  0.00    +0.000 A 
ATOM      9  N   UNL     1      -9.299   7.571 129.656  0.00  0.00    +0.000 N 
ATOM     10  C   UNL     1      -7.751   6.800 131.375  0.00  0.00    +0.000 A 
ATOM     11  C   UNL     1      -7.487   6.002 132.498  0.00  0.00    +0.000 A 
ATOM     12  C   UNL     1      -8.480   5.176 133.027  0.00  0.00    +0.000 A 
ATOM     13 CL   UNL     1      -8.158   4.202 134.404  0.00  0.00    +0.000 Cl
ATOM     14  C   UNL     1      -9.735   5.143 132.444  0.00  0.00    +0.000 A 
ATOM     15  H   UNL     1      -8.554   8.157 129.293  0.00  0.00    +0.000 HD
ENDROOT
TORSDOF 0
ENDMDL
MODEL 4
REMARK VINA RESULT:      -5.9      3.556      4.942
REMARK  Name = Diazoxide
REMARK  1 active torsions:
REMARK  status: ('A' for Active; 'I' for Inactive)
REMARK    1  A    between atoms: C_1  and  C_2
REMARK                            x       y       z     vdW  Elec       q    Type
REMARK                         _______ _______ _______ _____ _____    ______ ____
ROOT
ATOM      1  C   UNL     1     -13.790  10.539 129.240  0.00  0.00    +0.000 C 
ATOM      2  C   UNL     1     -12.940   9.285 129.225  0.00  0.00    +0.000 C 
ATOM      3  N   UNL     1     -12.477   8.943 128.074  0.00  0.00    +0.000 NA
ATOM      4  S   UNL     1     -11.578   7.617 127.905  0.00  0.00    +0.000 S 
ATOM      5  O   UNL     1     -12.327   6.640 127.141  0.00  0.00    +0.000 OA
ATOM      6  O   UNL     1     -10.241   8.008 127.498  0.00  0.00    +0.000 OA
ATOM      7  C   UNL     1     -11.379   6.896 129.494  0.00  0.00    +0.000 A 
ATOM      8  C   UNL     1     -12.001   7.495 130.584  0.00  0.00    +0.000 A 
ATOM      9  N   UNL     1     -12.761   8.654 130.433  0.00  0.00    +0.000 N 
ATOM     10  C   UNL     1     -11.835   6.885 131.831  0.00  0.00    +0.000 A 
ATOM     11  C   UNL     1     -11.069   5.716 131.958  0.00  0.00    +0.000 A 
ATOM     12  C   UNL     1     -10.460   5.146 130.839  0.00  0.00    +0.000 A 
ATOM     13 CL   UNL     1      -9.526   3.713 130.994  0.00  0.00    +0.000 Cl
ATOM     14  C   UNL     1     -10.611   5.734 129.595  0.00  0.00    +0.000 A 
ATOM     15  H   UNL     1     -13.188   9.045 131.266  0.00  0.00    +0.000 HD
ENDROOT
TORSDOF 0
ENDMDL
MODEL 5
REMARK VINA RESULT:      -5.7     10.240     11.189
REMARK  Name = Diazoxide
REMARK  1 active torsions:
REMARK  status: ('A' for Active; 'I' for Inactive)
REMARK    1  A    between atoms: C_1  and  C_2
REMARK                            x       y       z     vdW  Elec       q    Type
REMARK                         _______ _______ _______ _____ _____    ______ ____
ROOT
ATOM      1  C   UNL     1      -7.346   3.527 122.412  0.00  0.00    +0.000 C 
ATOM      2  C   UNL     1      -7.862   2.174 122.857  0.00  0.00    +0.000 C 
ATOM      3  N   UNL     1      -9.142   2.071 122.945  0.00  0.00    +0.000 NA
ATOM      4  S   UNL     1      -9.829   0.697 123.430  0.00  0.00    +0.000 S 
ATOM      5  O   UNL     1     -10.434   0.912 124.730  0.00  0.00    +0.000 OA
ATOM      6  O   UNL     1     -10.607   0.151 122.333  0.00  0.00    +0.000 OA
ATOM      7  C   UNL     1      -8.552  -0.474 123.712  0.00  0.00    +0.000 A 
ATOM      8  C   UNL     1      -7.231  -0.081 123.529  0.00  0.00    +0.000 A 
ATOM      9  N   UNL     1      -6.914   1.214 123.119  0.00  0.00    +0.000 N 
ATOM     10  C   UNL     1      -6.238  -1.034 123.778  0.00  0.00    +0.000 A 
ATOM     11  C   UNL     1      -6.581  -2.329 124.197  0.00  0.00    +0.000 A 
ATOM     12  C   UNL     1      -7.918  -2.685 124.368  0.00  0.00    +0.000 A 
ATOM     13 CL   UNL     1      -8.338  -4.268 124.883  0.00  0.00    +0.000 Cl
ATOM     14  C   UNL     1      -8.917  -1.757 124.126  0.00  0.00    +0.000 A 
ATOM     15  H   UNL     1      -5.932   1.440 123.000  0.00  0.00    +0.000 HD
ENDROOT
TORSDOF 0
ENDMDL
MODEL 6
REMARK VINA RESULT:      -5.6      9.618     10.113
REMARK  Name = Diazoxide
REMARK  1 active torsions:
REMARK  status: ('A' for Active; 'I' for Inactive)
REMARK    1  A    between atoms: C_1  and  C_2
REMARK                            x       y       z     vdW  Elec       q    Type
REMARK                         _______ _______ _______ _____ _____    ______ ____
ROOT
ATOM      1  C   UNL     1      -8.685  -3.931 127.705  0.00  0.00    +0.000 C 
ATOM      2  C   UNL     1      -8.738  -3.009 126.504  0.00  0.00    +0.000 C 
ATOM      3  N   UNL     1      -8.681  -3.590 125.356  0.00  0.00    +0.000 NA
ATOM      4  S   UNL     1      -8.701  -2.731 123.993  0.00  0.00    +0.000 S 
ATOM      5  O   UNL     1      -7.404  -2.838 123.357  0.00  0.00    +0.000 OA
ATOM      6  O   UNL     1      -9.914  -3.046 123.261  0.00  0.00    +0.000 OA
ATOM      7  C   UNL     1      -8.857  -1.037 124.427  0.00  0.00    +0.000 A 
ATOM      8  C   UNL     1      -8.901  -0.691 125.773  0.00  0.00    +0.000 A 
ATOM      9  N   UNL     1      -8.836  -1.664 126.770  0.00  0.00    +0.000 N 
ATOM     10  C   UNL     1      -9.008   0.669 126.082  0.00  0.00    +0.000 A 
ATOM     11  C   UNL     1      -9.066   1.630 125.062  0.00  0.00    +0.000 A 
ATOM     12  C   UNL     1      -9.020   1.243 123.723  0.00  0.00    +0.000 A 
ATOM     13 CL   UNL     1      -9.088   2.419 122.474  0.00  0.00    +0.000 Cl
ATOM     14  C   UNL     1      -8.914  -0.098 123.394  0.00  0.00    +0.000 A 
ATOM     15  H   UNL     1      -8.875  -1.350 127.734  0.00  0.00    +0.000 HD
ENDROOT
TORSDOF 0
ENDMDL
MODEL 7
REMARK VINA RESULT:      -5.6      3.036      4.839
REMARK  Name = Diazoxide
REMARK  1 active torsions:
REMARK  status: ('A' for Active; 'I' for Inactive)
REMARK    1  A    between atoms: C_1  and  C_2
REMARK                            x       y       z     vdW  Elec       q    Type
REMARK                         _______ _______ _______ _____ _____    ______ ____
ROOT
ATOM      1  C   UNL     1     -12.371   7.047 131.517  0.00  0.00    +0.000 C 
ATOM      2  C   UNL     1     -10.977   6.454 131.551  0.00  0.00    +0.000 C 
ATOM      3  N   UNL     1     -10.190   6.836 130.607  0.00  0.00    +0.000 NA
ATOM      4  S   UNL     1      -8.686   6.267 130.504  0.00  0.00    +0.000 S 
ATOM      5  O   UNL     1      -8.586   5.425 129.329  0.00  0.00    +0.000 OA
ATOM      6  O   UNL     1      -7.757   7.363 130.712  0.00  0.00    +0.000 OA
ATOM      7  C   UNL     1      -8.426   5.185 131.861  0.00  0.00    +0.000 A 
ATOM      8  C   UNL     1      -9.474   4.956 132.746  0.00  0.00    +0.000 A 
ATOM      9  N   UNL     1     -10.711   5.578 132.575  0.00  0.00    +0.000 N 
ATOM     10  C   UNL     1      -9.238   4.075 133.807  0.00  0.00    +0.000 A 
ATOM     11  C   UNL     1      -7.987   3.456 133.954  0.00  0.00    +0.000 A 
ATOM     12  C   UNL     1      -6.960   3.713 133.046  0.00  0.00    +0.000 A 
ATOM     13 CL   UNL     1      -5.431   2.953 133.225  0.00  0.00    +0.000 Cl
ATOM     14  C   UNL     1      -7.173   4.582 131.989  0.00  0.00    +0.000 A 
ATOM     15  H   UNL     1     -11.436   5.373 133.255  0.00  0.00    +0.000 HD
ENDROOT
TORSDOF 0
ENDMDL
MODEL 8
REMARK VINA RESULT:      -5.6      9.438     10.497
REMARK  Name = Diazoxide
REMARK  1 active torsions:
REMARK  status: ('A' for Active; 'I' for Inactive)
REMARK    1  A    between atoms: C_1  and  C_2
REMARK                            x       y       z     vdW  Elec       q    Type
REMARK                         _______ _______ _______ _____ _____    ______ ____
ROOT
ATOM      1  C   UNL     1      -9.490  -3.203 123.295  0.00  0.00    +0.000 C 
ATOM      2  C   UNL     1      -8.967  -2.593 124.579  0.00  0.00    +0.000 C 
ATOM      3  N   UNL     1      -8.499  -1.399 124.474  0.00  0.00    +0.000 NA
ATOM      4  S   UNL     1      -7.887  -0.636 125.754  0.00  0.00    +0.000 S 
ATOM      5  O   UNL     1      -6.457  -0.487 125.568  0.00  0.00    +0.000 OA
ATOM      6  O   UNL     1      -8.719   0.515 126.054  0.00  0.00    +0.000 OA
ATOM      7  C   UNL     1      -8.056  -1.695 127.144  0.00  0.00    +0.000 A 
ATOM      8  C   UNL     1      -8.614  -2.955 126.961  0.00  0.00    +0.000 A 
ATOM      9  N   UNL     1      -9.047  -3.377 125.705  0.00  0.00    +0.000 N 
ATOM     10  C   UNL     1      -8.719  -3.779 128.087  0.00  0.00    +0.000 A 
ATOM     11  C   UNL     1      -8.272  -3.335 129.341  0.00  0.00    +0.000 A 
ATOM     12  C   UNL     1      -7.718  -2.063 129.483  0.00  0.00    +0.000 A 
ATOM     13 CL   UNL     1      -7.168  -1.520 131.016  0.00  0.00    +0.000 Cl
ATOM     14  C   UNL     1      -7.606  -1.231 128.382  0.00  0.00    +0.000 A 
ATOM     15  H   UNL     1      -9.448  -4.307 125.635  0.00  0.00    +0.000 HD
ENDROOT
TORSDOF 0
ENDMDL
MODEL 9
REMARK VINA RESULT:      -5.5      8.744      9.737
REMARK  Name = Diazoxide
REMARK  1 active torsions:
REMARK  status: ('A' for Active; 'I' for Inactive)
REMARK    1  A    between atoms: C_1  and  C_2
REMARK                            x       y       z     vdW  Elec       q    Type
REMARK                         _______ _______ _______ _____ _____    ______ ____
ROOT
ATOM      1  C   UNL     1      -8.897   3.745 120.575  0.00  0.00    +0.000 C 
ATOM      2  C   UNL     1      -8.364   3.270 121.910  0.00  0.00    +0.000 C 
ATOM      3  N   UNL     1      -9.055   2.348 122.486  0.00  0.00    +0.000 NA
ATOM      4  S   UNL     1      -8.619   1.765 123.923  0.00  0.00    +0.000 S 
ATOM      5  O   UNL     1      -9.600   2.174 124.908  0.00  0.00    +0.000 OA
ATOM      6  O   UNL     1      -8.262   0.366 123.770  0.00  0.00    +0.000 OA
ATOM      7  C   UNL     1      -7.132   2.566 124.401  0.00  0.00    +0.000 A 
ATOM      8  C   UNL     1      -6.597   3.539 123.564  0.00  0.00    +0.000 A 
ATOM      9  N   UNL     1      -7.213   3.872 122.359  0.00  0.00    +0.000 N 
ATOM     10  C   UNL     1      -5.420   4.169 123.984  0.00  0.00    +0.000 A 
ATOM     11  C   UNL     1      -4.821   3.821 125.205  0.00  0.00    +0.000 A 
ATOM     12  C   UNL     1      -5.390   2.839 126.016  0.00  0.00    +0.000 A 
ATOM     13 CL   UNL     1      -4.658   2.415 127.511  0.00  0.00    +0.000 Cl
ATOM     14  C   UNL     1      -6.553   2.202 125.619  0.00  0.00    +0.000 A 
ATOM     15  H   UNL     1      -6.773   4.588 121.790  0.00  0.00    +0.000 HD
ENDROOT
TORSDOF 0
ENDMDL
