MODEL 1
REMARK VINA RESULT:      -8.4      0.000      0.000
REMARK  Name = Diazepam
REMARK  2 active torsions:
REMARK  status: ('A' for Active; 'I' for Inactive)
REMARK    1  A    between atoms: C_1  and  N_2
REMARK    2  A    between atoms: C_10  and  C_15
REMARK                            x       y       z     vdW  Elec       q    Type
REMARK                         _______ _______ _______ _____ _____    ______ ____
ROOT
ATOM      1  C   UNL     1      -7.544  -1.427 123.691  0.00  0.00    +0.000 C 
ATOM      2  N   UNL     1      -7.982  -0.038 123.733  0.00  0.00    +0.000 N 
ATOM      3  C   UNL     1      -7.126   0.942 124.309  0.00  0.00    +0.000 A 
ATOM      4  C   UNL     1      -6.979   2.246 123.803  0.00  0.00    +0.000 A 
ATOM      5  C   UNL     1      -6.071   3.136 124.407  0.00  0.00    +0.000 A 
ATOM      6  C   UNL     1      -5.328   2.740 125.515  0.00  0.00    +0.000 A 
ATOM      7 CL   UNL     1      -4.224   3.837 126.242  0.00  0.00    +0.000 Cl
ATOM      8  C   UNL     1      -5.477   1.464 126.039  0.00  0.00    +0.000 A 
ATOM      9  C   UNL     1      -6.366   0.576 125.437  0.00  0.00    +0.000 A 
ATOM     10  C   UNL     1      -7.709   2.733 122.598  0.00  0.00    +0.000 C 
ATOM     11  N   UNL     1      -8.948   2.495 122.334  0.00  0.00    +0.000 NA
ATOM     12  C   UNL     1      -9.730   1.671 123.252  0.00  0.00    +0.000 C 
ATOM     13  C   UNL     1      -9.245   0.232 123.210  0.00  0.00    +0.000 C 
ATOM     14  O   UNL     1      -9.984  -0.674 122.799  0.00  0.00    +0.000 OA
ENDROOT
BRANCH  10  15
ATOM     15  C   UNL     1      -6.967   3.576 121.616  0.00  0.00    +0.000 A 
ATOM     16  C   UNL     1      -7.574   3.907 120.401  0.00  0.00    +0.000 A 
ATOM     17  C   UNL     1      -6.840   4.575 119.422  0.00  0.00    +0.000 A 
ATOM     18  C   UNL     1      -5.535   4.987 119.690  0.00  0.00    +0.000 A 
ATOM     19  C   UNL     1      -4.966   4.745 120.941  0.00  0.00    +0.000 A 
ATOM     20  C   UNL     1      -5.662   3.997 121.892  0.00  0.00    +0.000 A 
ENDBRANCH  10  15
TORSDOF 1
ENDMDL
MODEL 2
REMARK VINA RESULT:      -8.2      3.027      4.035
REMARK  Name = Diazepam
REMARK  2 active torsions:
REMARK  status: ('A' for Active; 'I' for Inactive)
REMARK    1  A    between atoms: C_1  and  N_2
REMARK    2  A    between atoms: C_10  and  C_15
REMARK                            x       y       z     vdW  Elec       q    Type
REMARK                         _______ _______ _______ _____ _____    ______ ____
ROOT
ATOM      1  C   UNL     1      -7.892   3.189 127.300  0.00  0.00    +0.000 C 
ATOM      2  N   UNL     1      -6.917   3.051 126.225  0.00  0.00    +0.000 N 
ATOM      3  C   UNL     1      -6.995   1.924 125.361  0.00  0.00    +0.000 A 
ATOM      4  C   UNL     1      -6.740   1.981 123.978  0.00  0.00    +0.000 A 
ATOM      5  C   UNL     1      -6.888   0.825 123.189  0.00  0.00    +0.000 A 
ATOM      6  C   UNL     1      -7.270  -0.381 123.768  0.00  0.00    +0.000 A 
ATOM      7 CL   UNL     1      -7.447  -1.783 122.793  0.00  0.00    +0.000 Cl
ATOM      8  C   UNL     1      -7.504  -0.458 125.133  0.00  0.00    +0.000 A 
ATOM      9  C   UNL     1      -7.370   0.686 125.918  0.00  0.00    +0.000 A 
ATOM     10  C   UNL     1      -6.365   3.241 123.276  0.00  0.00    +0.000 C 
ATOM     11  N   UNL     1      -5.540   4.124 123.724  0.00  0.00    +0.000 NA
ATOM     12  C   UNL     1      -4.913   3.921 125.029  0.00  0.00    +0.000 C 
ATOM     13  C   UNL     1      -5.947   4.048 126.134  0.00  0.00    +0.000 C 
ATOM     14  O   UNL     1      -5.875   4.961 126.968  0.00  0.00    +0.000 OA
ENDROOT
BRANCH  10  15
ATOM     15  C   UNL     1      -6.974   3.512 121.942  0.00  0.00    +0.000 A 
ATOM     16  C   UNL     1      -6.147   3.870 120.872  0.00  0.00    +0.000 A 
ATOM     17  C   UNL     1      -6.717   4.260 119.660  0.00  0.00    +0.000 A 
ATOM     18  C   UNL     1      -8.100   4.207 119.492  0.00  0.00    +0.000 A 
ATOM     19  C   UNL     1      -8.916   3.752 120.529  0.00  0.00    +0.000 A 
ATOM     20  C   UNL     1      -8.361   3.448 121.772  0.00  0.00    +0.000 A 
ENDBRANCH  10  15
TORSDOF 1
ENDMDL
MODEL 3
REMARK VINA RESULT:      -8.1      2.967      5.309
REMARK  Name = Diazepam
REMARK  2 active torsions:
REMARK  status: ('A' for Active; 'I' for Inactive)
REMARK    1  A    between atoms: C_1  and  N_2
REMARK    2  A    between atoms: C_10  and  C_15
REMARK                            x       y       z     vdW  Elec       q    Type
REMARK                         _______ _______ _______ _____ _____    ______ ____
ROOT
ATOM      1  C   UNL     1      -4.239   3.969 125.753  0.00  0.00    +0.000 C 
ATOM      2  N   UNL     1      -5.609   4.126 125.281  0.00  0.00    +0.000 N 
ATOM      3  C   UNL     1      -5.873   4.056 123.884  0.00  0.00    +0.000 A 
ATOM      4  C   UNL     1      -7.014   3.443 123.334  0.00  0.00    +0.000 A 
ATOM      5  C   UNL     1      -7.170   3.376 121.937  0.00  0.00    +0.000 A 
ATOM      6  C   UNL     1      -6.211   3.927 121.093  0.00  0.00    +0.000 A 
ATOM      7 CL   UNL     1      -6.415   3.838 119.390  0.00  0.00    +0.000 Cl
ATOM      8  C   UNL     1      -5.091   4.553 121.620  0.00  0.00    +0.000 A 
ATOM      9  C   UNL     1      -4.926   4.613 123.003  0.00  0.00    +0.000 A 
ATOM     10  C   UNL     1      -8.065   2.796 124.168  0.00  0.00    +0.000 C 
ATOM     11  N   UNL     1      -8.538   3.271 125.269  0.00  0.00    +0.000 NA
ATOM     12  C   UNL     1      -8.014   4.534 125.786  0.00  0.00    +0.000 C 
ATOM     13  C   UNL     1      -6.579   4.356 126.254  0.00  0.00    +0.000 C 
ATOM     14  O   UNL     1      -6.280   4.494 127.448  0.00  0.00    +0.000 OA
ENDROOT
BRANCH  10  15
ATOM     15  C   UNL     1      -8.639   1.501 123.701  0.00  0.00    +0.000 A 
ATOM     16  C   UNL     1      -7.930   0.317 123.927  0.00  0.00    +0.000 A 
ATOM     17  C   UNL     1      -8.388  -0.879 123.374  0.00  0.00    +0.000 A 
ATOM     18  C   UNL     1      -9.595  -0.905 122.674  0.00  0.00    +0.000 A 
ATOM     19  C   UNL     1     -10.352   0.260 122.538  0.00  0.00    +0.000 A 
ATOM     20  C   UNL     1      -9.854   1.476 123.009  0.00  0.00    +0.000 A 
ENDBRANCH  10  15
TORSDOF 1
ENDMDL
MODEL 4
REMARK VINA RESULT:      -8.0      3.893      7.344
REMARK  Name = Diazepam
REMARK  2 active torsions:
REMARK  status: ('A' for Active; 'I' for Inactive)
REMARK    1  A    between atoms: C_1  and  N_2
REMARK    2  A    between atoms: C_10  and  C_15
REMARK                            x       y       z     vdW  Elec       q    Type
REMARK                         _______ _______ _______ _____ _____    ______ ____
ROOT
ATOM      1  C   UNL     1      -7.562   1.011 123.694  0.00  0.00    +0.000 C 
ATOM      2  N   UNL     1      -7.915  -0.266 124.301  0.00  0.00    +0.000 N 
ATOM      3  C   UNL     1      -7.020  -1.364 124.174  0.00  0.00    +0.000 A 
ATOM      4  C   UNL     1      -6.776  -2.296 125.200  0.00  0.00    +0.000 A 
ATOM      5  C   UNL     1      -5.836  -3.325 125.005  0.00  0.00    +0.000 A 
ATOM      6  C   UNL     1      -5.156  -3.439 123.797  0.00  0.00    +0.000 A 
ATOM      7 CL   UNL     1      -4.012  -4.700 123.572  0.00  0.00    +0.000 Cl
ATOM      8  C   UNL     1      -5.401  -2.541 122.768  0.00  0.00    +0.000 A 
ATOM      9  C   UNL     1      -6.323  -1.513 122.960  0.00  0.00    +0.000 A 
ATOM     10  C   UNL     1      -7.433  -2.219 126.536  0.00  0.00    +0.000 C 
ATOM     11  N   UNL     1      -8.675  -1.937 126.738  0.00  0.00    +0.000 NA
ATOM     12  C   UNL     1      -9.538  -1.645 125.594  0.00  0.00    +0.000 C 
ATOM     13  C   UNL     1      -9.141  -0.322 124.962  0.00  0.00    +0.000 C 
ATOM     14  O   UNL     1      -9.920   0.642 124.967  0.00  0.00    +0.000 OA
ENDROOT
BRANCH  10  15
ATOM     15  C   UNL     1      -6.608  -2.501 127.746  0.00  0.00    +0.000 A 
ATOM     16  C   UNL     1      -5.289  -2.039 127.797  0.00  0.00    +0.000 A 
ATOM     17  C   UNL     1      -4.467  -2.414 128.860  0.00  0.00    +0.000 A 
ATOM     18  C   UNL     1      -4.988  -3.172 129.908  0.00  0.00    +0.000 A 
ATOM     19  C   UNL     1      -6.333  -3.546 129.904  0.00  0.00    +0.000 A 
ATOM     20  C   UNL     1      -7.136  -3.252 128.801  0.00  0.00    +0.000 A 
ENDBRANCH  10  15
TORSDOF 1
ENDMDL
MODEL 5
REMARK VINA RESULT:      -7.6      7.397      9.510
REMARK  Name = Diazepam
REMARK  2 active torsions:
REMARK  status: ('A' for Active; 'I' for Inactive)
REMARK    1  A    between atoms: C_1  and  N_2
REMARK    2  A    between atoms: C_10  and  C_15
REMARK                            x       y       z     vdW  Elec       q    Type
REMARK                         _______ _______ _______ _____ _____    ______ ____
ROOT
ATOM      1  C   UNL     1      -3.339  -1.316 131.972  0.00  0.00    +0.000 C 
ATOM      2  N   UNL     1      -4.556  -2.113 131.879  0.00  0.00    +0.000 N 
ATOM      3  C   UNL     1      -5.816  -1.451 131.853  0.00  0.00    +0.000 A 
ATOM      4  C   UNL     1      -6.901  -1.869 131.061  0.00  0.00    +0.000 A 
ATOM      5  C   UNL     1      -8.096  -1.126 131.060  0.00  0.00    +0.000 A 
ATOM      6  C   UNL     1      -8.220   0.012 131.851  0.00  0.00    +0.000 A 
ATOM      7 CL   UNL     1      -9.685   0.909 131.840  0.00  0.00    +0.000 Cl
ATOM      8  C   UNL     1      -7.167   0.424 132.654  0.00  0.00    +0.000 A 
ATOM      9  C   UNL     1      -5.976  -0.302 132.650  0.00  0.00    +0.000 A 
ATOM     10  C   UNL     1      -6.835  -3.053 130.158  0.00  0.00    +0.000 C 
ATOM     11  N   UNL     1      -6.285  -4.181 130.451  0.00  0.00    +0.000 NA
ATOM     12  C   UNL     1      -5.647  -4.349 131.755  0.00  0.00    +0.000 C 
ATOM     13  C   UNL     1      -4.393  -3.496 131.840  0.00  0.00    +0.000 C 
ATOM     14  O   UNL     1      -3.276  -4.021 131.953  0.00  0.00    +0.000 OA
ENDROOT
BRANCH  10  15
ATOM     15  C   UNL     1      -7.462  -2.946 128.809  0.00  0.00    +0.000 A 
ATOM     16  C   UNL     1      -8.622  -3.678 128.533  0.00  0.00    +0.000 A 
ATOM     17  C   UNL     1      -9.135  -3.693 127.236  0.00  0.00    +0.000 A 
ATOM     18  C   UNL     1      -8.545  -2.912 126.243  0.00  0.00    +0.000 A 
ATOM     19  C   UNL     1      -7.449  -2.103 126.547  0.00  0.00    +0.000 A 
ATOM     20  C   UNL     1      -6.874  -2.153 127.818  0.00  0.00    +0.000 A 
ENDBRANCH  10  15
TORSDOF 1
ENDMDL
MODEL 6
REMARK VINA RESULT:      -7.5      8.658      9.583
REMARK  Name = Diazepam
REMARK  2 active torsions:
REMARK  status: ('A' for Active; 'I' for Inactive)
REMARK    1  A    between atoms: C_1  and  N_2
REMARK    2  A    between atoms: C_10  and  C_15
REMARK                            x       y       z     vdW  Elec       q    Type
REMARK                         _______ _______ _______ _____ _____    ______ ____
ROOT
ATOM      1  C   UNL     1     -10.375   3.498 130.727  0.00  0.00    +0.000 C 
ATOM      2  N   UNL     1      -9.724   4.761 131.052  0.00  0.00    +0.000 N 
ATOM      3  C   UNL     1      -8.895   4.835 132.207  0.00  0.00    +0.000 A 
ATOM      4  C   UNL     1      -7.697   5.570 132.262  0.00  0.00    +0.000 A 
ATOM      5  C   UNL     1      -6.913   5.548 133.431  0.00  0.00    +0.000 A 
ATOM      6  C   UNL     1      -7.323   4.817 134.541  0.00  0.00    +0.000 A 
ATOM      7 CL   UNL     1      -6.357   4.800 135.961  0.00  0.00    +0.000 Cl
ATOM      8  C   UNL     1      -8.513   4.104 134.510  0.00  0.00    +0.000 A 
ATOM      9  C   UNL     1      -9.287   4.113 133.350  0.00  0.00    +0.000 A 
ATOM     10  C   UNL     1      -7.170   6.346 131.104  0.00  0.00    +0.000 C 
ATOM     11  N   UNL     1      -7.880   7.076 130.313  0.00  0.00    +0.000 NA
ATOM     12  C   UNL     1      -9.324   7.162 130.523  0.00  0.00    +0.000 C 
ATOM     13  C   UNL     1      -9.982   5.831 130.199  0.00  0.00    +0.000 C 
ATOM     14  O   UNL     1     -10.781   5.732 129.257  0.00  0.00    +0.000 OA
ENDROOT
BRANCH  10  15
ATOM     15  C   UNL     1      -5.704   6.297 130.830  0.00  0.00    +0.000 A 
ATOM     16  C   UNL     1      -4.978   7.490 130.774  0.00  0.00    +0.000 A 
ATOM     17  C   UNL     1      -3.639   7.466 130.383  0.00  0.00    +0.000 A 
ATOM     18  C   UNL     1      -3.008   6.247 130.136  0.00  0.00    +0.000 A 
ATOM     19  C   UNL     1      -3.709   5.050 130.292  0.00  0.00    +0.000 A 
ATOM     20  C   UNL     1      -5.071   5.072 130.594  0.00  0.00    +0.000 A 
ENDBRANCH  10  15
TORSDOF 1
ENDMDL
MODEL 7
REMARK VINA RESULT:      -7.4      2.935      6.603
REMARK  Name = Diazepam
REMARK  2 active torsions:
REMARK  status: ('A' for Active; 'I' for Inactive)
REMARK    1  A    between atoms: C_1  and  N_2
REMARK    2  A    between atoms: C_10  and  C_15
REMARK                            x       y       z     vdW  Elec       q    Type
REMARK                         _______ _______ _______ _____ _____    ______ ____
ROOT
ATOM      1  C   UNL     1      -8.936   0.275 123.279  0.00  0.00    +0.000 C 
ATOM      2  N   UNL     1      -7.699  -0.367 123.704  0.00  0.00    +0.000 N 
ATOM      3  C   UNL     1      -6.835   0.320 124.602  0.00  0.00    +0.000 A 
ATOM      4  C   UNL     1      -6.123  -0.311 125.638  0.00  0.00    +0.000 A 
ATOM      5  C   UNL     1      -5.329   0.454 126.512  0.00  0.00    +0.000 A 
ATOM      6  C   UNL     1      -5.228   1.832 126.349  0.00  0.00    +0.000 A 
ATOM      7 CL   UNL     1      -4.255   2.754 127.423  0.00  0.00    +0.000 Cl
ATOM      8  C   UNL     1      -5.907   2.467 125.319  0.00  0.00    +0.000 A 
ATOM      9  C   UNL     1      -6.704   1.715 124.458  0.00  0.00    +0.000 A 
ATOM     10  C   UNL     1      -6.209  -1.775 125.903  0.00  0.00    +0.000 C 
ATOM     11  N   UNL     1      -6.212  -2.695 124.999  0.00  0.00    +0.000 NA
ATOM     12  C   UNL     1      -6.148  -2.313 123.590  0.00  0.00    +0.000 C 
ATOM     13  C   UNL     1      -7.438  -1.628 123.171  0.00  0.00    +0.000 C 
ATOM     14  O   UNL     1      -8.183  -2.142 122.326  0.00  0.00    +0.000 OA
ENDROOT
BRANCH  10  15
ATOM     15  C   UNL     1      -6.283  -2.233 127.321  0.00  0.00    +0.000 A 
ATOM     16  C   UNL     1      -5.101  -2.523 128.009  0.00  0.00    +0.000 A 
ATOM     17  C   UNL     1      -5.166  -3.082 129.286  0.00  0.00    +0.000 A 
ATOM     18  C   UNL     1      -6.402  -3.267 129.903  0.00  0.00    +0.000 A 
ATOM     19  C   UNL     1      -7.576  -2.881 129.253  0.00  0.00    +0.000 A 
ATOM     20  C   UNL     1      -7.524  -2.407 127.942  0.00  0.00    +0.000 A 
ENDBRANCH  10  15
TORSDOF 1
ENDMDL
MODEL 8
REMARK VINA RESULT:      -7.2      3.664      6.166
REMARK  Name = Diazepam
REMARK  2 active torsions:
REMARK  status: ('A' for Active; 'I' for Inactive)
REMARK    1  A    between atoms: C_1  and  N_2
REMARK    2  A    between atoms: C_10  and  C_15
REMARK                            x       y       z     vdW  Elec       q    Type
REMARK                         _______ _______ _______ _____ _____    ______ ____
ROOT
ATOM      1  C   UNL     1      -2.932   3.064 126.951  0.00  0.00    +0.000 C 
ATOM      2  N   UNL     1      -4.302   2.573 127.034  0.00  0.00    +0.000 N 
ATOM      3  C   UNL     1      -5.145   2.675 125.892  0.00  0.00    +0.000 A 
ATOM      4  C   UNL     1      -6.074   1.687 125.517  0.00  0.00    +0.000 A 
ATOM      5  C   UNL     1      -6.834   1.848 124.343  0.00  0.00    +0.000 A 
ATOM      6  C   UNL     1      -6.685   2.987 123.558  0.00  0.00    +0.000 A 
ATOM      7 CL   UNL     1      -7.619   3.170 122.128  0.00  0.00    +0.000 Cl
ATOM      8  C   UNL     1      -5.789   3.979 123.926  0.00  0.00    +0.000 A 
ATOM      9  C   UNL     1      -5.026   3.819 125.082  0.00  0.00    +0.000 A 
ATOM     10  C   UNL     1      -6.264   0.422 126.282  0.00  0.00    +0.000 C 
ATOM     11  N   UNL     1      -6.300   0.330 127.567  0.00  0.00    +0.000 NA
ATOM     12  C   UNL     1      -6.125   1.535 128.377  0.00  0.00    +0.000 C 
ATOM     13  C   UNL     1      -4.699   2.044 128.261  0.00  0.00    +0.000 C 
ATOM     14  O   UNL     1      -3.949   2.059 129.247  0.00  0.00    +0.000 OA
ENDROOT
BRANCH  10  15
ATOM     15  C   UNL     1      -6.442  -0.845 125.517  0.00  0.00    +0.000 A 
ATOM     16  C   UNL     1      -7.695  -1.466 125.503  0.00  0.00    +0.000 A 
ATOM     17  C   UNL     1      -7.837  -2.720 124.907  0.00  0.00    +0.000 A 
ATOM     18  C   UNL     1      -6.754  -3.307 124.253  0.00  0.00    +0.000 A 
ATOM     19  C   UNL     1      -5.531  -2.638 124.181  0.00  0.00    +0.000 A 
ATOM     20  C   UNL     1      -5.357  -1.427 124.852  0.00  0.00    +0.000 A 
ENDBRANCH  10  15
TORSDOF 1
ENDMDL
MODEL 9
REMARK VINA RESULT:      -7.2      4.118      7.393
REMARK  Name = Diazepam
REMARK  2 active torsions:
REMARK  status: ('A' for Active; 'I' for Inactive)
REMARK    1  A    between atoms: C_1  and  N_2
REMARK    2  A    between atoms: C_10  and  C_15
REMARK                            x       y       z     vdW  Elec       q    Type
REMARK                         _______ _______ _______ _____ _____    ______ ____
ROOT
ATOM      1  C   UNL     1      -6.394   2.301 124.411  0.00  0.00    +0.000 C 
ATOM      2  N   UNL     1      -7.318   1.660 125.338  0.00  0.00    +0.000 N 
ATOM      3  C   UNL     1      -7.849   0.380 125.012  0.00  0.00    +0.000 A 
ATOM      4  C   UNL     1      -8.061  -0.641 125.957  0.00  0.00    +0.000 A 
ATOM      5  C   UNL     1      -8.545  -1.894 125.538  0.00  0.00    +0.000 A 
ATOM      6  C   UNL     1      -8.832  -2.127 124.197  0.00  0.00    +0.000 A 
ATOM      7 CL   UNL     1      -9.422  -3.662 123.701  0.00  0.00    +0.000 Cl
ATOM      8  C   UNL     1      -8.648  -1.124 123.257  0.00  0.00    +0.000 A 
ATOM      9  C   UNL     1      -8.158   0.116 123.665  0.00  0.00    +0.000 A 
ATOM     10  C   UNL     1      -7.743  -0.483 127.404  0.00  0.00    +0.000 C 
ATOM     11  N   UNL     1      -7.985   0.569 128.108  0.00  0.00    +0.000 NA
ATOM     12  C   UNL     1      -8.604   1.730 127.470  0.00  0.00    +0.000 C 
ATOM     13  C   UNL     1      -7.634   2.372 126.493  0.00  0.00    +0.000 C 
ATOM     14  O   UNL     1      -7.210   3.520 126.684  0.00  0.00    +0.000 OA
ENDROOT
BRANCH  10  15
ATOM     15  C   UNL     1      -7.104  -1.629 128.114  0.00  0.00    +0.000 A 
ATOM     16  C   UNL     1      -7.887  -2.452 128.928  0.00  0.00    +0.000 A 
ATOM     17  C   UNL     1      -7.277  -3.438 129.704  0.00  0.00    +0.000 A 
ATOM     18  C   UNL     1      -5.904  -3.657 129.598  0.00  0.00    +0.000 A 
ATOM     19  C   UNL     1      -5.140  -2.901 128.707  0.00  0.00    +0.000 A 
ATOM     20  C   UNL     1      -5.728  -1.853 127.997  0.00  0.00    +0.000 A 
ENDBRANCH  10  15
TORSDOF 1
ENDMDL
