MODEL 1
REMARK VINA RESULT:      -8.0      0.000      0.000
REMARK  Name = Dibekacin
REMARK  15 active torsions:
REMARK  status: ('A' for Active; 'I' for Inactive)
REMARK    1  A    between atoms: N_1  and  C_2
REMARK    2  A    between atoms: C_2  and  C_3
REMARK    3  A    between atoms: C_6  and  N_7
REMARK    4  A    between atoms: C_8  and  O_9
REMARK    5  A    between atoms: O_9  and  C_10
REMARK    6  A    between atoms: C_11  and  N_12
REMARK    7  A    between atoms: C_14  and  N_15
REMARK    8  A    between atoms: C_16  and  O_17
REMARK    9  A    between atoms: O_17  and  C_18
REMARK   10  A    between atoms: C_20  and  C_21
REMARK   11  A    between atoms: C_21  and  O_22
REMARK   12  A    between atoms: C_23  and  O_24
REMARK   13  A    between atoms: C_25  and  N_26
REMARK   14  A    between atoms: C_27  and  O_28
REMARK   15  A    between atoms: C_29  and  O_30
REMARK                            x       y       z     vdW  Elec       q    Type
REMARK                         _______ _______ _______ _____ _____    ______ ____
ROOT
ATOM      1  C   UNL     1      -9.497   6.266 129.835  0.00  0.00    +0.000 C 
ATOM      2  C   UNL     1      -8.763   6.817 131.161  0.00  0.00    +0.000 C 
ATOM      3  C   UNL     1      -7.204   6.495 131.308  0.00  0.00    +0.000 C 
ATOM      4  C   UNL     1      -6.701   5.152 130.749  0.00  0.00    +0.000 C 
ATOM      5  C   UNL     1      -7.373   4.551 129.450  0.00  0.00    +0.000 C 
ATOM      6  C   UNL     1      -8.975   4.836 129.424  0.00  0.00    +0.000 C 
ENDROOT
BRANCH   2   7
ATOM      7  N   UNL     1      -9.359   6.387 132.416  0.00  0.00    +0.000 NA
ATOM      8  H   UNL     1     -10.344   6.200 132.338  0.00  0.00    +0.000 HD
ATOM      9  H   UNL     1      -9.200   7.081 133.143  0.00  0.00    +0.000 HD
ENDBRANCH   2   7
BRANCH   4  10
ATOM     10  N   UNL     1      -6.750   4.267 131.919  0.00  0.00    +0.000 NA
ATOM     11  H   UNL     1      -5.925   4.354 132.500  0.00  0.00    +0.000 HD
ATOM     12  H   UNL     1      -6.694   3.303 131.573  0.00  0.00    +0.000 HD
ENDBRANCH   4  10
BRANCH   6  13
ATOM     13  O   UNL     1      -9.605   3.933 130.377  0.00  0.00    +0.000 OA
ATOM     14  H   UNL     1     -10.407   3.565 129.973  0.00  0.00    +0.000 HD
ENDBRANCH   6  13
BRANCH   1  15
ATOM     15  O   UNL     1      -9.721   7.232 128.744  0.00  0.00    +0.000 OA
BRANCH  15  20
ATOM     16  C   UNL     1     -12.921   8.615 129.316  0.00  0.00    +0.000 C 
ATOM     17  C   UNL     1     -13.561   8.205 127.762  0.00  0.00    +0.000 C 
ATOM     18  C   UNL     1     -13.049   6.888 127.179  0.00  0.00    +0.000 C 
ATOM     19  C   UNL     1     -11.588   7.115 127.203  0.00  0.00    +0.000 C 
ATOM     20  C   UNL     1     -11.074   7.571 128.528  0.00  0.00    +0.000 C 
ATOM     21  O   UNL     1     -11.559   8.866 128.894  0.00  0.00    +0.000 OA
BRANCH  19  22
ATOM     22  N   UNL     1     -11.207   7.678 125.916  0.00  0.00    +0.000 NA
ATOM     23  H   UNL     1     -12.056   7.856 125.413  0.00  0.00    +0.000 HD
ATOM     24  H   UNL     1     -10.717   6.939 125.409  0.00  0.00    +0.000 HD
ENDBRANCH  19  22
BRANCH  16  25
ATOM     25  C   UNL     1     -12.500   7.756 130.923  0.00  0.00    +0.000 C 
BRANCH  25  26
ATOM     26  N   UNL     1     -12.420   6.340 131.624  0.00  0.00    +0.000 NA
ATOM     27  H   UNL     1     -12.745   5.644 130.924  0.00  0.00    +0.000 HD
ATOM     28  H   UNL     1     -13.164   6.018 132.286  0.00  0.00    +0.000 HD
ENDBRANCH  25  26
ENDBRANCH  16  25
ENDBRANCH  15  20
ENDBRANCH   1  15
BRANCH   5  29
ATOM     29  O   UNL     1      -6.645   4.536 128.109  0.00  0.00    +0.000 OA
BRANCH  29  30
ATOM     30  C   UNL     1      -6.901   3.601 126.955  0.00  0.00    +0.000 C 
ATOM     31  O   UNL     1      -7.822   2.507 127.008  0.00  0.00    +0.000 OA
ATOM     32  C   UNL     1      -7.820   1.752 125.693  0.00  0.00    +0.000 C 
ATOM     33  C   UNL     1      -8.352   2.587 124.480  0.00  0.00    +0.000 C 
ATOM     34  C   UNL     1      -7.349   3.704 124.303  0.00  0.00    +0.000 C 
ATOM     35  C   UNL     1      -7.396   4.381 125.668  0.00  0.00    +0.000 C 
BRANCH  34  36
ATOM     36  N   UNL     1      -6.073   3.133 123.845  0.00  0.00    +0.000 NA
ATOM     37  H   UNL     1      -5.693   2.610 124.628  0.00  0.00    +0.000 HD
ATOM     38  H   UNL     1      -5.314   3.770 123.612  0.00  0.00    +0.000 HD
ENDBRANCH  34  36
BRANCH  33  39
ATOM     39  O   UNL     1      -9.715   3.004 124.717  0.00  0.00    +0.000 OA
ATOM     40  H   UNL     1      -9.751   3.393 125.622  0.00  0.00    +0.000 HD
ENDBRANCH  33  39
BRANCH  35  41
ATOM     41  O   UNL     1      -8.728   4.931 125.455  0.00  0.00    +0.000 OA
ATOM     42  H   UNL     1      -8.949   5.870 125.650  0.00  0.00    +0.000 HD
ENDBRANCH  35  41
BRANCH  32  43
ATOM     43  C   UNL     1      -6.417   1.069 125.452  0.00  0.00    +0.000 C 
BRANCH  43  44
ATOM     44  O   UNL     1      -6.385   0.066 124.435  0.00  0.00    +0.000 OA
ATOM     45  H   UNL     1      -5.671   0.323 123.796  0.00  0.00    +0.000 HD
ENDBRANCH  43  44
ENDBRANCH  32  43
ENDBRANCH  29  30
ENDBRANCH   5  29
TORSDOF 15
ENDMDL
MODEL 2
REMARK VINA RESULT:      -7.9      1.537      2.457
REMARK  Name = Dibekacin
REMARK  15 active torsions:
REMARK  status: ('A' for Active; 'I' for Inactive)
REMARK    1  A    between atoms: N_1  and  C_2
REMARK    2  A    between atoms: C_2  and  C_3
REMARK    3  A    between atoms: C_6  and  N_7
REMARK    4  A    between atoms: C_8  and  O_9
REMARK    5  A    between atoms: O_9  and  C_10
REMARK    6  A    between atoms: C_11  and  N_12
REMARK    7  A    between atoms: C_14  and  N_15
REMARK    8  A    between atoms: C_16  and  O_17
REMARK    9  A    between atoms: O_17  and  C_18
REMARK   10  A    between atoms: C_20  and  C_21
REMARK   11  A    between atoms: C_21  and  O_22
REMARK   12  A    between atoms: C_23  and  O_24
REMARK   13  A    between atoms: C_25  and  N_26
REMARK   14  A    between atoms: C_27  and  O_28
REMARK   15  A    between atoms: C_29  and  O_30
REMARK                            x       y       z     vdW  Elec       q    Type
REMARK                         _______ _______ _______ _____ _____    ______ ____
ROOT
ATOM      1  C   UNL     1     -10.295   6.165 130.649  0.00  0.00    +0.000 C 
ATOM      2  C   UNL     1      -9.576   6.084 132.090  0.00  0.00    +0.000 C 
ATOM      3  C   UNL     1      -8.076   5.531 132.116  0.00  0.00    +0.000 C 
ATOM      4  C   UNL     1      -7.704   4.439 131.098  0.00  0.00    +0.000 C 
ATOM      5  C   UNL     1      -8.371   4.456 129.663  0.00  0.00    +0.000 C 
ATOM      6  C   UNL     1      -9.924   4.935 129.736  0.00  0.00    +0.000 C 
ENDROOT
BRANCH   2   7
ATOM      7  N   UNL     1     -10.286   5.300 133.088  0.00  0.00    +0.000 NA
ATOM      8  H   UNL     1      -9.670   4.778 133.688  0.00  0.00    +0.000 HD
ATOM      9  H   UNL     1     -10.945   4.666 132.641  0.00  0.00    +0.000 HD
ENDBRANCH   2   7
BRANCH   4  10
ATOM     10  N   UNL     1      -7.921   3.197 131.849  0.00  0.00    +0.000 NA
ATOM     11  H   UNL     1      -8.152   3.372 132.820  0.00  0.00    +0.000 HD
ATOM     12  H   UNL     1      -7.019   2.713 131.905  0.00  0.00    +0.000 HD
ENDBRANCH   4  10
BRANCH   6  13
ATOM     13  O   UNL     1     -10.708   3.832 130.276  0.00  0.00    +0.000 OA
ATOM     14  H   UNL     1     -10.820   3.162 129.584  0.00  0.00    +0.000 HD
ENDBRANCH   6  13
BRANCH   1  15
ATOM     15  O   UNL     1     -10.344   7.488 129.999  0.00  0.00    +0.000 OA
BRANCH  15  20
ATOM     16  C   UNL     1     -12.655   7.109 127.354  0.00  0.00    +0.000 C 
ATOM     17  C   UNL     1     -13.814   8.229 127.982  0.00  0.00    +0.000 C 
ATOM     18  C   UNL     1     -13.220   9.425 128.726  0.00  0.00    +0.000 C 
ATOM     19  C   UNL     1     -12.402   8.744 129.752  0.00  0.00    +0.000 C 
ATOM     20  C   UNL     1     -11.484   7.706 129.197  0.00  0.00    +0.000 C 
ATOM     21  O   UNL     1     -12.185   6.598 128.625  0.00  0.00    +0.000 OA
BRANCH  19  22
ATOM     22  N   UNL     1     -13.226   8.586 130.941  0.00  0.00    +0.000 NA
ATOM     23  H   UNL     1     -14.105   9.029 130.747  0.00  0.00    +0.000 HD
ATOM     24  H   UNL     1     -12.781   9.133 131.679  0.00  0.00    +0.000 HD
ENDBRANCH  19  22
BRANCH  16  25
ATOM     25  C   UNL     1     -10.991   7.153 126.504  0.00  0.00    +0.000 C 
BRANCH  25  26
ATOM     26  N   UNL     1      -9.617   6.381 126.359  0.00  0.00    +0.000 NA
ATOM     27  H   UNL     1      -9.502   6.167 125.348  0.00  0.00    +0.000 HD
ATOM     28  H   UNL     1      -9.540   5.361 126.581  0.00  0.00    +0.000 HD
ENDBRANCH  25  26
ENDBRANCH  16  25
ENDBRANCH  15  20
ENDBRANCH   1  15
BRANCH   5  29
ATOM     29  O   UNL     1      -7.577   4.845 128.419  0.00  0.00    +0.000 OA
BRANCH  29  30
ATOM     30  C   UNL     1      -7.267   3.965 127.236  0.00  0.00    +0.000 C 
ATOM     31  O   UNL     1      -8.163   3.764 126.139  0.00  0.00    +0.000 OA
ATOM     32  C   UNL     1      -7.559   2.802 125.134  0.00  0.00    +0.000 C 
ATOM     33  C   UNL     1      -6.272   3.346 124.428  0.00  0.00    +0.000 C 
ATOM     34  C   UNL     1      -5.245   3.473 125.530  0.00  0.00    +0.000 C 
ATOM     35  C   UNL     1      -5.943   4.422 126.496  0.00  0.00    +0.000 C 
BRANCH  34  36
ATOM     36  N   UNL     1      -4.882   2.128 126.004  0.00  0.00    +0.000 NA
ATOM     37  H   UNL     1      -4.734   1.561 125.175  0.00  0.00    +0.000 HD
ATOM     38  H   UNL     1      -5.579   1.593 126.519  0.00  0.00    +0.000 HD
ENDBRANCH  34  36
BRANCH  33  39
ATOM     39  O   UNL     1      -6.570   4.563 123.710  0.00  0.00    +0.000 OA
ATOM     40  H   UNL     1      -6.563   4.348 122.749  0.00  0.00    +0.000 HD
ENDBRANCH  33  39
BRANCH  35  41
ATOM     41  O   UNL     1      -5.805   5.574 125.614  0.00  0.00    +0.000 OA
ATOM     42  H   UNL     1      -6.533   5.879 125.026  0.00  0.00    +0.000 HD
ENDBRANCH  35  41
BRANCH  32  43
ATOM     43  C   UNL     1      -7.398   1.367 125.773  0.00  0.00    +0.000 C 
BRANCH  43  44
ATOM     44  O   UNL     1      -7.037   0.324 124.866  0.00  0.00    +0.000 OA
ATOM     45  H   UNL     1      -7.194   0.669 123.949  0.00  0.00    +0.000 HD
ENDBRANCH  43  44
ENDBRANCH  32  43
ENDBRANCH  29  30
ENDBRANCH   5  29
TORSDOF 15
ENDMDL
MODEL 3
REMARK VINA RESULT:      -7.7      2.621      8.072
REMARK  Name = Dibekacin
REMARK  15 active torsions:
REMARK  status: ('A' for Active; 'I' for Inactive)
REMARK    1  A    between atoms: N_1  and  C_2
REMARK    2  A    between atoms: C_2  and  C_3
REMARK    3  A    between atoms: C_6  and  N_7
REMARK    4  A    between atoms: C_8  and  O_9
REMARK    5  A    between atoms: O_9  and  C_10
REMARK    6  A    between atoms: C_11  and  N_12
REMARK    7  A    between atoms: C_14  and  N_15
REMARK    8  A    between atoms: C_16  and  O_17
REMARK    9  A    between atoms: O_17  and  C_18
REMARK   10  A    between atoms: C_20  and  C_21
REMARK   11  A    between atoms: C_21  and  O_22
REMARK   12  A    between atoms: C_23  and  O_24
REMARK   13  A    between atoms: C_25  and  N_26
REMARK   14  A    between atoms: C_27  and  O_28
REMARK   15  A    between atoms: C_29  and  O_30
REMARK                            x       y       z     vdW  Elec       q    Type
REMARK                         _______ _______ _______ _____ _____    ______ ____
ROOT
ATOM      1  C   UNL     1      -7.552   1.932 125.256  0.00  0.00    +0.000 C 
ATOM      2  C   UNL     1      -6.285   2.474 124.418  0.00  0.00    +0.000 C 
ATOM      3  C   UNL     1      -5.388   3.599 125.116  0.00  0.00    +0.000 C 
ATOM      4  C   UNL     1      -6.103   4.617 126.021  0.00  0.00    +0.000 C 
ATOM      5  C   UNL     1      -7.352   4.154 126.873  0.00  0.00    +0.000 C 
ATOM      6  C   UNL     1      -8.267   3.087 126.055  0.00  0.00    +0.000 C 
ENDROOT
BRANCH   2   7
ATOM      7  N   UNL     1      -6.602   3.006 123.101  0.00  0.00    +0.000 NA
ATOM      8  H   UNL     1      -6.091   2.554 122.362  0.00  0.00    +0.000 HD
ATOM      9  H   UNL     1      -6.432   4.009 123.071  0.00  0.00    +0.000 HD
ENDBRANCH   2   7
BRANCH   4  10
ATOM     10  N   UNL     1      -6.374   5.737 125.111  0.00  0.00    +0.000 NA
ATOM     11  H   UNL     1      -5.745   6.515 125.264  0.00  0.00    +0.000 HD
ATOM     12  H   UNL     1      -7.290   6.121 125.366  0.00  0.00    +0.000 HD
ENDBRANCH   4  10
BRANCH   6  13
ATOM     13  O   UNL     1      -9.013   3.820 125.042  0.00  0.00    +0.000 OA
ATOM     14  H   UNL     1      -8.489   4.588 124.764  0.00  0.00    +0.000 HD
ENDBRANCH   6  13
BRANCH   1  15
ATOM     15  O   UNL     1      -7.390   0.641 125.951  0.00  0.00    +0.000 OA
BRANCH  15  20
ATOM     16  C   UNL     1      -8.911  -1.289 123.413  0.00  0.00    +0.000 C 
ATOM     17  C   UNL     1      -9.052  -2.730 124.360  0.00  0.00    +0.000 C 
ATOM     18  C   UNL     1      -9.327  -2.503 125.846  0.00  0.00    +0.000 C 
ATOM     19  C   UNL     1      -8.191  -1.632 126.215  0.00  0.00    +0.000 C 
ATOM     20  C   UNL     1      -8.025  -0.449 125.318  0.00  0.00    +0.000 C 
ATOM     21  O   UNL     1      -7.668  -0.815 123.983  0.00  0.00    +0.000 OA
BRANCH  19  22
ATOM     22  N   UNL     1      -7.111  -2.488 126.684  0.00  0.00    +0.000 NA
ATOM     23  H   UNL     1      -6.289  -1.915 126.738  0.00  0.00    +0.000 HD
ATOM     24  H   UNL     1      -6.941  -3.172 125.946  0.00  0.00    +0.000 HD
ENDBRANCH  19  22
BRANCH  16  25
ATOM     25  C   UNL     1      -9.744   0.380 123.279  0.00  0.00    +0.000 C 
BRANCH  25  26
ATOM     26  N   UNL     1     -10.806   1.329 123.967  0.00  0.00    +0.000 NA
ATOM     27  H   UNL     1     -10.371   1.672 124.846  0.00  0.00    +0.000 HD
ATOM     28  H   UNL     1     -11.607   0.940 124.519  0.00  0.00    +0.000 HD
ENDBRANCH  25  26
ENDBRANCH  16  25
ENDBRANCH  15  20
ENDBRANCH   1  15
BRANCH   5  29
ATOM     29  O   UNL     1      -7.267   3.985 128.387  0.00  0.00    +0.000 OA
BRANCH  29  30
ATOM     30  C   UNL     1      -7.968   4.818 129.429  0.00  0.00    +0.000 C 
ATOM     31  O   UNL     1      -7.446   6.046 129.947  0.00  0.00    +0.000 OA
ATOM     32  C   UNL     1      -8.381   6.615 130.996  0.00  0.00    +0.000 C 
ATOM     33  C   UNL     1      -9.778   7.047 130.435  0.00  0.00    +0.000 C 
ATOM     34  C   UNL     1     -10.428   5.763 129.972  0.00  0.00    +0.000 C 
ATOM     35  C   UNL     1      -9.415   5.254 128.954  0.00  0.00    +0.000 C 
BRANCH  34  36
ATOM     36  N   UNL     1     -10.728   4.928 131.145  0.00  0.00    +0.000 NA
ATOM     37  H   UNL     1     -10.623   3.964 130.848  0.00  0.00    +0.000 HD
ATOM     38  H   UNL     1     -11.674   4.944 131.520  0.00  0.00    +0.000 HD
ENDBRANCH  34  36
BRANCH  33  39
ATOM     39  O   UNL     1      -9.619   8.067 129.424  0.00  0.00    +0.000 OA
ATOM     40  H   UNL     1      -8.811   8.582 129.650  0.00  0.00    +0.000 HD
ENDBRANCH  33  39
BRANCH  35  41
ATOM     41  O   UNL     1      -9.724   6.294 127.982  0.00  0.00    +0.000 OA
ATOM     42  H   UNL     1     -10.054   6.091 127.078  0.00  0.00    +0.000 HD
ENDBRANCH  35  41
BRANCH  32  43
ATOM     43  C   UNL     1      -8.448   5.660 132.251  0.00  0.00    +0.000 C 
BRANCH  43  44
ATOM     44  O   UNL     1      -9.174   6.164 133.374  0.00  0.00    +0.000 OA
ATOM     45  H   UNL     1      -9.998   5.618 133.455  0.00  0.00    +0.000 HD
ENDBRANCH  43  44
ENDBRANCH  32  43
ENDBRANCH  29  30
ENDBRANCH   5  29
TORSDOF 15
ENDMDL
MODEL 4
REMARK VINA RESULT:      -7.5      1.363      2.398
REMARK  Name = Dibekacin
REMARK  15 active torsions:
REMARK  status: ('A' for Active; 'I' for Inactive)
REMARK    1  A    between atoms: N_1  and  C_2
REMARK    2  A    between atoms: C_2  and  C_3
REMARK    3  A    between atoms: C_6  and  N_7
REMARK    4  A    between atoms: C_8  and  O_9
REMARK    5  A    between atoms: O_9  and  C_10
REMARK    6  A    between atoms: C_11  and  N_12
REMARK    7  A    between atoms: C_14  and  N_15
REMARK    8  A    between atoms: C_16  and  O_17
REMARK    9  A    between atoms: O_17  and  C_18
REMARK   10  A    between atoms: C_20  and  C_21
REMARK   11  A    between atoms: C_21  and  O_22
REMARK   12  A    between atoms: C_23  and  O_24
REMARK   13  A    between atoms: C_25  and  N_26
REMARK   14  A    between atoms: C_27  and  O_28
REMARK   15  A    between atoms: C_29  and  O_30
REMARK                            x       y       z     vdW  Elec       q    Type
REMARK                         _______ _______ _______ _____ _____    ______ ____
ROOT
ATOM      1  C   UNL     1      -9.798   5.482 130.084  0.00  0.00    +0.000 C 
ATOM      2  C   UNL     1      -8.556   6.107 130.900  0.00  0.00    +0.000 C 
ATOM      3  C   UNL     1      -7.210   5.244 130.935  0.00  0.00    +0.000 C 
ATOM      4  C   UNL     1      -7.349   3.712 130.957  0.00  0.00    +0.000 C 
ATOM      5  C   UNL     1      -8.543   3.030 130.176  0.00  0.00    +0.000 C 
ATOM      6  C   UNL     1      -9.901   3.920 130.273  0.00  0.00    +0.000 C 
ENDROOT
BRANCH   2   7
ATOM      7  N   UNL     1      -8.835   6.429 132.291  0.00  0.00    +0.000 NA
ATOM      8  H   UNL     1      -8.169   6.027 132.928  0.00  0.00    +0.000 HD
ATOM      9  H   UNL     1      -9.774   6.129 132.545  0.00  0.00    +0.000 HD
ENDBRANCH   2   7
BRANCH   4  10
ATOM     10  N   UNL     1      -7.305   3.396 132.390  0.00  0.00    +0.000 NA
ATOM     11  H   UNL     1      -7.999   2.706 132.651  0.00  0.00    +0.000 HD
ATOM     12  H   UNL     1      -7.605   4.236 132.896  0.00  0.00    +0.000 HD
ENDBRANCH   4  10
BRANCH   6  13
ATOM     13  O   UNL     1     -10.453   3.753 131.610  0.00  0.00    +0.000 OA
ATOM     14  H   UNL     1     -11.037   2.979 131.611  0.00  0.00    +0.000 HD
ENDBRANCH   6  13
BRANCH   1  15
ATOM     15  O   UNL     1     -10.037   6.007 128.726  0.00  0.00    +0.000 OA
BRANCH  15  20
ATOM     16  C   UNL     1     -12.466   8.373 129.717  0.00  0.00    +0.000 C 
ATOM     17  C   UNL     1     -13.002   8.745 128.115  0.00  0.00    +0.000 C 
ATOM     18  C   UNL     1     -12.984   7.569 127.138  0.00  0.00    +0.000 C 
ATOM     19  C   UNL     1     -11.571   7.143 127.232  0.00  0.00    +0.000 C 
ATOM     20  C   UNL     1     -11.101   6.930 128.633  0.00  0.00    +0.000 C 
ATOM     21  O   UNL     1     -11.073   8.139 129.397  0.00  0.00    +0.000 OA
BRANCH  19  22
ATOM     22  N   UNL     1     -10.828   7.841 126.194  0.00  0.00    +0.000 NA
ATOM     23  H   UNL     1      -9.892   7.959 126.536  0.00  0.00    +0.000 HD
ATOM     24  H   UNL     1     -11.233   8.776 126.126  0.00  0.00    +0.000 HD
ENDBRANCH  19  22
BRANCH  16  25
ATOM     25  C   UNL     1     -12.643   6.989 130.962  0.00  0.00    +0.000 C 
BRANCH  25  26
ATOM     26  N   UNL     1     -11.973   6.333 132.236  0.00  0.00    +0.000 NA
ATOM     27  H   UNL     1     -12.471   5.437 132.404  0.00  0.00    +0.000 HD
ATOM     28  H   UNL     1     -12.219   6.649 133.204  0.00  0.00    +0.000 HD
ENDBRANCH  25  26
ENDBRANCH  16  25
ENDBRANCH  15  20
ENDBRANCH   1  15
BRANCH   5  29
ATOM     29  O   UNL     1      -8.310   2.248 128.887  0.00  0.00    +0.000 OA
BRANCH  29  30
ATOM     30  C   UNL     1      -7.765   2.791 127.590  0.00  0.00    +0.000 C 
ATOM     31  O   UNL     1      -6.955   3.966 127.499  0.00  0.00    +0.000 OA
ATOM     32  C   UNL     1      -6.599   4.250 126.053  0.00  0.00    +0.000 C 
ATOM     33  C   UNL     1      -5.691   3.157 125.395  0.00  0.00    +0.000 C 
ATOM     34  C   UNL     1      -6.543   1.909 125.361  0.00  0.00    +0.000 C 
ATOM     35  C   UNL     1      -6.874   1.721 126.836  0.00  0.00    +0.000 C 
BRANCH  34  36
ATOM     36  N   UNL     1      -7.649   2.110 124.412  0.00  0.00    +0.000 NA
ATOM     37  H   UNL     1      -7.560   1.385 123.707  0.00  0.00    +0.000 HD
ATOM     38  H   UNL     1      -7.659   2.962 123.855  0.00  0.00    +0.000 HD
ENDBRANCH  34  36
BRANCH  33  39
ATOM     39  O   UNL     1      -4.443   3.042 126.114  0.00  0.00    +0.000 OA
ATOM     40  H   UNL     1      -4.621   3.278 127.053  0.00  0.00    +0.000 HD
ENDBRANCH  33  39
BRANCH  35  41
ATOM     41  O   UNL     1      -5.515   1.331 127.190  0.00  0.00    +0.000 OA
ATOM     42  H   UNL     1      -5.190   1.330 128.119  0.00  0.00    +0.000 HD
ENDBRANCH  35  41
BRANCH  32  43
ATOM     43  C   UNL     1      -7.896   4.607 125.227  0.00  0.00    +0.000 C 
BRANCH  43  44
ATOM     44  O   UNL     1      -8.752   5.589 125.814  0.00  0.00    +0.000 OA
ATOM     45  H   UNL     1      -9.372   5.896 125.103  0.00  0.00    +0.000 HD
ENDBRANCH  43  44
ENDBRANCH  32  43
ENDBRANCH  29  30
ENDBRANCH   5  29
TORSDOF 15
ENDMDL
MODEL 5
REMARK VINA RESULT:      -7.5      2.878      3.812
REMARK  Name = Dibekacin
REMARK  15 active torsions:
REMARK  status: ('A' for Active; 'I' for Inactive)
REMARK    1  A    between atoms: N_1  and  C_2
REMARK    2  A    between atoms: C_2  and  C_3
REMARK    3  A    between atoms: C_6  and  N_7
REMARK    4  A    between atoms: C_8  and  O_9
REMARK    5  A    between atoms: O_9  and  C_10
REMARK    6  A    between atoms: C_11  and  N_12
REMARK    7  A    between atoms: C_14  and  N_15
REMARK    8  A    between atoms: C_16  and  O_17
REMARK    9  A    between atoms: O_17  and  C_18
REMARK   10  A    between atoms: C_20  and  C_21
REMARK   11  A    between atoms: C_21  and  O_22
REMARK   12  A    between atoms: C_23  and  O_24
REMARK   13  A    between atoms: C_25  and  N_26
REMARK   14  A    between atoms: C_27  and  O_28
REMARK   15  A    between atoms: C_29  and  O_30
REMARK                            x       y       z     vdW  Elec       q    Type
REMARK                         _______ _______ _______ _____ _____    ______ ____
ROOT
ATOM      1  C   UNL     1      -9.834   6.223 129.907  0.00  0.00    +0.000 C 
ATOM      2  C   UNL     1      -9.370   6.434 131.437  0.00  0.00    +0.000 C 
ATOM      3  C   UNL     1      -7.849   6.084 131.784  0.00  0.00    +0.000 C 
ATOM      4  C   UNL     1      -7.198   4.917 131.021  0.00  0.00    +0.000 C 
ATOM      5  C   UNL     1      -7.603   4.651 129.516  0.00  0.00    +0.000 C 
ATOM      6  C   UNL     1      -9.186   4.935 129.268  0.00  0.00    +0.000 C 
ENDROOT
BRANCH   2   7
ATOM      7  N   UNL     1     -10.160   5.712 132.423  0.00  0.00    +0.000 NA
ATOM      8  H   UNL     1     -10.796   5.053 132.009  0.00  0.00    +0.000 HD
ATOM      9  H   UNL     1     -10.677   6.362 133.012  0.00  0.00    +0.000 HD
ENDBRANCH   2   7
BRANCH   4  10
ATOM     10  N   UNL     1      -7.415   3.774 131.916  0.00  0.00    +0.000 NA
ATOM     11  H   UNL     1      -6.891   3.858 132.779  0.00  0.00    +0.000 HD
ATOM     12  H   UNL     1      -6.997   2.952 131.466  0.00  0.00    +0.000 HD
ENDBRANCH   4  10
BRANCH   6  13
ATOM     13  O   UNL     1      -9.935   3.828 129.845  0.00  0.00    +0.000 OA
ATOM     14  H   UNL     1     -10.831   4.135 130.056  0.00  0.00    +0.000 HD
ENDBRANCH   6  13
BRANCH   1  15
ATOM     15  O   UNL     1      -9.903   7.426 129.057  0.00  0.00    +0.000 OA
BRANCH  15  20
ATOM     16  C   UNL     1     -13.072   8.985 129.093  0.00  0.00    +0.000 C 
ATOM     17  C   UNL     1     -13.562   8.405 127.538  0.00  0.00    +0.000 C 
ATOM     18  C   UNL     1     -13.057   7.008 127.181  0.00  0.00    +0.000 C 
ATOM     19  C   UNL     1     -11.598   7.183 127.342  0.00  0.00    +0.000 C 
ATOM     20  C   UNL     1     -11.206   7.784 128.651  0.00  0.00    +0.000 C 
ATOM     21  O   UNL     1     -11.662   9.131 128.800  0.00  0.00    +0.000 OA
BRANCH  19  22
ATOM     22  N   UNL     1     -11.053   7.565 126.047  0.00  0.00    +0.000 NA
ATOM     23  H   UNL     1     -10.454   8.354 126.205  0.00  0.00    +0.000 HD
ATOM     24  H   UNL     1     -11.838   7.901 125.488  0.00  0.00    +0.000 HD
ENDBRANCH  19  22
BRANCH  16  25
ATOM     25  C   UNL     1     -12.870   8.322 130.829  0.00  0.00    +0.000 C 
BRANCH  25  26
ATOM     26  N   UNL     1     -12.969   7.010 131.708  0.00  0.00    +0.000 NA
ATOM     27  H   UNL     1     -13.391   6.278 131.102  0.00  0.00    +0.000 HD
ATOM     28  H   UNL     1     -13.742   6.877 132.402  0.00  0.00    +0.000 HD
ENDBRANCH  25  26
ENDBRANCH  16  25
ENDBRANCH  15  20
ENDBRANCH   1  15
BRANCH   5  29
ATOM     29  O   UNL     1      -6.650   4.962 128.366  0.00  0.00    +0.000 OA
BRANCH  29  30
ATOM     30  C   UNL     1      -5.145   4.877 128.395  0.00  0.00    +0.000 C 
ATOM     31  O   UNL     1      -4.318   5.040 127.239  0.00  0.00    +0.000 OA
ATOM     32  C   UNL     1      -2.857   4.867 127.607  0.00  0.00    +0.000 C 
ATOM     33  C   UNL     1      -2.312   5.970 128.576  0.00  0.00    +0.000 C 
ATOM     34  C   UNL     1      -3.077   5.773 129.865  0.00  0.00    +0.000 C 
ATOM     35  C   UNL     1      -4.518   5.932 129.396  0.00  0.00    +0.000 C 
BRANCH  34  36
ATOM     36  N   UNL     1      -2.671   4.495 130.471  0.00  0.00    +0.000 NA
ATOM     37  H   UNL     1      -1.869   4.167 129.943  0.00  0.00    +0.000 HD
ATOM     38  H   UNL     1      -3.314   3.707 130.414  0.00  0.00    +0.000 HD
ENDBRANCH  34  36
BRANCH  33  39
ATOM     39  O   UNL     1      -2.435   7.276 127.971  0.00  0.00    +0.000 OA
ATOM     40  H   UNL     1      -1.701   7.370 127.321  0.00  0.00    +0.000 HD
ENDBRANCH  33  39
BRANCH  35  41
ATOM     41  O   UNL     1      -4.384   7.364 129.164  0.00  0.00    +0.000 OA
ATOM     42  H   UNL     1      -4.753   8.036 129.781  0.00  0.00    +0.000 HD
ENDBRANCH  35  41
BRANCH  32  43
ATOM     43  C   UNL     1      -2.580   3.386 128.079  0.00  0.00    +0.000 C 
BRANCH  43  44
ATOM     44  O   UNL     1      -1.951   2.539 127.116  0.00  0.00    +0.000 OA
ATOM     45  H   UNL     1      -1.031   2.884 126.982  0.00  0.00    +0.000 HD
ENDBRANCH  43  44
ENDBRANCH  32  43
ENDBRANCH  29  30
ENDBRANCH   5  29
TORSDOF 15
ENDMDL
MODEL 6
REMARK VINA RESULT:      -7.4      1.790      2.857
REMARK  Name = Dibekacin
REMARK  15 active torsions:
REMARK  status: ('A' for Active; 'I' for Inactive)
REMARK    1  A    between atoms: N_1  and  C_2
REMARK    2  A    between atoms: C_2  and  C_3
REMARK    3  A    between atoms: C_6  and  N_7
REMARK    4  A    between atoms: C_8  and  O_9
REMARK    5  A    between atoms: O_9  and  C_10
REMARK    6  A    between atoms: C_11  and  N_12
REMARK    7  A    between atoms: C_14  and  N_15
REMARK    8  A    between atoms: C_16  and  O_17
REMARK    9  A    between atoms: O_17  and  C_18
REMARK   10  A    between atoms: C_20  and  C_21
REMARK   11  A    between atoms: C_21  and  O_22
REMARK   12  A    between atoms: C_23  and  O_24
REMARK   13  A    between atoms: C_25  and  N_26
REMARK   14  A    between atoms: C_27  and  O_28
REMARK   15  A    between atoms: C_29  and  O_30
REMARK                            x       y       z     vdW  Elec       q    Type
REMARK                         _______ _______ _______ _____ _____    ______ ____
ROOT
ATOM      1  C   UNL     1      -9.498   4.762 130.643  0.00  0.00    +0.000 C 
ATOM      2  C   UNL     1      -8.101   4.732 131.448  0.00  0.00    +0.000 C 
ATOM      3  C   UNL     1      -6.986   3.717 130.917  0.00  0.00    +0.000 C 
ATOM      4  C   UNL     1      -7.466   2.382 130.320  0.00  0.00    +0.000 C 
ATOM      5  C   UNL     1      -8.828   2.337 129.516  0.00  0.00    +0.000 C 
ATOM      6  C   UNL     1      -9.941   3.321 130.178  0.00  0.00    +0.000 C 
ENDROOT
BRANCH   2   7
ATOM      7  N   UNL     1      -8.218   4.455 132.871  0.00  0.00    +0.000 NA
ATOM      8  H   UNL     1      -7.883   5.209 133.446  0.00  0.00    +0.000 HD
ATOM      9  H   UNL     1      -7.724   3.598 133.110  0.00  0.00    +0.000 HD
ENDBRANCH   2   7
BRANCH   4  10
ATOM     10  N   UNL     1      -7.411   1.468 131.467  0.00  0.00    +0.000 NA
ATOM     11  H   UNL     1      -8.260   0.924 131.564  0.00  0.00    +0.000 HD
ATOM     12  H   UNL     1      -7.402   2.043 132.315  0.00  0.00    +0.000 HD
ENDBRANCH   4  10
BRANCH   6  13
ATOM     13  O   UNL     1     -10.437   2.686 131.391  0.00  0.00    +0.000 OA
ATOM     14  H   UNL     1     -11.298   2.284 131.202  0.00  0.00    +0.000 HD
ENDBRANCH   6  13
BRANCH   1  15
ATOM     15  O   UNL     1      -9.692   5.862 129.680  0.00  0.00    +0.000 OA
BRANCH  15  20
ATOM     16  C   UNL     1     -12.866   6.744 128.406  0.00  0.00    +0.000 C 
ATOM     17  C   UNL     1     -13.508   7.289 129.917  0.00  0.00    +0.000 C 
ATOM     18  C   UNL     1     -12.498   7.965 130.843  0.00  0.00    +0.000 C 
ATOM     19  C   UNL     1     -11.466   6.911 130.955  0.00  0.00    +0.000 C 
ATOM     20  C   UNL     1     -11.003   6.381 129.638  0.00  0.00    +0.000 C 
ATOM     21  O   UNL     1     -12.032   5.684 128.931  0.00  0.00    +0.000 OA
BRANCH  19  22
ATOM     22  N   UNL     1     -11.788   6.100 132.120  0.00  0.00    +0.000 NA
ATOM     23  H   UNL     1     -11.046   5.432 132.223  0.00  0.00    +0.000 HD
ATOM     24  H   UNL     1     -12.627   5.570 131.882  0.00  0.00    +0.000 HD
ENDBRANCH  19  22
BRANCH  16  25
ATOM     25  C   UNL     1     -11.668   7.343 127.101  0.00  0.00    +0.000 C 
BRANCH  25  26
ATOM     26  N   UNL     1     -10.441   6.903 126.204  0.00  0.00    +0.000 NA
ATOM     27  H   UNL     1      -9.734   7.661 126.276  0.00  0.00    +0.000 HD
ATOM     28  H   UNL     1     -10.458   7.021 125.164  0.00  0.00    +0.000 HD
ENDBRANCH  25  26
ENDBRANCH  16  25
ENDBRANCH  15  20
ENDBRANCH   1  15
BRANCH   5  29
ATOM     29  O   UNL     1      -8.854   2.173 128.000  0.00  0.00    +0.000 OA
BRANCH  29  30
ATOM     30  C   UNL     1      -7.780   2.594 127.029  0.00  0.00    +0.000 C 
ATOM     31  O   UNL     1      -7.458   1.869 125.839  0.00  0.00    +0.000 OA
ATOM     32  C   UNL     1      -6.316   2.544 125.104  0.00  0.00    +0.000 C 
ATOM     33  C   UNL     1      -6.668   3.966 124.552  0.00  0.00    +0.000 C 
ATOM     34  C   UNL     1      -6.911   4.813 125.781  0.00  0.00    +0.000 C 
ATOM     35  C   UNL     1      -8.039   4.050 126.464  0.00  0.00    +0.000 C 
BRANCH  34  36
ATOM     36  N   UNL     1      -5.640   4.985 126.502  0.00  0.00    +0.000 NA
ATOM     37  H   UNL     1      -5.643   4.306 127.257  0.00  0.00    +0.000 HD
ATOM     38  H   UNL     1      -5.477   5.863 126.992  0.00  0.00    +0.000 HD
ENDBRANCH  34  36
BRANCH  33  39
ATOM     39  O   UNL     1      -7.770   3.886 123.622  0.00  0.00    +0.000 OA
ATOM     40  H   UNL     1      -7.924   2.932 123.429  0.00  0.00    +0.000 HD
ENDBRANCH  33  39
BRANCH  35  41
ATOM     41  O   UNL     1      -9.026   4.419 125.457  0.00  0.00    +0.000 OA
ATOM     42  H   UNL     1      -9.224   3.851 124.679  0.00  0.00    +0.000 HD
ENDBRANCH  35  41
BRANCH  32  43
ATOM     43  C   UNL     1      -4.994   2.484 125.966  0.00  0.00    +0.000 C 
BRANCH  43  44
ATOM     44  O   UNL     1      -4.534   1.174 126.302  0.00  0.00    +0.000 OA
ATOM     45  H   UNL     1      -5.322   0.572 126.266  0.00  0.00    +0.000 HD
ENDBRANCH  43  44
ENDBRANCH  32  43
ENDBRANCH  29  30
ENDBRANCH   5  29
TORSDOF 15
ENDMDL
MODEL 7
REMARK VINA RESULT:      -7.4      2.679      7.263
REMARK  Name = Dibekacin
REMARK  15 active torsions:
REMARK  status: ('A' for Active; 'I' for Inactive)
REMARK    1  A    between atoms: N_1  and  C_2
REMARK    2  A    between atoms: C_2  and  C_3
REMARK    3  A    between atoms: C_6  and  N_7
REMARK    4  A    between atoms: C_8  and  O_9
REMARK    5  A    between atoms: O_9  and  C_10
REMARK    6  A    between atoms: C_11  and  N_12
REMARK    7  A    between atoms: C_14  and  N_15
REMARK    8  A    between atoms: C_16  and  O_17
REMARK    9  A    between atoms: O_17  and  C_18
REMARK   10  A    between atoms: C_20  and  C_21
REMARK   11  A    between atoms: C_21  and  O_22
REMARK   12  A    between atoms: C_23  and  O_24
REMARK   13  A    between atoms: C_25  and  N_26
REMARK   14  A    between atoms: C_27  and  O_28
REMARK   15  A    between atoms: C_29  and  O_30
REMARK                            x       y       z     vdW  Elec       q    Type
REMARK                         _______ _______ _______ _____ _____    ______ ____
ROOT
ATOM      1  C   UNL     1      -7.859   1.357 127.261  0.00  0.00    +0.000 C 
ATOM      2  C   UNL     1      -7.463  -0.159 127.642  0.00  0.00    +0.000 C 
ATOM      3  C   UNL     1      -7.730  -0.616 129.151  0.00  0.00    +0.000 C 
ATOM      4  C   UNL     1      -7.552   0.441 130.255  0.00  0.00    +0.000 C 
ATOM      5  C   UNL     1      -7.923   1.949 129.952  0.00  0.00    +0.000 C 
ATOM      6  C   UNL     1      -7.529   2.363 128.429  0.00  0.00    +0.000 C 
ENDROOT
BRANCH   2   7
ATOM      7  N   UNL     1      -6.078  -0.517 127.378  0.00  0.00    +0.000 NA
ATOM      8  H   UNL     1      -5.633   0.098 126.717  0.00  0.00    +0.000 HD
ATOM      9  H   UNL     1      -6.014  -1.477 127.046  0.00  0.00    +0.000 HD
ENDBRANCH   2   7
BRANCH   4  10
ATOM     10  N   UNL     1      -6.166   0.236 130.691  0.00  0.00    +0.000 NA
ATOM     11  H   UNL     1      -5.906  -0.743 130.691  0.00  0.00    +0.000 HD
ATOM     12  H   UNL     1      -6.118   0.493 131.682  0.00  0.00    +0.000 HD
ENDBRANCH   4  10
BRANCH   6  13
ATOM     13  O   UNL     1      -6.083   2.526 128.369  0.00  0.00    +0.000 OA
ATOM     14  H   UNL     1      -5.775   2.251 127.491  0.00  0.00    +0.000 HD
ENDBRANCH   6  13
BRANCH   1  15
ATOM     15  O   UNL     1      -9.136   1.556 126.551  0.00  0.00    +0.000 OA
BRANCH  15  20
ATOM     16  C   UNL     1      -9.483   1.223 123.051  0.00  0.00    +0.000 C 
ATOM     17  C   UNL     1      -8.733   2.733 122.664  0.00  0.00    +0.000 C 
ATOM     18  C   UNL     1      -7.594   3.147 123.594  0.00  0.00    +0.000 C 
ATOM     19  C   UNL     1      -8.274   3.115 124.907  0.00  0.00    +0.000 C 
ATOM     20  C   UNL     1      -9.004   1.841 125.175  0.00  0.00    +0.000 C 
ATOM     21  O   UNL     1     -10.108   1.640 124.289  0.00  0.00    +0.000 OA
BRANCH  19  22
ATOM     22  N   UNL     1      -8.792   4.450 125.169  0.00  0.00    +0.000 NA
ATOM     23  H   UNL     1      -9.333   4.392 126.012  0.00  0.00    +0.000 HD
ATOM     24  H   UNL     1      -9.449   4.660 124.416  0.00  0.00    +0.000 HD
ENDBRANCH  19  22
BRANCH  16  25
ATOM     25  C   UNL     1      -8.973  -0.482 123.623  0.00  0.00    +0.000 C 
BRANCH  25  26
ATOM     26  N   UNL     1      -9.341  -1.648 124.627  0.00  0.00    +0.000 NA
ATOM     27  H   UNL     1      -9.625  -2.462 124.046  0.00  0.00    +0.000 HD
ATOM     28  H   UNL     1     -10.268  -1.675 125.114  0.00  0.00    +0.000 HD
ENDBRANCH  25  26
ENDBRANCH  16  25
ENDBRANCH  15  20
ENDBRANCH   1  15
BRANCH   5  29
ATOM     29  O   UNL     1      -9.163   2.603 130.555  0.00  0.00    +0.000 OA
BRANCH  29  30
ATOM     30  C   UNL     1      -9.612   4.029 130.366  0.00  0.00    +0.000 C 
ATOM     31  O   UNL     1     -10.929   4.398 129.949  0.00  0.00    +0.000 OA
ATOM     32  C   UNL     1     -11.042   5.906 129.830  0.00  0.00    +0.000 C 
ATOM     33  C   UNL     1     -10.890   6.663 131.192  0.00  0.00    +0.000 C 
ATOM     34  C   UNL     1      -9.467   6.400 131.630  0.00  0.00    +0.000 C 
ATOM     35  C   UNL     1      -9.439   4.878 131.692  0.00  0.00    +0.000 C 
BRANCH  34  36
ATOM     36  N   UNL     1      -8.548   7.084 130.706  0.00  0.00    +0.000 NA
ATOM     37  H   UNL     1      -8.749   6.721 129.779  0.00  0.00    +0.000 HD
ATOM     38  H   UNL     1      -7.549   6.911 130.802  0.00  0.00    +0.000 HD
ENDBRANCH  34  36
BRANCH  33  39
ATOM     39  O   UNL     1     -11.915   6.243 132.118  0.00  0.00    +0.000 OA
ATOM     40  H   UNL     1     -11.818   5.271 132.244  0.00  0.00    +0.000 HD
ENDBRANCH  33  39
BRANCH  35  41
ATOM     41  O   UNL     1     -10.294   4.816 132.870  0.00  0.00    +0.000 OA
ATOM     42  H   UNL     1     -11.268   4.951 132.825  0.00  0.00    +0.000 HD
ENDBRANCH  35  41
BRANCH  32  43
ATOM     43  C   UNL     1     -10.105   6.438 128.677  0.00  0.00    +0.000 C 
BRANCH  43  44
ATOM     44  O   UNL     1     -10.168   7.844 128.429  0.00  0.00    +0.000 OA
ATOM     45  H   UNL     1     -10.914   7.994 127.793  0.00  0.00    +0.000 HD
ENDBRANCH  43  44
ENDBRANCH  32  43
ENDBRANCH  29  30
ENDBRANCH   5  29
TORSDOF 15
ENDMDL
MODEL 8
REMARK VINA RESULT:      -7.3      3.298      6.795
REMARK  Name = Dibekacin
REMARK  15 active torsions:
REMARK  status: ('A' for Active; 'I' for Inactive)
REMARK    1  A    between atoms: N_1  and  C_2
REMARK    2  A    between atoms: C_2  and  C_3
REMARK    3  A    between atoms: C_6  and  N_7
REMARK    4  A    between atoms: C_8  and  O_9
REMARK    5  A    between atoms: O_9  and  C_10
REMARK    6  A    between atoms: C_11  and  N_12
REMARK    7  A    between atoms: C_14  and  N_15
REMARK    8  A    between atoms: C_16  and  O_17
REMARK    9  A    between atoms: O_17  and  C_18
REMARK   10  A    between atoms: C_20  and  C_21
REMARK   11  A    between atoms: C_21  and  O_22
REMARK   12  A    between atoms: C_23  and  O_24
REMARK   13  A    between atoms: C_25  and  N_26
REMARK   14  A    between atoms: C_27  and  O_28
REMARK   15  A    between atoms: C_29  and  O_30
REMARK                            x       y       z     vdW  Elec       q    Type
REMARK                         _______ _______ _______ _____ _____    ______ ____
ROOT
ATOM      1  C   UNL     1      -7.610   4.535 129.718  0.00  0.00    +0.000 C 
ATOM      2  C   UNL     1      -8.903   5.491 129.832  0.00  0.00    +0.000 C 
ATOM      3  C   UNL     1      -9.060   6.334 131.182  0.00  0.00    +0.000 C 
ATOM      4  C   UNL     1      -8.566   5.684 132.486  0.00  0.00    +0.000 C 
ATOM      5  C   UNL     1      -7.301   4.735 132.450  0.00  0.00    +0.000 C 
ATOM      6  C   UNL     1      -7.268   3.840 131.092  0.00  0.00    +0.000 C 
ENDROOT
BRANCH   2   7
ATOM      7  N   UNL     1     -10.181   4.818 129.655  0.00  0.00    +0.000 NA
ATOM      8  H   UNL     1     -10.634   5.058 128.791  0.00  0.00    +0.000 HD
ATOM      9  H   UNL     1     -10.803   5.023 130.435  0.00  0.00    +0.000 HD
ENDBRANCH   2   7
BRANCH   4  10
ATOM     10  N   UNL     1      -9.778   5.053 133.022  0.00  0.00    +0.000 NA
ATOM     11  H   UNL     1      -9.655   4.736 133.976  0.00  0.00    +0.000 HD
ATOM     12  H   UNL     1      -9.924   4.182 132.501  0.00  0.00    +0.000 HD
ENDBRANCH   4  10
BRANCH   6  13
ATOM     13  O   UNL     1      -8.267   2.789 131.224  0.00  0.00    +0.000 OA
ATOM     14  H   UNL     1      -7.812   1.935 131.295  0.00  0.00    +0.000 HD
ENDBRANCH   6  13
BRANCH   1  15
ATOM     15  O   UNL     1      -6.473   5.040 128.926  0.00  0.00    +0.000 OA
BRANCH  15  20
ATOM     16  C   UNL     1      -6.286   4.054 125.539  0.00  0.00    +0.000 C 
ATOM     17  C   UNL     1      -5.276   2.678 125.820  0.00  0.00    +0.000 C 
ATOM     18  C   UNL     1      -5.530   1.947 127.138  0.00  0.00    +0.000 C 
ATOM     19  C   UNL     1      -5.358   3.048 128.111  0.00  0.00    +0.000 C 
ATOM     20  C   UNL     1      -6.160   4.265 127.789  0.00  0.00    +0.000 C 
ATOM     21  O   UNL     1      -5.739   4.900 126.578  0.00  0.00    +0.000 OA
BRANCH  19  22
ATOM     22  N   UNL     1      -3.966   3.049 128.536  0.00  0.00    +0.000 NA
ATOM     23  H   UNL     1      -3.950   2.711 129.481  0.00  0.00    +0.000 HD
ATOM     24  H   UNL     1      -3.673   4.026 128.570  0.00  0.00    +0.000 HD
ENDBRANCH  19  22
BRANCH  16  25
ATOM     25  C   UNL     1      -8.075   4.542 125.774  0.00  0.00    +0.000 C 
BRANCH  25  26
ATOM     26  N   UNL     1      -9.025   5.759 126.123  0.00  0.00    +0.000 NA
ATOM     27  H   UNL     1      -9.989   5.464 125.870  0.00  0.00    +0.000 HD
ATOM     28  H   UNL     1      -9.112   6.583 125.482  0.00  0.00    +0.000 HD
ENDBRANCH  25  26
ENDBRANCH  16  25
ENDBRANCH  15  20
ENDBRANCH   1  15
BRANCH   5  29
ATOM     29  O   UNL     1      -5.959   5.172 133.031  0.00  0.00    +0.000 OA
BRANCH  29  30
ATOM     30  C   UNL     1      -4.749   5.632 132.258  0.00  0.00    +0.000 C 
ATOM     31  O   UNL     1      -4.140   4.872 131.211  0.00  0.00    +0.000 OA
ATOM     32  C   UNL     1      -2.930   5.605 130.663  0.00  0.00    +0.000 C 
ATOM     33  C   UNL     1      -3.275   6.955 129.949  0.00  0.00    +0.000 C 
ATOM     34  C   UNL     1      -3.824   7.846 131.040  0.00  0.00    +0.000 C 
ATOM     35  C   UNL     1      -5.003   7.024 131.546  0.00  0.00    +0.000 C 
BRANCH  34  36
ATOM     36  N   UNL     1      -2.741   8.175 131.980  0.00  0.00    +0.000 NA
ATOM     37  H   UNL     1      -2.578   9.173 131.895  0.00  0.00    +0.000 HD
ATOM     38  H   UNL     1      -1.817   7.783 131.808  0.00  0.00    +0.000 HD
ENDBRANCH  34  36
BRANCH  33  39
ATOM     39  O   UNL     1      -4.159   6.720 128.831  0.00  0.00    +0.000 OA
ATOM     40  H   UNL     1      -3.596   6.551 128.041  0.00  0.00    +0.000 HD
ENDBRANCH  33  39
BRANCH  35  41
ATOM     41  O   UNL     1      -5.795   7.242 130.343  0.00  0.00    +0.000 OA
ATOM     42  H   UNL     1      -5.507   6.927 129.456  0.00  0.00    +0.000 HD
ENDBRANCH  35  41
BRANCH  32  43
ATOM     43  C   UNL     1      -1.807   5.717 131.767  0.00  0.00    +0.000 C 
BRANCH  43  44
ATOM     44  O   UNL     1      -0.602   6.367 131.359  0.00  0.00    +0.000 OA
ATOM     45  H   UNL     1       0.152   5.838 131.728  0.00  0.00    +0.000 HD
ENDBRANCH  43  44
ENDBRANCH  32  43
ENDBRANCH  29  30
ENDBRANCH   5  29
TORSDOF 15
ENDMDL
MODEL 9
REMARK VINA RESULT:      -7.2      2.608      8.134
REMARK  Name = Dibekacin
REMARK  15 active torsions:
REMARK  status: ('A' for Active; 'I' for Inactive)
REMARK    1  A    between atoms: N_1  and  C_2
REMARK    2  A    between atoms: C_2  and  C_3
REMARK    3  A    between atoms: C_6  and  N_7
REMARK    4  A    between atoms: C_8  and  O_9
REMARK    5  A    between atoms: O_9  and  C_10
REMARK    6  A    between atoms: C_11  and  N_12
REMARK    7  A    between atoms: C_14  and  N_15
REMARK    8  A    between atoms: C_16  and  O_17
REMARK    9  A    between atoms: O_17  and  C_18
REMARK   10  A    between atoms: C_20  and  C_21
REMARK   11  A    between atoms: C_21  and  O_22
REMARK   12  A    between atoms: C_23  and  O_24
REMARK   13  A    between atoms: C_25  and  N_26
REMARK   14  A    between atoms: C_27  and  O_28
REMARK   15  A    between atoms: C_29  and  O_30
REMARK                            x       y       z     vdW  Elec       q    Type
REMARK                         _______ _______ _______ _____ _____    ______ ____
ROOT
ATOM      1  C   UNL     1      -7.494   1.960 124.951  0.00  0.00    +0.000 C 
ATOM      2  C   UNL     1      -6.193   2.578 124.227  0.00  0.00    +0.000 C 
ATOM      3  C   UNL     1      -5.384   3.697 125.033  0.00  0.00    +0.000 C 
ATOM      4  C   UNL     1      -6.192   4.650 125.930  0.00  0.00    +0.000 C 
ATOM      5  C   UNL     1      -7.480   4.111 126.673  0.00  0.00    +0.000 C 
ATOM      6  C   UNL     1      -8.301   3.055 125.748  0.00  0.00    +0.000 C 
ENDROOT
BRANCH   2   7
ATOM      7  N   UNL     1      -6.438   3.159 122.916  0.00  0.00    +0.000 NA
ATOM      8  H   UNL     1      -7.079   2.618 122.361  0.00  0.00    +0.000 HD
ATOM      9  H   UNL     1      -5.564   3.278 122.408  0.00  0.00    +0.000 HD
ENDBRANCH   2   7
BRANCH   4  10
ATOM     10  N   UNL     1      -6.439   5.802 125.053  0.00  0.00    +0.000 NA
ATOM     11  H   UNL     1      -7.427   5.999 124.948  0.00  0.00    +0.000 HD
ATOM     12  H   UNL     1      -6.151   5.530 124.107  0.00  0.00    +0.000 HD
ENDBRANCH   4  10
BRANCH   6  13
ATOM     13  O   UNL     1      -9.001   3.810 124.719  0.00  0.00    +0.000 OA
ATOM     14  H   UNL     1      -9.280   4.660 125.092  0.00  0.00    +0.000 HD
ENDBRANCH   6  13
BRANCH   1  15
ATOM     15  O   UNL     1      -7.336   0.644 125.599  0.00  0.00    +0.000 OA
BRANCH  15  20
ATOM     16  C   UNL     1      -8.987  -1.146 123.040  0.00  0.00    +0.000 C 
ATOM     17  C   UNL     1      -9.005  -2.659 123.878  0.00  0.00    +0.000 C 
ATOM     18  C   UNL     1      -9.171  -2.556 125.394  0.00  0.00    +0.000 C 
ATOM     19  C   UNL     1      -8.038  -1.671 125.744  0.00  0.00    +0.000 C 
ATOM     20  C   UNL     1      -7.982  -0.419 124.933  0.00  0.00    +0.000 C 
ATOM     21  O   UNL     1      -7.719  -0.668 123.549  0.00  0.00    +0.000 OA
BRANCH  19  22
ATOM     22  N   UNL     1      -6.897  -2.518 126.061  0.00  0.00    +0.000 NA
ATOM     23  H   UNL     1      -6.160  -1.909 126.365  0.00  0.00    +0.000 HD
ATOM     24  H   UNL     1      -6.589  -2.933 125.181  0.00  0.00    +0.000 HD
ENDBRANCH  19  22
BRANCH  16  25
ATOM     25  C   UNL     1      -9.882   0.494 123.099  0.00  0.00    +0.000 C 
BRANCH  25  26
ATOM     26  N   UNL     1     -10.921   1.344 123.936  0.00  0.00    +0.000 NA
ATOM     27  H   UNL     1     -11.668   1.634 123.274  0.00  0.00    +0.000 HD
ATOM     28  H   UNL     1     -10.740   2.350 124.168  0.00  0.00    +0.000 HD
ENDBRANCH  25  26
ENDBRANCH  16  25
ENDBRANCH  15  20
ENDBRANCH   1  15
BRANCH   5  29
ATOM     29  O   UNL     1      -7.491   3.876 128.181  0.00  0.00    +0.000 OA
BRANCH  29  30
ATOM     30  C   UNL     1      -8.475   4.438 129.174  0.00  0.00    +0.000 C 
ATOM     31  O   UNL     1      -9.749   3.850 129.450  0.00  0.00    +0.000 OA
ATOM     32  C   UNL     1     -10.502   4.678 130.474  0.00  0.00    +0.000 C 
ATOM     33  C   UNL     1      -9.826   4.708 131.886  0.00  0.00    +0.000 C 
ATOM     34  C   UNL     1      -8.513   5.426 131.677  0.00  0.00    +0.000 C 
ATOM     35  C   UNL     1      -7.846   4.549 130.623  0.00  0.00    +0.000 C 
BRANCH  34  36
ATOM     36  N   UNL     1      -8.784   6.835 131.351  0.00  0.00    +0.000 NA
ATOM     37  H   UNL     1      -8.415   7.385 132.121  0.00  0.00    +0.000 HD
ATOM     38  H   UNL     1      -9.753   7.142 131.302  0.00  0.00    +0.000 HD
ENDBRANCH  34  36
BRANCH  33  39
ATOM     39  O   UNL     1      -9.729   3.371 132.425  0.00  0.00    +0.000 OA
ATOM     40  H   UNL     1      -9.020   3.380 133.109  0.00  0.00    +0.000 HD
ENDBRANCH  33  39
BRANCH  35  41
ATOM     41  O   UNL     1      -7.617   3.447 131.548  0.00  0.00    +0.000 OA
ATOM     42  H   UNL     1      -7.651   2.505 131.266  0.00  0.00    +0.000 HD
ENDBRANCH  35  41
BRANCH  32  43
ATOM     43  C   UNL     1     -10.849   6.100 129.884  0.00  0.00    +0.000 C 
BRANCH  43  44
ATOM     44  O   UNL     1     -11.652   6.100 128.702  0.00  0.00    +0.000 OA
ATOM     45  H   UNL     1     -11.063   5.832 127.951  0.00  0.00    +0.000 HD
ENDBRANCH  43  44
ENDBRANCH  32  43
ENDBRANCH  29  30
ENDBRANCH   5  29
TORSDOF 15
ENDMDL
