MODEL 1
REMARK VINA RESULT:      -7.1      0.000      0.000
REMARK  Name = Dibenzepin
REMARK  6 active torsions:
REMARK  status: ('A' for Active; 'I' for Inactive)
REMARK    1  A    between atoms: C_1  and  N_2
REMARK    2  A    between atoms: N_2  and  C_3
REMARK    3  A    between atoms: N_2  and  C_4
REMARK    4  A    between atoms: C_4  and  C_5
REMARK    5  A    between atoms: C_5  and  N_6
REMARK    6  A    between atoms: N_13  and  C_14
REMARK                            x       y       z     vdW  Elec       q    Type
REMARK                         _______ _______ _______ _____ _____    ______ ____
ROOT
ATOM      1  N   UNL     1      -8.606  -1.416 125.020  0.00  0.00    +0.000 N 
ATOM      2  C   UNL     1      -7.419  -1.660 124.320  0.00  0.00    +0.000 A 
ATOM      3  C   UNL     1      -7.530  -1.981 122.965  0.00  0.00    +0.000 A 
ATOM      4  C   UNL     1      -6.405  -2.397 122.269  0.00  0.00    +0.000 A 
ATOM      5  C   UNL     1      -5.176  -2.466 122.925  0.00  0.00    +0.000 A 
ATOM      6  C   UNL     1      -5.068  -2.100 124.272  0.00  0.00    +0.000 A 
ATOM      7  C   UNL     1      -6.196  -1.698 124.994  0.00  0.00    +0.000 A 
ATOM      8  N   UNL     1      -6.114  -1.444 126.370  0.00  0.00    +0.000 N 
ATOM      9  C   UNL     1      -5.356  -0.258 126.783  0.00  0.00    +0.000 C 
ATOM     10  C   UNL     1      -6.855  -2.147 127.337  0.00  0.00    +0.000 A 
ATOM     11  C   UNL     1      -6.205  -2.511 128.534  0.00  0.00    +0.000 A 
ATOM     12  C   UNL     1      -6.813  -3.323 129.493  0.00  0.00    +0.000 A 
ATOM     13  C   UNL     1      -8.109  -3.774 129.296  0.00  0.00    +0.000 A 
ATOM     14  C   UNL     1      -8.781  -3.429 128.129  0.00  0.00    +0.000 A 
ATOM     15  C   UNL     1      -8.163  -2.642 127.135  0.00  0.00    +0.000 A 
ATOM     16  C   UNL     1      -9.032  -2.327 125.962  0.00  0.00    +0.000 C 
ATOM     17  O   UNL     1     -10.163  -2.823 125.887  0.00  0.00    +0.000 OA
ENDROOT
BRANCH   1  18
ATOM     18  C   UNL     1      -9.220  -0.105 124.870  0.00  0.00    +0.000 C 
BRANCH  18  19
ATOM     19  C   UNL     1      -8.935   0.862 126.029  0.00  0.00    +0.000 C 
BRANCH  19  21
ATOM     20  C   UNL     1      -7.788   2.946 126.203  0.00  0.00    +0.000 C 
ATOM     21  N   UNL     1      -8.972   2.286 125.645  0.00  0.00    +0.000 NA
ATOM     22  C   UNL     1      -8.986   2.447 124.190  0.00  0.00    +0.000 C 
ENDBRANCH  19  21
ENDBRANCH  18  19
ENDBRANCH   1  18
TORSDOF 3
ENDMDL
MODEL 2
REMARK VINA RESULT:      -6.8      1.845      4.617
REMARK  Name = Dibenzepin
REMARK  6 active torsions:
REMARK  status: ('A' for Active; 'I' for Inactive)
REMARK    1  A    between atoms: C_1  and  N_2
REMARK    2  A    between atoms: N_2  and  C_3
REMARK    3  A    between atoms: N_2  and  C_4
REMARK    4  A    between atoms: C_4  and  C_5
REMARK    5  A    between atoms: C_5  and  N_6
REMARK    6  A    between atoms: N_13  and  C_14
REMARK                            x       y       z     vdW  Elec       q    Type
REMARK                         _______ _______ _______ _____ _____    ______ ____
ROOT
ATOM      1  N   UNL     1      -7.369  -0.160 127.305  0.00  0.00    +0.000 N 
ATOM      2  C   UNL     1      -7.689  -1.125 128.267  0.00  0.00    +0.000 A 
ATOM      3  C   UNL     1      -7.469  -0.791 129.606  0.00  0.00    +0.000 A 
ATOM      4  C   UNL     1      -7.606  -1.766 130.582  0.00  0.00    +0.000 A 
ATOM      5  C   UNL     1      -7.986  -3.058 130.217  0.00  0.00    +0.000 A 
ATOM      6  C   UNL     1      -8.246  -3.369 128.878  0.00  0.00    +0.000 A 
ATOM      7  C   UNL     1      -8.093  -2.404 127.878  0.00  0.00    +0.000 A 
ATOM      8  N   UNL     1      -8.238  -2.742 126.526  0.00  0.00    +0.000 N 
ATOM      9  C   UNL     1      -9.589  -3.084 126.068  0.00  0.00    +0.000 C 
ATOM     10  C   UNL     1      -7.215  -2.597 125.571  0.00  0.00    +0.000 A 
ATOM     11  C   UNL     1      -7.044  -3.624 124.621  0.00  0.00    +0.000 A 
ATOM     12  C   UNL     1      -5.976  -3.635 123.722  0.00  0.00    +0.000 A 
ATOM     13  C   UNL     1      -5.057  -2.598 123.728  0.00  0.00    +0.000 A 
ATOM     14  C   UNL     1      -5.199  -1.566 124.648  0.00  0.00    +0.000 A 
ATOM     15  C   UNL     1      -6.251  -1.563 125.588  0.00  0.00    +0.000 A 
ATOM     16  C   UNL     1      -6.287  -0.365 126.479  0.00  0.00    +0.000 C 
ATOM     17  O   UNL     1      -5.383   0.477 126.408  0.00  0.00    +0.000 OA
ENDROOT
BRANCH   1  18
ATOM     18  C   UNL     1      -8.327   0.914 127.084  0.00  0.00    +0.000 C 
BRANCH  18  19
ATOM     19  C   UNL     1      -9.265   0.687 125.889  0.00  0.00    +0.000 C 
BRANCH  19  21
ATOM     20  C   UNL     1      -8.317   2.735 125.114  0.00  0.00    +0.000 C 
ATOM     21  N   UNL     1      -9.523   1.901 125.090  0.00  0.00    +0.000 NA
ATOM     22  C   UNL     1      -9.863   1.567 123.707  0.00  0.00    +0.000 C 
ENDBRANCH  19  21
ENDBRANCH  18  19
ENDBRANCH   1  18
TORSDOF 3
ENDMDL
MODEL 3
REMARK VINA RESULT:      -6.6      2.199      5.126
REMARK  Name = Dibenzepin
REMARK  6 active torsions:
REMARK  status: ('A' for Active; 'I' for Inactive)
REMARK    1  A    between atoms: C_1  and  N_2
REMARK    2  A    between atoms: N_2  and  C_3
REMARK    3  A    between atoms: N_2  and  C_4
REMARK    4  A    between atoms: C_4  and  C_5
REMARK    5  A    between atoms: C_5  and  N_6
REMARK    6  A    between atoms: N_13  and  C_14
REMARK                            x       y       z     vdW  Elec       q    Type
REMARK                         _______ _______ _______ _____ _____    ______ ____
ROOT
ATOM      1  N   UNL     1      -6.576  -0.673 126.139  0.00  0.00    +0.000 N 
ATOM      2  C   UNL     1      -6.311  -1.414 124.981  0.00  0.00    +0.000 A 
ATOM      3  C   UNL     1      -5.607  -2.611 125.135  0.00  0.00    +0.000 A 
ATOM      4  C   UNL     1      -5.171  -3.294 124.009  0.00  0.00    +0.000 A 
ATOM      5  C   UNL     1      -5.463  -2.790 122.742  0.00  0.00    +0.000 A 
ATOM      6  C   UNL     1      -6.208  -1.613 122.600  0.00  0.00    +0.000 A 
ATOM      7  C   UNL     1      -6.637  -0.901 123.724  0.00  0.00    +0.000 A 
ATOM      8  N   UNL     1      -7.280   0.337 123.587  0.00  0.00    +0.000 N 
ATOM      9  C   UNL     1      -8.628   0.325 123.008  0.00  0.00    +0.000 C 
ATOM     10  C   UNL     1      -6.784   1.537 124.129  0.00  0.00    +0.000 A 
ATOM     11  C   UNL     1      -6.869   2.704 123.343  0.00  0.00    +0.000 A 
ATOM     12  C   UNL     1      -6.287   3.910 123.738  0.00  0.00    +0.000 A 
ATOM     13  C   UNL     1      -5.622   3.992 124.951  0.00  0.00    +0.000 A 
ATOM     14  C   UNL     1      -5.525   2.862 125.753  0.00  0.00    +0.000 A 
ATOM     15  C   UNL     1      -6.075   1.627 125.347  0.00  0.00    +0.000 A 
ATOM     16  C   UNL     1      -5.920   0.521 126.339  0.00  0.00    +0.000 C 
ATOM     17  O   UNL     1      -5.271   0.714 127.374  0.00  0.00    +0.000 OA
ENDROOT
BRANCH   1  18
ATOM     18  C   UNL     1      -7.691  -1.100 126.971  0.00  0.00    +0.000 C 
BRANCH  18  19
ATOM     19  C   UNL     1      -9.010  -1.294 126.208  0.00  0.00    +0.000 C 
BRANCH  19  21
ATOM     20  C   UNL     1      -9.312  -3.190 124.792  0.00  0.00    +0.000 C 
ATOM     21  N   UNL     1      -9.475  -2.694 126.162  0.00  0.00    +0.000 NA
ATOM     22  C   UNL     1      -8.717  -3.539 127.085  0.00  0.00    +0.000 C 
ENDBRANCH  19  21
ENDBRANCH  18  19
ENDBRANCH   1  18
TORSDOF 3
ENDMDL
MODEL 4
REMARK VINA RESULT:      -6.5      6.289      8.915
REMARK  Name = Dibenzepin
REMARK  6 active torsions:
REMARK  status: ('A' for Active; 'I' for Inactive)
REMARK    1  A    between atoms: C_1  and  N_2
REMARK    2  A    between atoms: N_2  and  C_3
REMARK    3  A    between atoms: N_2  and  C_4
REMARK    4  A    between atoms: C_4  and  C_5
REMARK    5  A    between atoms: C_5  and  N_6
REMARK    6  A    between atoms: N_13  and  C_14
REMARK                            x       y       z     vdW  Elec       q    Type
REMARK                         _______ _______ _______ _____ _____    ______ ____
ROOT
ATOM      1  N   UNL     1      -8.020   4.388 129.830  0.00  0.00    +0.000 N 
ATOM      2  C   UNL     1      -8.389   3.265 130.579  0.00  0.00    +0.000 A 
ATOM      3  C   UNL     1      -8.041   2.012 130.068  0.00  0.00    +0.000 A 
ATOM      4  C   UNL     1      -8.529   0.867 130.679  0.00  0.00    +0.000 A 
ATOM      5  C   UNL     1      -9.340   0.982 131.808  0.00  0.00    +0.000 A 
ATOM      6  C   UNL     1      -9.647   2.241 132.338  0.00  0.00    +0.000 A 
ATOM      7  C   UNL     1      -9.179   3.406 131.722  0.00  0.00    +0.000 A 
ATOM      8  N   UNL     1      -9.580   4.669 132.179  0.00  0.00    +0.000 N 
ATOM      9  C   UNL     1      -9.077   5.091 133.491  0.00  0.00    +0.000 C 
ATOM     10  C   UNL     1     -10.273   5.601 131.386  0.00  0.00    +0.000 A 
ATOM     11  C   UNL     1     -11.327   6.324 131.980  0.00  0.00    +0.000 A 
ATOM     12  C   UNL     1     -12.157   7.170 131.243  0.00  0.00    +0.000 A 
ATOM     13  C   UNL     1     -11.939   7.341 129.885  0.00  0.00    +0.000 A 
ATOM     14  C   UNL     1     -10.905   6.648 129.268  0.00  0.00    +0.000 A 
ATOM     15  C   UNL     1     -10.084   5.760 129.994  0.00  0.00    +0.000 A 
ATOM     16  C   UNL     1      -8.995   5.124 129.194  0.00  0.00    +0.000 C 
ATOM     17  O   UNL     1      -8.929   5.332 127.977  0.00  0.00    +0.000 OA
ENDROOT
BRANCH   1  18
ATOM     18  C   UNL     1      -6.642   4.846 129.938  0.00  0.00    +0.000 C 
BRANCH  18  19
ATOM     19  C   UNL     1      -5.747   4.438 128.758  0.00  0.00    +0.000 C 
BRANCH  19  21
ATOM     20  C   UNL     1      -4.160   6.080 129.449  0.00  0.00    +0.000 C 
ATOM     21  N   UNL     1      -4.850   5.511 128.287  0.00  0.00    +0.000 NA
ATOM     22  C   UNL     1      -3.867   5.004 127.330  0.00  0.00    +0.000 C 
ENDBRANCH  19  21
ENDBRANCH  18  19
ENDBRANCH   1  18
TORSDOF 3
ENDMDL
MODEL 5
REMARK VINA RESULT:      -6.4      2.784      5.183
REMARK  Name = Dibenzepin
REMARK  6 active torsions:
REMARK  status: ('A' for Active; 'I' for Inactive)
REMARK    1  A    between atoms: C_1  and  N_2
REMARK    2  A    between atoms: N_2  and  C_3
REMARK    3  A    between atoms: N_2  and  C_4
REMARK    4  A    between atoms: C_4  and  C_5
REMARK    5  A    between atoms: C_5  and  N_6
REMARK    6  A    between atoms: N_13  and  C_14
REMARK                            x       y       z     vdW  Elec       q    Type
REMARK                         _______ _______ _______ _____ _____    ______ ____
ROOT
ATOM      1  N   UNL     1      -6.574   0.217 126.313  0.00  0.00    +0.000 N 
ATOM      2  C   UNL     1      -6.430  -0.796 125.358  0.00  0.00    +0.000 A 
ATOM      3  C   UNL     1      -5.802  -1.975 125.765  0.00  0.00    +0.000 A 
ATOM      4  C   UNL     1      -5.481  -2.938 124.820  0.00  0.00    +0.000 A 
ATOM      5  C   UNL     1      -5.813  -2.727 123.482  0.00  0.00    +0.000 A 
ATOM      6  C   UNL     1      -6.482  -1.561 123.092  0.00  0.00    +0.000 A 
ATOM      7  C   UNL     1      -6.794  -0.571 124.029  0.00  0.00    +0.000 A 
ATOM      8  N   UNL     1      -7.358   0.647 123.624  0.00  0.00    +0.000 N 
ATOM      9  C   UNL     1      -8.735   0.607 123.121  0.00  0.00    +0.000 C 
ATOM     10  C   UNL     1      -6.750   1.898 123.840  0.00  0.00    +0.000 A 
ATOM     11  C   UNL     1      -6.801   2.849 122.801  0.00  0.00    +0.000 A 
ATOM     12  C   UNL     1      -6.115   4.062 122.870  0.00  0.00    +0.000 A 
ATOM     13  C   UNL     1      -5.376   4.376 123.999  0.00  0.00    +0.000 A 
ATOM     14  C   UNL     1      -5.308   3.463 125.045  0.00  0.00    +0.000 A 
ATOM     15  C   UNL     1      -5.965   2.216 124.971  0.00  0.00    +0.000 A 
ATOM     16  C   UNL     1      -5.828   1.368 126.193  0.00  0.00    +0.000 C 
ATOM     17  O   UNL     1      -5.106   1.747 127.123  0.00  0.00    +0.000 OA
ENDROOT
BRANCH   1  18
ATOM     18  C   UNL     1      -7.665   0.091 127.268  0.00  0.00    +0.000 C 
BRANCH  18  19
ATOM     19  C   UNL     1      -8.701   1.223 127.197  0.00  0.00    +0.000 C 
BRANCH  19  21
ATOM     20  C   UNL     1      -8.180   1.285 129.524  0.00  0.00    +0.000 C 
ATOM     21  N   UNL     1      -8.779   2.043 128.421  0.00  0.00    +0.000 NA
ATOM     22  C   UNL     1      -8.074   3.315 128.258  0.00  0.00    +0.000 C 
ENDBRANCH  19  21
ENDBRANCH  18  19
ENDBRANCH   1  18
TORSDOF 3
ENDMDL
MODEL 6
REMARK VINA RESULT:      -6.3      3.348      5.170
REMARK  Name = Dibenzepin
REMARK  6 active torsions:
REMARK  status: ('A' for Active; 'I' for Inactive)
REMARK    1  A    between atoms: C_1  and  N_2
REMARK    2  A    between atoms: N_2  and  C_3
REMARK    3  A    between atoms: N_2  and  C_4
REMARK    4  A    between atoms: C_4  and  C_5
REMARK    5  A    between atoms: C_5  and  N_6
REMARK    6  A    between atoms: N_13  and  C_14
REMARK                            x       y       z     vdW  Elec       q    Type
REMARK                         _______ _______ _______ _____ _____    ______ ____
ROOT
ATOM      1  N   UNL     1      -7.347   2.108 122.866  0.00  0.00    +0.000 N 
ATOM      2  C   UNL     1      -6.462   3.112 122.457  0.00  0.00    +0.000 A 
ATOM      3  C   UNL     1      -6.174   3.195 121.093  0.00  0.00    +0.000 A 
ATOM      4  C   UNL     1      -5.177   4.056 120.659  0.00  0.00    +0.000 A 
ATOM      5  C   UNL     1      -4.495   4.844 121.586  0.00  0.00    +0.000 A 
ATOM      6  C   UNL     1      -4.823   4.785 122.945  0.00  0.00    +0.000 A 
ATOM      7  C   UNL     1      -5.811   3.907 123.403  0.00  0.00    +0.000 A 
ATOM      8  N   UNL     1      -6.060   3.760 124.775  0.00  0.00    +0.000 N 
ATOM      9  C   UNL     1      -6.672   4.901 125.465  0.00  0.00    +0.000 C 
ATOM     10  C   UNL     1      -5.925   2.542 125.465  0.00  0.00    +0.000 A 
ATOM     11  C   UNL     1      -5.338   2.568 126.747  0.00  0.00    +0.000 A 
ATOM     12  C   UNL     1      -5.040   1.401 127.452  0.00  0.00    +0.000 A 
ATOM     13  C   UNL     1      -5.347   0.165 126.905  0.00  0.00    +0.000 A 
ATOM     14  C   UNL     1      -5.931   0.103 125.645  0.00  0.00    +0.000 A 
ATOM     15  C   UNL     1      -6.202   1.274 124.906  0.00  0.00    +0.000 A 
ATOM     16  C   UNL     1      -6.867   1.039 123.589  0.00  0.00    +0.000 C 
ATOM     17  O   UNL     1      -7.055  -0.119 123.197  0.00  0.00    +0.000 OA
ENDROOT
BRANCH   1  18
ATOM     18  C   UNL     1      -8.771   2.352 122.688  0.00  0.00    +0.000 C 
BRANCH  18  19
ATOM     19  C   UNL     1      -9.577   2.372 123.996  0.00  0.00    +0.000 C 
BRANCH  19  21
ATOM     20  C   UNL     1     -10.501   0.457 122.915  0.00  0.00    +0.000 C 
ATOM     21  N   UNL     1     -10.453   1.200 124.179  0.00  0.00    +0.000 NA
ATOM     22  C   UNL     1      -9.963   0.326 125.245  0.00  0.00    +0.000 C 
ENDBRANCH  19  21
ENDBRANCH  18  19
ENDBRANCH   1  18
TORSDOF 3
ENDMDL
MODEL 7
REMARK VINA RESULT:      -6.3      2.628      4.531
REMARK  Name = Dibenzepin
REMARK  6 active torsions:
REMARK  status: ('A' for Active; 'I' for Inactive)
REMARK    1  A    between atoms: C_1  and  N_2
REMARK    2  A    between atoms: N_2  and  C_3
REMARK    3  A    between atoms: N_2  and  C_4
REMARK    4  A    between atoms: C_4  and  C_5
REMARK    5  A    between atoms: C_5  and  N_6
REMARK    6  A    between atoms: N_13  and  C_14
REMARK                            x       y       z     vdW  Elec       q    Type
REMARK                         _______ _______ _______ _____ _____    ______ ____
ROOT
ATOM      1  N   UNL     1      -7.747  -0.182 126.642  0.00  0.00    +0.000 N 
ATOM      2  C   UNL     1      -7.994  -1.463 127.148  0.00  0.00    +0.000 A 
ATOM      3  C   UNL     1      -8.704  -2.348 126.332  0.00  0.00    +0.000 A 
ATOM      4  C   UNL     1      -9.123  -3.564 126.849  0.00  0.00    +0.000 A 
ATOM      5  C   UNL     1      -8.809  -3.898 128.166  0.00  0.00    +0.000 A 
ATOM      6  C   UNL     1      -8.060  -3.023 128.961  0.00  0.00    +0.000 A 
ATOM      7  C   UNL     1      -7.647  -1.783 128.463  0.00  0.00    +0.000 A 
ATOM      8  N   UNL     1      -7.000  -0.857 129.292  0.00  0.00    +0.000 N 
ATOM      9  C   UNL     1      -5.643  -1.196 129.734  0.00  0.00    +0.000 C 
ATOM     10  C   UNL     1      -7.501   0.429 129.564  0.00  0.00    +0.000 A 
ATOM     11  C   UNL     1      -7.401   0.914 130.884  0.00  0.00    +0.000 A 
ATOM     12  C   UNL     1      -7.987   2.117 131.281  0.00  0.00    +0.000 A 
ATOM     13  C   UNL     1      -8.671   2.891 130.356  0.00  0.00    +0.000 A 
ATOM     14  C   UNL     1      -8.784   2.445 129.045  0.00  0.00    +0.000 A 
ATOM     15  C   UNL     1      -8.230   1.212 128.641  0.00  0.00    +0.000 A 
ATOM     16  C   UNL     1      -8.403   0.897 127.191  0.00  0.00    +0.000 C 
ATOM     17  O   UNL     1      -9.068   1.656 126.475  0.00  0.00    +0.000 OA
ENDROOT
BRANCH   1  18
ATOM     18  C   UNL     1      -6.645  -0.030 125.703  0.00  0.00    +0.000 C 
BRANCH  18  19
ATOM     19  C   UNL     1      -7.077   0.048 124.231  0.00  0.00    +0.000 C 
BRANCH  19  21
ATOM     20  C   UNL     1      -5.670  -1.878 124.219  0.00  0.00    +0.000 C 
ATOM     21  N   UNL     1      -6.536  -1.036 123.389  0.00  0.00    +0.000 NA
ATOM     22  C   UNL     1      -7.607  -1.849 122.812  0.00  0.00    +0.000 C 
ENDBRANCH  19  21
ENDBRANCH  18  19
ENDBRANCH   1  18
TORSDOF 3
ENDMDL
MODEL 8
REMARK VINA RESULT:      -6.3      2.549      3.617
REMARK  Name = Dibenzepin
REMARK  6 active torsions:
REMARK  status: ('A' for Active; 'I' for Inactive)
REMARK    1  A    between atoms: C_1  and  N_2
REMARK    2  A    between atoms: N_2  and  C_3
REMARK    3  A    between atoms: N_2  and  C_4
REMARK    4  A    between atoms: C_4  and  C_5
REMARK    5  A    between atoms: C_5  and  N_6
REMARK    6  A    between atoms: N_13  and  C_14
REMARK                            x       y       z     vdW  Elec       q    Type
REMARK                         _______ _______ _______ _____ _____    ______ ____
ROOT
ATOM      1  N   UNL     1      -9.028   0.122 124.782  0.00  0.00    +0.000 N 
ATOM      2  C   UNL     1      -8.406   1.148 124.061  0.00  0.00    +0.000 A 
ATOM      3  C   UNL     1      -9.227   1.980 123.295  0.00  0.00    +0.000 A 
ATOM      4  C   UNL     1      -8.650   2.898 122.431  0.00  0.00    +0.000 A 
ATOM      5  C   UNL     1      -7.261   2.996 122.358  0.00  0.00    +0.000 A 
ATOM      6  C   UNL     1      -6.449   2.188 123.162  0.00  0.00    +0.000 A 
ATOM      7  C   UNL     1      -7.014   1.242 124.023  0.00  0.00    +0.000 A 
ATOM      8  N   UNL     1      -6.203   0.352 124.742  0.00  0.00    +0.000 N 
ATOM      9  C   UNL     1      -5.380   0.922 125.814  0.00  0.00    +0.000 C 
ATOM     10  C   UNL     1      -6.275  -1.047 124.611  0.00  0.00    +0.000 A 
ATOM     11  C   UNL     1      -5.068  -1.773 124.587  0.00  0.00    +0.000 A 
ATOM     12  C   UNL     1      -5.030  -3.144 124.327  0.00  0.00    +0.000 A 
ATOM     13  C   UNL     1      -6.209  -3.839 124.111  0.00  0.00    +0.000 A 
ATOM     14  C   UNL     1      -7.418  -3.155 124.133  0.00  0.00    +0.000 A 
ATOM     15  C   UNL     1      -7.467  -1.762 124.356  0.00  0.00    +0.000 A 
ATOM     16  C   UNL     1      -8.844  -1.185 124.389  0.00  0.00    +0.000 C 
ATOM     17  O   UNL     1      -9.817  -1.908 124.144  0.00  0.00    +0.000 OA
ENDROOT
BRANCH   1  18
ATOM     18  C   UNL     1      -9.664   0.475 126.043  0.00  0.00    +0.000 C 
BRANCH  18  19
ATOM     19  C   UNL     1      -8.682   0.831 127.169  0.00  0.00    +0.000 C 
BRANCH  19  21
ATOM     20  C   UNL     1      -8.724   2.129 129.170  0.00  0.00    +0.000 C 
ATOM     21  N   UNL     1      -8.858   2.192 127.711  0.00  0.00    +0.000 NA
ATOM     22  C   UNL     1      -7.865   3.118 127.165  0.00  0.00    +0.000 C 
ENDBRANCH  19  21
ENDBRANCH  18  19
ENDBRANCH   1  18
TORSDOF 3
ENDMDL
MODEL 9
REMARK VINA RESULT:      -6.2      2.295      4.069
REMARK  Name = Dibenzepin
REMARK  6 active torsions:
REMARK  status: ('A' for Active; 'I' for Inactive)
REMARK    1  A    between atoms: C_1  and  N_2
REMARK    2  A    between atoms: N_2  and  C_3
REMARK    3  A    between atoms: N_2  and  C_4
REMARK    4  A    between atoms: C_4  and  C_5
REMARK    5  A    between atoms: C_5  and  N_6
REMARK    6  A    between atoms: N_13  and  C_14
REMARK                            x       y       z     vdW  Elec       q    Type
REMARK                         _______ _______ _______ _____ _____    ______ ____
ROOT
ATOM      1  N   UNL     1      -6.638   0.600 126.673  0.00  0.00    +0.000 N 
ATOM      2  C   UNL     1      -7.566   0.916 125.674  0.00  0.00    +0.000 A 
ATOM      3  C   UNL     1      -7.885   2.265 125.501  0.00  0.00    +0.000 A 
ATOM      4  C   UNL     1      -8.920   2.617 124.647  0.00  0.00    +0.000 A 
ATOM      5  C   UNL     1      -9.609   1.621 123.955  0.00  0.00    +0.000 A 
ATOM      6  C   UNL     1      -9.252   0.276 124.103  0.00  0.00    +0.000 A 
ATOM      7  C   UNL     1      -8.225  -0.097 124.976  0.00  0.00    +0.000 A 
ATOM      8  N   UNL     1      -7.944  -1.450 125.215  0.00  0.00    +0.000 N 
ATOM      9  C   UNL     1      -7.358  -2.212 124.107  0.00  0.00    +0.000 C 
ATOM     10  C   UNL     1      -8.023  -2.049 126.485  0.00  0.00    +0.000 A 
ATOM     11  C   UNL     1      -8.584  -3.339 126.576  0.00  0.00    +0.000 A 
ATOM     12  C   UNL     1      -8.827  -3.960 127.802  0.00  0.00    +0.000 A 
ATOM     13  C   UNL     1      -8.488  -3.316 128.982  0.00  0.00    +0.000 A 
ATOM     14  C   UNL     1      -7.927  -2.046 128.929  0.00  0.00    +0.000 A 
ATOM     15  C   UNL     1      -7.713  -1.392 127.697  0.00  0.00    +0.000 A 
ATOM     16  C   UNL     1      -7.067  -0.050 127.809  0.00  0.00    +0.000 C 
ATOM     17  O   UNL     1      -6.846   0.431 128.927  0.00  0.00    +0.000 OA
ENDROOT
BRANCH   1  18
ATOM     18  C   UNL     1      -5.227   0.784 126.365  0.00  0.00    +0.000 C 
BRANCH  18  19
ATOM     19  C   UNL     1      -4.571   1.968 127.090  0.00  0.00    +0.000 C 
BRANCH  19  21
ATOM     20  C   UNL     1      -4.592   4.168 126.168  0.00  0.00    +0.000 C 
ATOM     21  N   UNL     1      -3.858   2.899 126.195  0.00  0.00    +0.000 NA
ATOM     22  C   UNL     1      -2.486   3.132 126.650  0.00  0.00    +0.000 C 
ENDBRANCH  19  21
ENDBRANCH  18  19
ENDBRANCH   1  18
TORSDOF 3
ENDMDL
