MODEL 1
REMARK VINA RESULT:      -5.4      0.000      0.000
REMARK  Name = Dichlorobenzyl alcohol
REMARK  2 active torsions:
REMARK  status: ('A' for Active; 'I' for Inactive)
REMARK    1  A    between atoms: O_1  and  C_2
REMARK    2  A    between atoms: C_2  and  C_3
REMARK                            x       y       z     vdW  Elec       q    Type
REMARK                         _______ _______ _______ _____ _____    ______ ____
ROOT
ATOM      1  C   UNL     1      -5.531   4.614 120.714  0.00  0.00    +0.000 A 
ATOM      2  C   UNL     1      -6.579   3.887 121.304  0.00  0.00    +0.000 A 
ATOM      3 CL   UNL     1      -6.408   3.127 122.850  0.00  0.00    +0.000 Cl
ATOM      4  C   UNL     1      -7.806   3.743 120.653  0.00  0.00    +0.000 A 
ATOM      5  C   UNL     1      -7.986   4.302 119.392  0.00  0.00    +0.000 A 
ATOM      6 CL   UNL     1      -9.505   4.145 118.600  0.00  0.00    +0.000 Cl
ATOM      7  C   UNL     1      -6.948   4.988 118.769  0.00  0.00    +0.000 A 
ATOM      8  C   UNL     1      -5.724   5.143 119.424  0.00  0.00    +0.000 A 
ENDROOT
BRANCH   1   9
ATOM      9  C   UNL     1      -4.236   4.869 121.436  0.00  0.00    +0.000 C 
BRANCH   9  10
ATOM     10  O   UNL     1      -3.866   6.225 121.233  0.00  0.00    +0.000 OA
ATOM     11  H   UNL     1      -3.287   6.253 120.455  0.00  0.00    +0.000 HD
ENDBRANCH   9  10
ENDBRANCH   1   9
TORSDOF 2
ENDMDL
MODEL 2
REMARK VINA RESULT:      -5.3      1.527      3.124
REMARK  Name = Dichlorobenzyl alcohol
REMARK  2 active torsions:
REMARK  status: ('A' for Active; 'I' for Inactive)
REMARK    1  A    between atoms: O_1  and  C_2
REMARK    2  A    between atoms: C_2  and  C_3
REMARK                            x       y       z     vdW  Elec       q    Type
REMARK                         _______ _______ _______ _____ _____    ______ ____
ROOT
ATOM      1  C   UNL     1      -6.241   4.273 120.703  0.00  0.00    +0.000 A 
ATOM      2  C   UNL     1      -7.567   4.031 120.306  0.00  0.00    +0.000 A 
ATOM      3 CL   UNL     1      -8.154   4.498 118.746  0.00  0.00    +0.000 Cl
ATOM      4  C   UNL     1      -8.470   3.408 121.170  0.00  0.00    +0.000 A 
ATOM      5  C   UNL     1      -8.061   3.046 122.449  0.00  0.00    +0.000 A 
ATOM      6 CL   UNL     1      -9.168   2.256 123.504  0.00  0.00    +0.000 Cl
ATOM      7  C   UNL     1      -6.766   3.315 122.880  0.00  0.00    +0.000 A 
ATOM      8  C   UNL     1      -5.858   3.928 122.013  0.00  0.00    +0.000 A 
ENDROOT
BRANCH   1   9
ATOM      9  C   UNL     1      -5.221   4.851 119.760  0.00  0.00    +0.000 C 
BRANCH   9  10
ATOM     10  O   UNL     1      -4.868   6.149 120.216  0.00  0.00    +0.000 OA
ATOM     11  H   UNL     1      -4.198   6.497 119.606  0.00  0.00    +0.000 HD
ENDBRANCH   9  10
ENDBRANCH   1   9
TORSDOF 2
ENDMDL
MODEL 3
REMARK VINA RESULT:      -5.2     10.961     12.085
REMARK  Name = Dichlorobenzyl alcohol
REMARK  2 active torsions:
REMARK  status: ('A' for Active; 'I' for Inactive)
REMARK    1  A    between atoms: O_1  and  C_2
REMARK    2  A    between atoms: C_2  and  C_3
REMARK                            x       y       z     vdW  Elec       q    Type
REMARK                         _______ _______ _______ _____ _____    ______ ____
ROOT
ATOM      1  C   UNL     1     -12.428   8.148 129.607  0.00  0.00    +0.000 A 
ATOM      2  C   UNL     1     -11.100   7.863 129.249  0.00  0.00    +0.000 A 
ATOM      3 CL   UNL     1     -10.423   8.397 127.748  0.00  0.00    +0.000 Cl
ATOM      4  C   UNL     1     -10.273   7.124 130.096  0.00  0.00    +0.000 A 
ATOM      5  C   UNL     1     -10.777   6.638 131.299  0.00  0.00    +0.000 A 
ATOM      6 CL   UNL     1      -9.751   5.748 132.354  0.00  0.00    +0.000 Cl
ATOM      7  C   UNL     1     -12.102   6.869 131.654  0.00  0.00    +0.000 A 
ATOM      8  C   UNL     1     -12.928   7.619 130.812  0.00  0.00    +0.000 A 
ENDROOT
BRANCH   1   9
ATOM      9  C   UNL     1     -13.309   9.025 128.760  0.00  0.00    +0.000 C 
BRANCH   9  10
ATOM     10  O   UNL     1     -13.051  10.382 129.095  0.00  0.00    +0.000 OA
ATOM     11  H   UNL     1     -13.740  10.919 128.672  0.00  0.00    +0.000 HD
ENDBRANCH   9  10
ENDBRANCH   1   9
TORSDOF 2
ENDMDL
MODEL 4
REMARK VINA RESULT:      -5.0     11.058     11.820
REMARK  Name = Dichlorobenzyl alcohol
REMARK  2 active torsions:
REMARK  status: ('A' for Active; 'I' for Inactive)
REMARK    1  A    between atoms: O_1  and  C_2
REMARK    2  A    between atoms: C_2  and  C_3
REMARK                            x       y       z     vdW  Elec       q    Type
REMARK                         _______ _______ _______ _____ _____    ______ ____
ROOT
ATOM      1  C   UNL     1     -10.541   6.376 131.627  0.00  0.00    +0.000 A 
ATOM      2  C   UNL     1      -9.751   6.990 130.641  0.00  0.00    +0.000 A 
ATOM      3 CL   UNL     1      -8.023   6.906 130.670  0.00  0.00    +0.000 Cl
ATOM      4  C   UNL     1     -10.339   7.706 129.596  0.00  0.00    +0.000 A 
ATOM      5  C   UNL     1     -11.723   7.837 129.544  0.00  0.00    +0.000 A 
ATOM      6 CL   UNL     1     -12.448   8.699 128.244  0.00  0.00    +0.000 Cl
ATOM      7  C   UNL     1     -12.523   7.275 130.534  0.00  0.00    +0.000 A 
ATOM      8  C   UNL     1     -11.937   6.549 131.573  0.00  0.00    +0.000 A 
ENDROOT
BRANCH   1   9
ATOM      9  C   UNL     1      -9.940   5.516 132.705  0.00  0.00    +0.000 C 
BRANCH   9  10
ATOM     10  O   UNL     1      -9.476   6.360 133.749  0.00  0.00    +0.000 OA
ATOM     11  H   UNL     1      -9.458   5.830 134.562  0.00  0.00    +0.000 HD
ENDBRANCH   9  10
ENDBRANCH   1   9
TORSDOF 2
ENDMDL
MODEL 5
REMARK VINA RESULT:      -5.0     10.152     10.735
REMARK  Name = Dichlorobenzyl alcohol
REMARK  2 active torsions:
REMARK  status: ('A' for Active; 'I' for Inactive)
REMARK    1  A    between atoms: O_1  and  C_2
REMARK    2  A    between atoms: C_2  and  C_3
REMARK                            x       y       z     vdW  Elec       q    Type
REMARK                         _______ _______ _______ _____ _____    ______ ____
ROOT
ATOM      1  C   UNL     1     -10.657   6.825 129.298  0.00  0.00    +0.000 A 
ATOM      2  C   UNL     1     -11.538   7.189 130.330  0.00  0.00    +0.000 A 
ATOM      3 CL   UNL     1     -11.509   6.409 131.875  0.00  0.00    +0.000 Cl
ATOM      4  C   UNL     1     -12.485   8.197 130.140  0.00  0.00    +0.000 A 
ATOM      5  C   UNL     1     -12.577   8.832 128.906  0.00  0.00    +0.000 A 
ATOM      6 CL   UNL     1     -13.728  10.091 128.680  0.00  0.00    +0.000 Cl
ATOM      7  C   UNL     1     -11.746   8.458 127.855  0.00  0.00    +0.000 A 
ATOM      8  C   UNL     1     -10.790   7.457 128.047  0.00  0.00    +0.000 A 
ENDROOT
BRANCH   1   9
ATOM      9  C   UNL     1      -9.563   5.813 129.506  0.00  0.00    +0.000 C 
BRANCH   9  10
ATOM     10  O   UNL     1      -9.035   5.451 128.238  0.00  0.00    +0.000 OA
ATOM     11  H   UNL     1      -9.759   5.517 127.595  0.00  0.00    +0.000 HD
ENDBRANCH   9  10
ENDBRANCH   1   9
TORSDOF 2
ENDMDL
MODEL 6
REMARK VINA RESULT:      -4.8      7.349      8.476
REMARK  Name = Dichlorobenzyl alcohol
REMARK  2 active torsions:
REMARK  status: ('A' for Active; 'I' for Inactive)
REMARK    1  A    between atoms: O_1  and  C_2
REMARK    2  A    between atoms: C_2  and  C_3
REMARK                            x       y       z     vdW  Elec       q    Type
REMARK                         _______ _______ _______ _____ _____    ______ ____
ROOT
ATOM      1  C   UNL     1      -7.837  -1.537 123.659  0.00  0.00    +0.000 A 
ATOM      2  C   UNL     1      -7.993  -2.689 124.448  0.00  0.00    +0.000 A 
ATOM      3 CL   UNL     1      -9.400  -2.948 125.421  0.00  0.00    +0.000 Cl
ATOM      4  C   UNL     1      -7.002  -3.672 124.482  0.00  0.00    +0.000 A 
ATOM      5  C   UNL     1      -5.833  -3.498 123.747  0.00  0.00    +0.000 A 
ATOM      6 CL   UNL     1      -4.623  -4.720 123.771  0.00  0.00    +0.000 Cl
ATOM      7  C   UNL     1      -5.637  -2.345 122.994  0.00  0.00    +0.000 A 
ATOM      8  C   UNL     1      -6.633  -1.365 122.950  0.00  0.00    +0.000 A 
ENDROOT
BRANCH   1   9
ATOM      9  C   UNL     1      -8.930  -0.512 123.525  0.00  0.00    +0.000 C 
BRANCH   9  10
ATOM     10  O   UNL     1      -9.912  -1.012 122.628  0.00  0.00    +0.000 OA
ATOM     11  H   UNL     1      -9.542  -0.950 121.733  0.00  0.00    +0.000 HD
ENDBRANCH   9  10
ENDBRANCH   1   9
TORSDOF 2
ENDMDL
MODEL 7
REMARK VINA RESULT:      -4.5     10.685     11.894
REMARK  Name = Dichlorobenzyl alcohol
REMARK  2 active torsions:
REMARK  status: ('A' for Active; 'I' for Inactive)
REMARK    1  A    between atoms: O_1  and  C_2
REMARK    2  A    between atoms: C_2  and  C_3
REMARK                            x       y       z     vdW  Elec       q    Type
REMARK                         _______ _______ _______ _____ _____    ______ ____
ROOT
ATOM      1  C   UNL     1      -9.956   7.206 130.258  0.00  0.00    +0.000 A 
ATOM      2  C   UNL     1     -10.869   6.718 131.209  0.00  0.00    +0.000 A 
ATOM      3 CL   UNL     1     -12.577   6.930 131.029  0.00  0.00    +0.000 Cl
ATOM      4  C   UNL     1     -10.424   6.046 132.349  0.00  0.00    +0.000 A 
ATOM      5  C   UNL     1      -9.059   5.880 132.562  0.00  0.00    +0.000 A 
ATOM      6 CL   UNL     1      -8.512   5.031 133.955  0.00  0.00    +0.000 Cl
ATOM      7  C   UNL     1      -8.135   6.393 131.657  0.00  0.00    +0.000 A 
ATOM      8  C   UNL     1      -8.579   7.056 130.510  0.00  0.00    +0.000 A 
ENDROOT
BRANCH   1   9
ATOM      9  C   UNL     1     -10.411   7.844 128.974  0.00  0.00    +0.000 C 
BRANCH   9  10
ATOM     10  O   UNL     1      -9.926   7.068 127.887  0.00  0.00    +0.000 OA
ATOM     11  H   UNL     1      -9.348   6.382 128.258  0.00  0.00    +0.000 HD
ENDBRANCH   9  10
ENDBRANCH   1   9
TORSDOF 2
ENDMDL
MODEL 8
REMARK VINA RESULT:      -4.5      8.660      9.961
REMARK  Name = Dichlorobenzyl alcohol
REMARK  2 active torsions:
REMARK  status: ('A' for Active; 'I' for Inactive)
REMARK    1  A    between atoms: O_1  and  C_2
REMARK    2  A    between atoms: C_2  and  C_3
REMARK                            x       y       z     vdW  Elec       q    Type
REMARK                         _______ _______ _______ _____ _____    ______ ____
ROOT
ATOM      1  C   UNL     1      -8.349  -2.907 124.736  0.00  0.00    +0.000 A 
ATOM      2  C   UNL     1      -7.035  -2.487 125.007  0.00  0.00    +0.000 A 
ATOM      3 CL   UNL     1      -5.904  -2.151 123.741  0.00  0.00    +0.000 Cl
ATOM      4  C   UNL     1      -6.590  -2.334 126.321  0.00  0.00    +0.000 A 
ATOM      5  C   UNL     1      -7.447  -2.627 127.377  0.00  0.00    +0.000 A 
ATOM      6 CL   UNL     1      -6.905  -2.415 128.996  0.00  0.00    +0.000 Cl
ATOM      7  C   UNL     1      -8.737  -3.087 127.134  0.00  0.00    +0.000 A 
ATOM      8  C   UNL     1      -9.188  -3.230 125.819  0.00  0.00    +0.000 A 
ENDROOT
BRANCH   1   9
ATOM      9  C   UNL     1      -8.885  -2.984 123.332  0.00  0.00    +0.000 C 
BRANCH   9  10
ATOM     10  O   UNL     1     -10.209  -3.496 123.382  0.00  0.00    +0.000 OA
ATOM     11  H   UNL     1     -10.244  -4.134 124.113  0.00  0.00    +0.000 HD
ENDBRANCH   9  10
ENDBRANCH   1   9
TORSDOF 2
ENDMDL
MODEL 9
REMARK VINA RESULT:      -4.4      3.295      4.197
REMARK  Name = Dichlorobenzyl alcohol
REMARK  2 active torsions:
REMARK  status: ('A' for Active; 'I' for Inactive)
REMARK    1  A    between atoms: O_1  and  C_2
REMARK    2  A    between atoms: C_2  and  C_3
REMARK                            x       y       z     vdW  Elec       q    Type
REMARK                         _______ _______ _______ _____ _____    ______ ____
ROOT
ATOM      1  C   UNL     1      -7.260   3.312 123.786  0.00  0.00    +0.000 A 
ATOM      2  C   UNL     1      -7.829   3.072 122.524  0.00  0.00    +0.000 A 
ATOM      3 CL   UNL     1      -9.331   2.230 122.344  0.00  0.00    +0.000 Cl
ATOM      4  C   UNL     1      -7.192   3.501 121.358  0.00  0.00    +0.000 A 
ATOM      5  C   UNL     1      -5.965   4.150 121.443  0.00  0.00    +0.000 A 
ATOM      6 CL   UNL     1      -5.192   4.699 120.008  0.00  0.00    +0.000 Cl
ATOM      7  C   UNL     1      -5.360   4.359 122.679  0.00  0.00    +0.000 A 
ATOM      8  C   UNL     1      -6.002   3.941 123.847  0.00  0.00    +0.000 A 
ENDROOT
BRANCH   1   9
ATOM      9  C   UNL     1      -7.972   2.950 125.062  0.00  0.00    +0.000 C 
BRANCH   9  10
ATOM     10  O   UNL     1      -9.031   3.875 125.265  0.00  0.00    +0.000 OA
ATOM     11  H   UNL     1      -8.720   4.742 124.960  0.00  0.00    +0.000 HD
ENDBRANCH   9  10
ENDBRANCH   1   9
TORSDOF 2
ENDMDL
