MODEL 1
REMARK VINA RESULT:      -4.0      0.000      0.000
REMARK  Name = Dichloroacetic acid
REMARK  2 active torsions:
REMARK  status: ('A' for Active; 'I' for Inactive)
REMARK    1  A    between atoms: O_1  and  C_2
REMARK    2  A    between atoms: C_2  and  C_4
REMARK                            x       y       z     vdW  Elec       q    Type
REMARK                         _______ _______ _______ _____ _____    ______ ____
ROOT
ATOM      1  C   UNL     1      -5.333   5.420 119.764  0.00  0.00    +0.000 C 
ATOM      2  O   UNL     1      -4.646   6.189 120.428  0.00  0.00    +0.000 OA
ENDROOT
BRANCH   1   3
ATOM      3  C   UNL     1      -5.975   4.137 120.282  0.00  0.00    +0.000 C 
ATOM      4 CL   UNL     1      -5.663   3.980 122.024  0.00  0.00    +0.000 Cl
ATOM      5 CL   UNL     1      -7.720   4.110 119.961  0.00  0.00    +0.000 Cl
ENDBRANCH   1   3
BRANCH   1   6
ATOM      6  O   UNL     1      -5.620   5.717 118.466  0.00  0.00    +0.000 OA
ATOM      7  H   UNL     1      -6.181   6.504 118.315  0.00  0.00    +0.000 HD
ENDBRANCH   1   6
TORSDOF 2
ENDMDL
MODEL 2
REMARK VINA RESULT:      -3.8      9.232      9.593
REMARK  Name = Dichloroacetic acid
REMARK  2 active torsions:
REMARK  status: ('A' for Active; 'I' for Inactive)
REMARK    1  A    between atoms: O_1  and  C_2
REMARK    2  A    between atoms: C_2  and  C_4
REMARK                            x       y       z     vdW  Elec       q    Type
REMARK                         _______ _______ _______ _____ _____    ______ ____
ROOT
ATOM      1  C   UNL     1     -10.801   7.084 126.746  0.00  0.00    +0.000 C 
ATOM      2  O   UNL     1      -9.781   6.474 126.442  0.00  0.00    +0.000 OA
ENDROOT
BRANCH   1   3
ATOM      3  C   UNL     1     -10.876   8.246 127.732  0.00  0.00    +0.000 C 
ATOM      4 CL   UNL     1     -12.578   8.599 128.099  0.00  0.00    +0.000 Cl
ATOM      5 CL   UNL     1      -9.982   7.892 129.222  0.00  0.00    +0.000 Cl
ENDBRANCH   1   3
BRANCH   1   6
ATOM      6  O   UNL     1     -11.982   6.774 126.141  0.00  0.00    +0.000 OA
ATOM      7  H   UNL     1     -11.922   6.390 125.244  0.00  0.00    +0.000 HD
ENDBRANCH   1   6
TORSDOF 2
ENDMDL
MODEL 3
REMARK VINA RESULT:      -3.6      9.533      9.723
REMARK  Name = Dichloroacetic acid
REMARK  2 active torsions:
REMARK  status: ('A' for Active; 'I' for Inactive)
REMARK    1  A    between atoms: O_1  and  C_2
REMARK    2  A    between atoms: C_2  and  C_4
REMARK                            x       y       z     vdW  Elec       q    Type
REMARK                         _______ _______ _______ _____ _____    ______ ____
ROOT
ATOM      1  C   UNL     1     -11.555   7.446 126.447  0.00  0.00    +0.000 C 
ATOM      2  O   UNL     1     -10.817   8.007 125.644  0.00  0.00    +0.000 OA
ENDROOT
BRANCH   1   3
ATOM      3  C   UNL     1     -11.665   7.781 127.931  0.00  0.00    +0.000 C 
ATOM      4 CL   UNL     1     -10.200   8.642 128.452  0.00  0.00    +0.000 Cl
ATOM      5 CL   UNL     1     -13.108   8.753 128.272  0.00  0.00    +0.000 Cl
ENDBRANCH   1   3
BRANCH   1   6
ATOM      6  O   UNL     1     -12.407   6.473 126.018  0.00  0.00    +0.000 OA
ATOM      7  H   UNL     1     -12.333   5.606 126.462  0.00  0.00    +0.000 HD
ENDBRANCH   1   6
TORSDOF 2
ENDMDL
MODEL 4
REMARK VINA RESULT:      -3.5     10.096     10.385
REMARK  Name = Dichloroacetic acid
REMARK  2 active torsions:
REMARK  status: ('A' for Active; 'I' for Inactive)
REMARK    1  A    between atoms: O_1  and  C_2
REMARK    2  A    between atoms: C_2  and  C_4
REMARK                            x       y       z     vdW  Elec       q    Type
REMARK                         _______ _______ _______ _____ _____    ______ ____
ROOT
ATOM      1  C   UNL     1     -11.343   7.546 127.338  0.00  0.00    +0.000 C 
ATOM      2  O   UNL     1     -10.199   7.806 127.694  0.00  0.00    +0.000 OA
ENDROOT
BRANCH   1   3
ATOM      3  C   UNL     1     -12.614   8.135 127.943  0.00  0.00    +0.000 C 
ATOM      4 CL   UNL     1     -13.887   6.897 127.965  0.00  0.00    +0.000 Cl
ATOM      5 CL   UNL     1     -12.326   8.756 129.579  0.00  0.00    +0.000 Cl
ENDBRANCH   1   3
BRANCH   1   6
ATOM      6  O   UNL     1     -11.551   6.707 126.284  0.00  0.00    +0.000 OA
ATOM      7  H   UNL     1     -10.760   6.455 125.769  0.00  0.00    +0.000 HD
ENDBRANCH   1   6
TORSDOF 2
ENDMDL
MODEL 5
REMARK VINA RESULT:      -3.4      2.502      3.160
REMARK  Name = Dichloroacetic acid
REMARK  2 active torsions:
REMARK  status: ('A' for Active; 'I' for Inactive)
REMARK    1  A    between atoms: O_1  and  C_2
REMARK    2  A    between atoms: C_2  and  C_4
REMARK                            x       y       z     vdW  Elec       q    Type
REMARK                         _______ _______ _______ _____ _____    ______ ____
ROOT
ATOM      1  C   UNL     1      -7.708   4.133 119.998  0.00  0.00    +0.000 C 
ATOM      2  O   UNL     1      -8.215   4.444 118.925  0.00  0.00    +0.000 OA
ENDROOT
BRANCH   1   3
ATOM      3  C   UNL     1      -6.211   4.033 120.274  0.00  0.00    +0.000 C 
ATOM      4 CL   UNL     1      -5.380   5.418 119.532  0.00  0.00    +0.000 Cl
ATOM      5 CL   UNL     1      -5.874   3.969 122.013  0.00  0.00    +0.000 Cl
ENDBRANCH   1   3
BRANCH   1   6
ATOM      6  O   UNL     1      -8.502   3.901 121.081  0.00  0.00    +0.000 OA
ATOM      7  H   UNL     1      -8.137   4.161 121.950  0.00  0.00    +0.000 HD
ENDBRANCH   1   6
TORSDOF 2
ENDMDL
MODEL 6
REMARK VINA RESULT:      -3.3      9.889     10.200
REMARK  Name = Dichloroacetic acid
REMARK  2 active torsions:
REMARK  status: ('A' for Active; 'I' for Inactive)
REMARK    1  A    between atoms: O_1  and  C_2
REMARK    2  A    between atoms: C_2  and  C_4
REMARK                            x       y       z     vdW  Elec       q    Type
REMARK                         _______ _______ _______ _____ _____    ______ ____
ROOT
ATOM      1  C   UNL     1     -11.081   7.480 127.292  0.00  0.00    +0.000 C 
ATOM      2  O   UNL     1     -10.689   6.795 126.353  0.00  0.00    +0.000 OA
ENDROOT
BRANCH   1   3
ATOM      3  C   UNL     1     -12.514   7.530 127.813  0.00  0.00    +0.000 C 
ATOM      4 CL   UNL     1     -12.743   6.260 129.033  0.00  0.00    +0.000 Cl
ATOM      5 CL   UNL     1     -12.901   9.121 128.495  0.00  0.00    +0.000 Cl
ENDBRANCH   1   3
BRANCH   1   6
ATOM      6  O   UNL     1     -10.192   8.236 127.996  0.00  0.00    +0.000 OA
ATOM      7  H   UNL     1     -10.538   8.678 128.796  0.00  0.00    +0.000 HD
ENDBRANCH   1   6
TORSDOF 2
ENDMDL
MODEL 7
REMARK VINA RESULT:      -3.3     12.248     12.731
REMARK  Name = Dichloroacetic acid
REMARK  2 active torsions:
REMARK  status: ('A' for Active; 'I' for Inactive)
REMARK    1  A    between atoms: O_1  and  C_2
REMARK    2  A    between atoms: C_2  and  C_4
REMARK                            x       y       z     vdW  Elec       q    Type
REMARK                         _______ _______ _______ _____ _____    ______ ____
ROOT
ATOM      1  C   UNL     1     -12.145   6.761 131.309  0.00  0.00    +0.000 C 
ATOM      2  O   UNL     1     -13.240   7.218 131.622  0.00  0.00    +0.000 OA
ENDROOT
BRANCH   1   3
ATOM      3  C   UNL     1     -11.386   7.084 130.026  0.00  0.00    +0.000 C 
ATOM      4 CL   UNL     1     -12.008   8.599 129.337  0.00  0.00    +0.000 Cl
ATOM      5 CL   UNL     1      -9.641   7.208 130.318  0.00  0.00    +0.000 Cl
ENDBRANCH   1   3
BRANCH   1   6
ATOM      6  O   UNL     1     -11.485   5.935 132.169  0.00  0.00    +0.000 OA
ATOM      7  H   UNL     1     -11.531   6.169 133.117  0.00  0.00    +0.000 HD
ENDBRANCH   1   6
TORSDOF 2
ENDMDL
MODEL 8
REMARK VINA RESULT:      -3.3      9.728     10.052
REMARK  Name = Dichloroacetic acid
REMARK  2 active torsions:
REMARK  status: ('A' for Active; 'I' for Inactive)
REMARK    1  A    between atoms: O_1  and  C_2
REMARK    2  A    between atoms: C_2  and  C_4
REMARK                            x       y       z     vdW  Elec       q    Type
REMARK                         _______ _______ _______ _____ _____    ______ ____
ROOT
ATOM      1  C   UNL     1     -10.448   7.242 128.110  0.00  0.00    +0.000 C 
ATOM      2  O   UNL     1      -9.784   6.453 127.445  0.00  0.00    +0.000 OA
ENDROOT
BRANCH   1   3
ATOM      3  C   UNL     1     -11.971   7.333 128.114  0.00  0.00    +0.000 C 
ATOM      4 CL   UNL     1     -12.463   8.958 128.637  0.00  0.00    +0.000 Cl
ATOM      5 CL   UNL     1     -12.647   6.966 126.516  0.00  0.00    +0.000 Cl
ENDBRANCH   1   3
BRANCH   1   6
ATOM      6  O   UNL     1      -9.825   8.092 128.974  0.00  0.00    +0.000 OA
ATOM      7  H   UNL     1      -9.227   8.754 128.574  0.00  0.00    +0.000 HD
ENDBRANCH   1   6
TORSDOF 2
ENDMDL
MODEL 9
REMARK VINA RESULT:      -3.3     11.573     11.908
REMARK  Name = Dichloroacetic acid
REMARK  2 active torsions:
REMARK  status: ('A' for Active; 'I' for Inactive)
REMARK    1  A    between atoms: O_1  and  C_2
REMARK    2  A    between atoms: C_2  and  C_4
REMARK                            x       y       z     vdW  Elec       q    Type
REMARK                         _______ _______ _______ _____ _____    ______ ____
ROOT
ATOM      1  C   UNL     1     -12.677   7.191 129.460  0.00  0.00    +0.000 C 
ATOM      2  O   UNL     1     -13.094   7.193 130.614  0.00  0.00    +0.000 OA
ENDROOT
BRANCH   1   3
ATOM      3  C   UNL     1     -12.471   8.428 128.592  0.00  0.00    +0.000 C 
ATOM      4 CL   UNL     1     -13.039   9.866 129.468  0.00  0.00    +0.000 Cl
ATOM      5 CL   UNL     1     -10.771   8.619 128.126  0.00  0.00    +0.000 Cl
ENDBRANCH   1   3
BRANCH   1   6
ATOM      6  O   UNL     1     -12.301   6.018 128.877  0.00  0.00    +0.000 OA
ATOM      7  H   UNL     1     -12.189   6.033 127.906  0.00  0.00    +0.000 HD
ENDBRANCH   1   6
TORSDOF 2
ENDMDL
