MODEL 1
REMARK VINA RESULT:      -7.2      0.000      0.000
REMARK  Name = Diclofenac
REMARK  5 active torsions:
REMARK  status: ('A' for Active; 'I' for Inactive)
REMARK    1  A    between atoms: O_1  and  C_2
REMARK    2  A    between atoms: C_2  and  C_4
REMARK    3  A    between atoms: C_4  and  C_5
REMARK    4  A    between atoms: C_10  and  N_11
REMARK    5  A    between atoms: N_11  and  C_12
REMARK                            x       y       z     vdW  Elec       q    Type
REMARK                         _______ _______ _______ _____ _____    ______ ____
ROOT
ATOM      1  C   UNL     1     -11.517   7.855 128.753  0.00  0.00    +0.000 A 
ATOM      2  C   UNL     1     -12.445   8.857 129.150  0.00  0.00    +0.000 A 
ATOM      3  C   UNL     1     -13.012   8.846 130.410  0.00  0.00    +0.000 A 
ATOM      4  C   UNL     1     -12.741   7.776 131.248  0.00  0.00    +0.000 A 
ATOM      5  C   UNL     1     -11.811   6.778 130.873  0.00  0.00    +0.000 A 
ATOM      6  C   UNL     1     -11.128   6.807 129.631  0.00  0.00    +0.000 A 
ENDROOT
BRANCH   6   7
ATOM      7  N   UNL     1      -9.918   6.003 129.495  0.00  0.00    +0.000 N 
ATOM      8  H   UNL     1      -9.298   6.409 128.795  0.00  0.00    +0.000 HD
BRANCH   7   9
ATOM      9  C   UNL     1      -9.195   5.172 130.425  0.00  0.00    +0.000 A 
ATOM     10  C   UNL     1      -9.696   3.908 130.813  0.00  0.00    +0.000 A 
ATOM     11 CL   UNL     1     -11.272   3.362 130.355  0.00  0.00    +0.000 Cl
ATOM     12  C   UNL     1      -8.912   2.990 131.539  0.00  0.00    +0.000 A 
ATOM     13  C   UNL     1      -7.568   3.243 131.767  0.00  0.00    +0.000 A 
ATOM     14  C   UNL     1      -7.095   4.520 131.538  0.00  0.00    +0.000 A 
ATOM     15  C   UNL     1      -7.938   5.520 131.010  0.00  0.00    +0.000 A 
ATOM     16 CL   UNL     1      -7.223   7.107 131.085  0.00  0.00    +0.000 Cl
ENDBRANCH   7   9
ENDBRANCH   6   7
BRANCH   1  17
ATOM     17  C   UNL     1     -10.697   8.236 127.556  0.00  0.00    +0.000 C 
BRANCH  17  18
ATOM     18  C   UNL     1     -10.720   7.034 126.652  0.00  0.00    +0.000 C 
ATOM     19  O   UNL     1      -9.724   6.368 126.355  0.00  0.00    +0.000 OA
BRANCH  18  20
ATOM     20  O   UNL     1     -11.937   6.755 126.149  0.00  0.00    +0.000 OA
ATOM     21  H   UNL     1     -11.900   6.481 125.215  0.00  0.00    +0.000 HD
ENDBRANCH  18  20
ENDBRANCH  17  18
ENDBRANCH   1  17
TORSDOF 5
ENDMDL
MODEL 2
REMARK VINA RESULT:      -7.2      0.709      2.224
REMARK  Name = Diclofenac
REMARK  5 active torsions:
REMARK  status: ('A' for Active; 'I' for Inactive)
REMARK    1  A    between atoms: O_1  and  C_2
REMARK    2  A    between atoms: C_2  and  C_4
REMARK    3  A    between atoms: C_4  and  C_5
REMARK    4  A    between atoms: C_10  and  N_11
REMARK    5  A    between atoms: N_11  and  C_12
REMARK                            x       y       z     vdW  Elec       q    Type
REMARK                         _______ _______ _______ _____ _____    ______ ____
ROOT
ATOM      1  C   UNL     1     -11.424   7.813 128.977  0.00  0.00    +0.000 A 
ATOM      2  C   UNL     1     -12.469   8.745 129.223  0.00  0.00    +0.000 A 
ATOM      3  C   UNL     1     -13.141   8.762 130.431  0.00  0.00    +0.000 A 
ATOM      4  C   UNL     1     -12.850   7.779 131.364  0.00  0.00    +0.000 A 
ATOM      5  C   UNL     1     -11.805   6.853 131.139  0.00  0.00    +0.000 A 
ATOM      6  C   UNL     1     -11.021   6.867 129.958  0.00  0.00    +0.000 A 
ENDROOT
BRANCH   6   7
ATOM      7  N   UNL     1      -9.736   6.175 129.980  0.00  0.00    +0.000 N 
ATOM      8  H   UNL     1      -9.053   6.674 129.411  0.00  0.00    +0.000 HD
BRANCH   7   9
ATOM      9  C   UNL     1      -9.096   5.347 130.971  0.00  0.00    +0.000 A 
ATOM     10  C   UNL     1      -7.894   5.754 131.595  0.00  0.00    +0.000 A 
ATOM     11 CL   UNL     1      -7.023   7.159 131.085  0.00  0.00    +0.000 Cl
ATOM     12  C   UNL     1      -7.372   5.077 132.714  0.00  0.00    +0.000 A 
ATOM     13  C   UNL     1      -8.104   4.074 133.331  0.00  0.00    +0.000 A 
ATOM     14  C   UNL     1      -9.197   3.556 132.663  0.00  0.00    +0.000 A 
ATOM     15  C   UNL     1      -9.604   4.088 131.421  0.00  0.00    +0.000 A 
ATOM     16 CL   UNL     1     -10.802   3.100 130.630  0.00  0.00    +0.000 Cl
ENDBRANCH   7   9
ENDBRANCH   6   7
BRANCH   1  17
ATOM     17  C   UNL     1     -10.539   8.192 127.827  0.00  0.00    +0.000 C 
BRANCH  17  18
ATOM     18  C   UNL     1     -10.531   6.998 126.913  0.00  0.00    +0.000 C 
ATOM     19  O   UNL     1      -9.575   6.228 126.781  0.00  0.00    +0.000 OA
BRANCH  18  20
ATOM     20  O   UNL     1     -11.666   6.849 126.203  0.00  0.00    +0.000 OA
ATOM     21  H   UNL     1     -12.110   7.697 126.029  0.00  0.00    +0.000 HD
ENDBRANCH  18  20
ENDBRANCH  17  18
ENDBRANCH   1  17
TORSDOF 5
ENDMDL
MODEL 3
REMARK VINA RESULT:      -7.0      7.345      9.101
REMARK  Name = Diclofenac
REMARK  5 active torsions:
REMARK  status: ('A' for Active; 'I' for Inactive)
REMARK    1  A    between atoms: O_1  and  C_2
REMARK    2  A    between atoms: C_2  and  C_4
REMARK    3  A    between atoms: C_4  and  C_5
REMARK    4  A    between atoms: C_10  and  N_11
REMARK    5  A    between atoms: N_11  and  C_12
REMARK                            x       y       z     vdW  Elec       q    Type
REMARK                         _______ _______ _______ _____ _____    ______ ____
ROOT
ATOM      1  C   UNL     1      -6.372   3.489 120.706  0.00  0.00    +0.000 A 
ATOM      2  C   UNL     1      -6.857   4.121 119.529  0.00  0.00    +0.000 A 
ATOM      3  C   UNL     1      -8.205   4.376 119.358  0.00  0.00    +0.000 A 
ATOM      4  C   UNL     1      -9.093   3.904 120.312  0.00  0.00    +0.000 A 
ATOM      5  C   UNL     1      -8.626   3.285 121.494  0.00  0.00    +0.000 A 
ATOM      6  C   UNL     1      -7.246   3.098 121.758  0.00  0.00    +0.000 A 
ENDROOT
BRANCH   6   7
ATOM      7  N   UNL     1      -6.839   2.841 123.136  0.00  0.00    +0.000 N 
ATOM      8  H   UNL     1      -6.357   3.652 123.522  0.00  0.00    +0.000 HD
BRANCH   7   9
ATOM      9  C   UNL     1      -7.399   2.013 124.174  0.00  0.00    +0.000 A 
ATOM     10  C   UNL     1      -7.877   2.579 125.378  0.00  0.00    +0.000 A 
ATOM     11 CL   UNL     1      -7.654   4.251 125.762  0.00  0.00    +0.000 Cl
ATOM     12  C   UNL     1      -8.623   1.827 126.306  0.00  0.00    +0.000 A 
ATOM     13  C   UNL     1      -9.040   0.542 125.995  0.00  0.00    +0.000 A 
ATOM     14  C   UNL     1      -8.467  -0.085 124.906  0.00  0.00    +0.000 A 
ATOM     15  C   UNL     1      -7.540   0.593 124.086  0.00  0.00    +0.000 A 
ATOM     16 CL   UNL     1      -6.732  -0.472 122.967  0.00  0.00    +0.000 Cl
ENDBRANCH   7   9
ENDBRANCH   6   7
BRANCH   1  17
ATOM     17  C   UNL     1      -4.898   3.668 120.921  0.00  0.00    +0.000 C 
BRANCH  17  18
ATOM     18  C   UNL     1      -4.738   5.052 121.486  0.00  0.00    +0.000 C 
ATOM     19  O   UNL     1      -4.415   6.042 120.823  0.00  0.00    +0.000 OA
BRANCH  18  20
ATOM     20  O   UNL     1      -4.944   5.125 122.815  0.00  0.00    +0.000 OA
ATOM     21  H   UNL     1      -5.361   4.321 123.172  0.00  0.00    +0.000 HD
ENDBRANCH  18  20
ENDBRANCH  17  18
ENDBRANCH   1  17
TORSDOF 5
ENDMDL
MODEL 4
REMARK VINA RESULT:      -6.9      8.264      9.322
REMARK  Name = Diclofenac
REMARK  5 active torsions:
REMARK  status: ('A' for Active; 'I' for Inactive)
REMARK    1  A    between atoms: O_1  and  C_2
REMARK    2  A    between atoms: C_2  and  C_4
REMARK    3  A    between atoms: C_4  and  C_5
REMARK    4  A    between atoms: C_10  and  N_11
REMARK    5  A    between atoms: N_11  and  C_12
REMARK                            x       y       z     vdW  Elec       q    Type
REMARK                         _______ _______ _______ _____ _____    ______ ____
ROOT
ATOM      1  C   UNL     1      -6.571   3.507 120.654  0.00  0.00    +0.000 A 
ATOM      2  C   UNL     1      -6.560   4.164 119.393  0.00  0.00    +0.000 A 
ATOM      3  C   UNL     1      -7.732   4.606 118.808  0.00  0.00    +0.000 A 
ATOM      4  C   UNL     1      -8.935   4.300 119.423  0.00  0.00    +0.000 A 
ATOM      5  C   UNL     1      -8.962   3.658 120.684  0.00  0.00    +0.000 A 
ATOM      6  C   UNL     1      -7.779   3.282 121.368  0.00  0.00    +0.000 A 
ENDROOT
BRANCH   6   7
ATOM      7  N   UNL     1      -7.871   3.014 122.800  0.00  0.00    +0.000 N 
ATOM      8  H   UNL     1      -8.489   3.688 123.249  0.00  0.00    +0.000 HD
BRANCH   7   9
ATOM      9  C   UNL     1      -7.764   1.798 123.568  0.00  0.00    +0.000 A 
ATOM     10  C   UNL     1      -8.706   0.755 123.416  0.00  0.00    +0.000 A 
ATOM     11 CL   UNL     1     -10.133   0.936 122.455  0.00  0.00    +0.000 Cl
ATOM     12  C   UNL     1      -8.502  -0.517 123.984  0.00  0.00    +0.000 A 
ATOM     13  C   UNL     1      -7.294  -0.830 124.588  0.00  0.00    +0.000 A 
ATOM     14  C   UNL     1      -6.424   0.201 124.884  0.00  0.00    +0.000 A 
ATOM     15  C   UNL     1      -6.723   1.529 124.510  0.00  0.00    +0.000 A 
ATOM     16 CL   UNL     1      -5.645   2.688 125.240  0.00  0.00    +0.000 Cl
ENDBRANCH   7   9
ENDBRANCH   6   7
BRANCH   1  17
ATOM     17  C   UNL     1      -5.231   3.477 121.328  0.00  0.00    +0.000 C 
BRANCH  17  18
ATOM     18  C   UNL     1      -5.019   4.865 121.866  0.00  0.00    +0.000 C 
ATOM     19  O   UNL     1      -4.398   5.753 121.276  0.00  0.00    +0.000 OA
BRANCH  18  20
ATOM     20  O   UNL     1      -5.542   5.059 123.092  0.00  0.00    +0.000 OA
ATOM     21  H   UNL     1      -5.430   5.975 123.403  0.00  0.00    +0.000 HD
ENDBRANCH  18  20
ENDBRANCH  17  18
ENDBRANCH   1  17
TORSDOF 5
ENDMDL
MODEL 5
REMARK VINA RESULT:      -6.8      7.534      9.038
REMARK  Name = Diclofenac
REMARK  5 active torsions:
REMARK  status: ('A' for Active; 'I' for Inactive)
REMARK    1  A    between atoms: O_1  and  C_2
REMARK    2  A    between atoms: C_2  and  C_4
REMARK    3  A    between atoms: C_4  and  C_5
REMARK    4  A    between atoms: C_10  and  N_11
REMARK    5  A    between atoms: N_11  and  C_12
REMARK                            x       y       z     vdW  Elec       q    Type
REMARK                         _______ _______ _______ _____ _____    ______ ____
ROOT
ATOM      1  C   UNL     1      -6.061   3.300 123.998  0.00  0.00    +0.000 A 
ATOM      2  C   UNL     1      -5.282   4.381 123.503  0.00  0.00    +0.000 A 
ATOM      3  C   UNL     1      -5.084   4.556 122.146  0.00  0.00    +0.000 A 
ATOM      4  C   UNL     1      -5.570   3.592 121.277  0.00  0.00    +0.000 A 
ATOM      5  C   UNL     1      -6.358   2.518 121.753  0.00  0.00    +0.000 A 
ATOM      6  C   UNL     1      -6.673   2.359 123.126  0.00  0.00    +0.000 A 
ENDROOT
BRANCH   6   7
ATOM      7  N   UNL     1      -7.796   1.496 123.476  0.00  0.00    +0.000 N 
ATOM      8  H   UNL     1      -8.668   1.880 123.114  0.00  0.00    +0.000 HD
BRANCH   7   9
ATOM      9  C   UNL     1      -7.896   0.074 123.697  0.00  0.00    +0.000 A 
ATOM     10  C   UNL     1      -8.965  -0.674 123.153  0.00  0.00    +0.000 A 
ATOM     11 CL   UNL     1     -10.305   0.079 122.359  0.00  0.00    +0.000 Cl
ATOM     12  C   UNL     1      -8.967  -2.082 123.165  0.00  0.00    +0.000 A 
ATOM     13  C   UNL     1      -7.845  -2.781 123.583  0.00  0.00    +0.000 A 
ATOM     14  C   UNL     1      -6.856  -2.090 124.255  0.00  0.00    +0.000 A 
ATOM     15  C   UNL     1      -6.949  -0.695 124.443  0.00  0.00    +0.000 A 
ATOM     16 CL   UNL     1      -5.758  -0.089 125.561  0.00  0.00    +0.000 Cl
ENDBRANCH   7   9
ENDBRANCH   6   7
BRANCH   1  17
ATOM     17  C   UNL     1      -6.522   3.490 125.413  0.00  0.00    +0.000 C 
BRANCH  17  18
ATOM     18  C   UNL     1      -7.791   4.292 125.319  0.00  0.00    +0.000 C 
ATOM     19  O   UNL     1      -8.908   3.807 125.116  0.00  0.00    +0.000 OA
BRANCH  18  20
ATOM     20  O   UNL     1      -7.606   5.620 125.441  0.00  0.00    +0.000 OA
ATOM     21  H   UNL     1      -7.196   5.863 126.291  0.00  0.00    +0.000 HD
ENDBRANCH  18  20
ENDBRANCH  17  18
ENDBRANCH   1  17
TORSDOF 5
ENDMDL
MODEL 6
REMARK VINA RESULT:      -6.7      7.589      9.177
REMARK  Name = Diclofenac
REMARK  5 active torsions:
REMARK  status: ('A' for Active; 'I' for Inactive)
REMARK    1  A    between atoms: O_1  and  C_2
REMARK    2  A    between atoms: C_2  and  C_4
REMARK    3  A    between atoms: C_4  and  C_5
REMARK    4  A    between atoms: C_10  and  N_11
REMARK    5  A    between atoms: N_11  and  C_12
REMARK                            x       y       z     vdW  Elec       q    Type
REMARK                         _______ _______ _______ _____ _____    ______ ____
ROOT
ATOM      1  C   UNL     1      -6.347   3.081 124.373  0.00  0.00    +0.000 A 
ATOM      2  C   UNL     1      -5.814   4.202 123.678  0.00  0.00    +0.000 A 
ATOM      3  C   UNL     1      -5.681   4.192 122.302  0.00  0.00    +0.000 A 
ATOM      4  C   UNL     1      -5.977   3.023 121.617  0.00  0.00    +0.000 A 
ATOM      5  C   UNL     1      -6.519   1.905 122.293  0.00  0.00    +0.000 A 
ATOM      6  C   UNL     1      -6.770   1.910 123.688  0.00  0.00    +0.000 A 
ENDROOT
BRANCH   6   7
ATOM      7  N   UNL     1      -7.686   0.908 124.224  0.00  0.00    +0.000 N 
ATOM      8  H   UNL     1      -8.564   1.343 124.505  0.00  0.00    +0.000 HD
BRANCH   7   9
ATOM      9  C   UNL     1      -7.855  -0.498 123.952  0.00  0.00    +0.000 A 
ATOM     10  C   UNL     1      -6.907  -1.445 124.401  0.00  0.00    +0.000 A 
ATOM     11 CL   UNL     1      -5.410  -0.975 125.130  0.00  0.00    +0.000 Cl
ATOM     12  C   UNL     1      -7.157  -2.830 124.343  0.00  0.00    +0.000 A 
ATOM     13  C   UNL     1      -8.408  -3.302 123.977  0.00  0.00    +0.000 A 
ATOM     14  C   UNL     1      -9.295  -2.419 123.393  0.00  0.00    +0.000 A 
ATOM     15  C   UNL     1      -8.966  -1.055 123.245  0.00  0.00    +0.000 A 
ATOM     16 CL   UNL     1     -10.093  -0.201 122.226  0.00  0.00    +0.000 Cl
ENDBRANCH   7   9
ENDBRANCH   6   7
BRANCH   1  17
ATOM     17  C   UNL     1      -6.810   3.401 125.763  0.00  0.00    +0.000 C 
BRANCH  17  18
ATOM     18  C   UNL     1      -8.009   4.293 125.594  0.00  0.00    +0.000 C 
ATOM     19  O   UNL     1      -8.041   5.485 125.915  0.00  0.00    +0.000 OA
BRANCH  18  20
ATOM     20  O   UNL     1      -9.086   3.667 125.084  0.00  0.00    +0.000 OA
ATOM     21  H   UNL     1      -8.856   3.062 124.356  0.00  0.00    +0.000 HD
ENDBRANCH  18  20
ENDBRANCH  17  18
ENDBRANCH   1  17
TORSDOF 5
ENDMDL
MODEL 7
REMARK VINA RESULT:      -6.7      8.122      9.516
REMARK  Name = Diclofenac
REMARK  5 active torsions:
REMARK  status: ('A' for Active; 'I' for Inactive)
REMARK    1  A    between atoms: O_1  and  C_2
REMARK    2  A    between atoms: C_2  and  C_4
REMARK    3  A    between atoms: C_4  and  C_5
REMARK    4  A    between atoms: C_10  and  N_11
REMARK    5  A    between atoms: N_11  and  C_12
REMARK                            x       y       z     vdW  Elec       q    Type
REMARK                         _______ _______ _______ _____ _____    ______ ____
ROOT
ATOM      1  C   UNL     1      -6.701   2.399 123.727  0.00  0.00    +0.000 A 
ATOM      2  C   UNL     1      -6.126   3.446 124.497  0.00  0.00    +0.000 A 
ATOM      3  C   UNL     1      -5.478   3.183 125.690  0.00  0.00    +0.000 A 
ATOM      4  C   UNL     1      -5.493   1.886 126.179  0.00  0.00    +0.000 A 
ATOM      5  C   UNL     1      -6.051   0.831 125.419  0.00  0.00    +0.000 A 
ATOM      6  C   UNL     1      -6.632   1.041 124.143  0.00  0.00    +0.000 A 
ENDROOT
BRANCH   6   7
ATOM      7  N   UNL     1      -6.802  -0.115 123.268  0.00  0.00    +0.000 N 
ATOM      8  H   UNL     1      -6.026  -0.182 122.611  0.00  0.00    +0.000 HD
BRANCH   7   9
ATOM      9  C   UNL     1      -7.445  -1.391 123.461  0.00  0.00    +0.000 A 
ATOM     10  C   UNL     1      -6.709  -2.520 123.887  0.00  0.00    +0.000 A 
ATOM     11 CL   UNL     1      -4.985  -2.498 124.023  0.00  0.00    +0.000 Cl
ATOM     12  C   UNL     1      -7.344  -3.710 124.293  0.00  0.00    +0.000 A 
ATOM     13  C   UNL     1      -8.723  -3.758 124.426  0.00  0.00    +0.000 A 
ATOM     14  C   UNL     1      -9.470  -2.734 123.878  0.00  0.00    +0.000 A 
ATOM     15  C   UNL     1      -8.842  -1.628 123.267  0.00  0.00    +0.000 A 
ATOM     16 CL   UNL     1      -9.962  -0.621 122.391  0.00  0.00    +0.000 Cl
ENDBRANCH   7   9
ENDBRANCH   6   7
BRANCH   1  17
ATOM     17  C   UNL     1      -6.978   2.781 122.303  0.00  0.00    +0.000 C 
BRANCH  17  18
ATOM     18  C   UNL     1      -8.435   3.150 122.261  0.00  0.00    +0.000 C 
ATOM     19  O   UNL     1      -9.286   2.717 123.043  0.00  0.00    +0.000 OA
BRANCH  18  20
ATOM     20  O   UNL     1      -8.756   3.984 121.254  0.00  0.00    +0.000 OA
ATOM     21  H   UNL     1      -8.424   3.674 120.392  0.00  0.00    +0.000 HD
ENDBRANCH  18  20
ENDBRANCH  17  18
ENDBRANCH   1  17
TORSDOF 5
ENDMDL
MODEL 8
REMARK VINA RESULT:      -6.6      8.189      9.803
REMARK  Name = Diclofenac
REMARK  5 active torsions:
REMARK  status: ('A' for Active; 'I' for Inactive)
REMARK    1  A    between atoms: O_1  and  C_2
REMARK    2  A    between atoms: C_2  and  C_4
REMARK    3  A    between atoms: C_4  and  C_5
REMARK    4  A    between atoms: C_10  and  N_11
REMARK    5  A    between atoms: N_11  and  C_12
REMARK                            x       y       z     vdW  Elec       q    Type
REMARK                         _______ _______ _______ _____ _____    ______ ____
ROOT
ATOM      1  C   UNL     1      -6.734  -0.839 123.775  0.00  0.00    +0.000 A 
ATOM      2  C   UNL     1      -6.271  -1.569 122.646  0.00  0.00    +0.000 A 
ATOM      3  C   UNL     1      -5.563  -2.746 122.798  0.00  0.00    +0.000 A 
ATOM      4  C   UNL     1      -5.216  -3.149 124.078  0.00  0.00    +0.000 A 
ATOM      5  C   UNL     1      -5.679  -2.440 125.212  0.00  0.00    +0.000 A 
ATOM      6  C   UNL     1      -6.496  -1.287 125.103  0.00  0.00    +0.000 A 
ENDROOT
BRANCH   6   7
ATOM      7  N   UNL     1      -7.254  -0.870 126.278  0.00  0.00    +0.000 N 
ATOM      8  H   UNL     1      -7.941  -0.161 126.026  0.00  0.00    +0.000 HD
BRANCH   7   9
ATOM      9  C   UNL     1      -7.624  -1.559 127.489  0.00  0.00    +0.000 A 
ATOM     10  C   UNL     1      -8.408  -2.735 127.447  0.00  0.00    +0.000 A 
ATOM     11 CL   UNL     1      -9.123  -3.313 125.982  0.00  0.00    +0.000 Cl
ATOM     12  C   UNL     1      -8.595  -3.543 128.585  0.00  0.00    +0.000 A 
ATOM     13  C   UNL     1      -7.891  -3.285 129.752  0.00  0.00    +0.000 A 
ATOM     14  C   UNL     1      -7.244  -2.071 129.871  0.00  0.00    +0.000 A 
ATOM     15  C   UNL     1      -7.234  -1.149 128.802  0.00  0.00    +0.000 A 
ATOM     16 CL   UNL     1      -6.626   0.415 129.273  0.00  0.00    +0.000 Cl
ENDBRANCH   7   9
ENDBRANCH   6   7
BRANCH   1  17
ATOM     17  C   UNL     1      -7.816   0.148 123.450  0.00  0.00    +0.000 C 
BRANCH  17  18
ATOM     18  C   UNL     1      -9.110  -0.577 123.694  0.00  0.00    +0.000 C 
ATOM     19  O   UNL     1      -9.573  -1.446 122.949  0.00  0.00    +0.000 OA
BRANCH  18  20
ATOM     20  O   UNL     1      -9.763  -0.170 124.799  0.00  0.00    +0.000 OA
ATOM     21  H   UNL     1      -9.165  -0.035 125.556  0.00  0.00    +0.000 HD
ENDBRANCH  18  20
ENDBRANCH  17  18
ENDBRANCH   1  17
TORSDOF 5
ENDMDL
MODEL 9
REMARK VINA RESULT:      -6.6      7.425      8.891
REMARK  Name = Diclofenac
REMARK  5 active torsions:
REMARK  status: ('A' for Active; 'I' for Inactive)
REMARK    1  A    between atoms: O_1  and  C_2
REMARK    2  A    between atoms: C_2  and  C_4
REMARK    3  A    between atoms: C_4  and  C_5
REMARK    4  A    between atoms: C_10  and  N_11
REMARK    5  A    between atoms: N_11  and  C_12
REMARK                            x       y       z     vdW  Elec       q    Type
REMARK                         _______ _______ _______ _____ _____    ______ ____
ROOT
ATOM      1  C   UNL     1      -6.419   2.605 124.690  0.00  0.00    +0.000 A 
ATOM      2  C   UNL     1      -5.507   3.566 125.208  0.00  0.00    +0.000 A 
ATOM      3  C   UNL     1      -4.492   3.194 126.070  0.00  0.00    +0.000 A 
ATOM      4  C   UNL     1      -4.444   1.880 126.508  0.00  0.00    +0.000 A 
ATOM      5  C   UNL     1      -5.335   0.911 125.993  0.00  0.00    +0.000 A 
ATOM      6  C   UNL     1      -6.324   1.227 125.028  0.00  0.00    +0.000 A 
ENDROOT
BRANCH   6   7
ATOM      7  N   UNL     1      -6.909   0.133 124.261  0.00  0.00    +0.000 N 
ATOM      8  H   UNL     1      -6.546   0.131 123.308  0.00  0.00    +0.000 HD
BRANCH   7   9
ATOM      9  C   UNL     1      -7.397  -1.169 124.644  0.00  0.00    +0.000 A 
ATOM     10  C   UNL     1      -8.630  -1.315 125.318  0.00  0.00    +0.000 A 
ATOM     11 CL   UNL     1      -9.534   0.045 125.890  0.00  0.00    +0.000 Cl
ATOM     12  C   UNL     1      -9.229  -2.576 125.505  0.00  0.00    +0.000 A 
ATOM     13  C   UNL     1      -8.695  -3.703 124.898  0.00  0.00    +0.000 A 
ATOM     14  C   UNL     1      -7.423  -3.619 124.367  0.00  0.00    +0.000 A 
ATOM     15  C   UNL     1      -6.717  -2.397 124.372  0.00  0.00    +0.000 A 
ATOM     16 CL   UNL     1      -5.042  -2.591 123.931  0.00  0.00    +0.000 Cl
ENDBRANCH   7   9
ENDBRANCH   6   7
BRANCH   1  17
ATOM     17  C   UNL     1      -7.165   3.077 123.478  0.00  0.00    +0.000 C 
BRANCH  17  18
ATOM     18  C   UNL     1      -8.619   2.849 123.785  0.00  0.00    +0.000 C 
ATOM     19  O   UNL     1      -9.361   2.107 123.133  0.00  0.00    +0.000 OA
BRANCH  18  20
ATOM     20  O   UNL     1      -9.074   3.563 124.832  0.00  0.00    +0.000 OA
ATOM     21  H   UNL     1      -9.426   2.999 125.543  0.00  0.00    +0.000 HD
ENDBRANCH  18  20
ENDBRANCH  17  18
ENDBRANCH   1  17
TORSDOF 5
ENDMDL
