MODEL 1
REMARK VINA RESULT:      -6.4      0.000      0.000
REMARK  Name = Diclofenamide
REMARK  4 active torsions:
REMARK  status: ('A' for Active; 'I' for Inactive)
REMARK    1  A    between atoms: N_1  and  S_2
REMARK    2  A    between atoms: S_2  and  C_5
REMARK    3  A    between atoms: C_7  and  S_13
REMARK    4  A    between atoms: S_13  and  N_14
REMARK                            x       y       z     vdW  Elec       q    Type
REMARK                         _______ _______ _______ _____ _____    ______ ____
ROOT
ATOM      1  C   UNL     1     -10.385   5.602 130.736  0.00  0.00    +0.000 A 
ATOM      2  C   UNL     1     -10.175   5.897 129.382  0.00  0.00    +0.000 A 
ATOM      3  C   UNL     1     -10.968   6.884 128.738  0.00  0.00    +0.000 A 
ATOM      4  C   UNL     1     -11.946   7.581 129.459  0.00  0.00    +0.000 A 
ATOM      5 CL   UNL     1     -13.025   8.728 128.742  0.00  0.00    +0.000 Cl
ATOM      6  C   UNL     1     -12.087   7.308 130.835  0.00  0.00    +0.000 A 
ATOM      7 CL   UNL     1     -13.242   8.136 131.828  0.00  0.00    +0.000 Cl
ATOM      8  C   UNL     1     -11.314   6.330 131.471  0.00  0.00    +0.000 A 
ENDROOT
BRANCH   1   9
ATOM      9  S   UNL     1      -9.492   4.297 131.551  0.00  0.00    +0.000 S 
ATOM     10  O   UNL     1      -8.079   4.558 131.408  0.00  0.00    +0.000 OA
ATOM     11  O   UNL     1     -10.087   3.035 131.188  0.00  0.00    +0.000 OA
BRANCH   9  12
ATOM     12  N   UNL     1      -9.881   4.545 133.171  0.00  0.00    +0.000 NA
ATOM     13  H   UNL     1      -9.029   4.479 133.737  0.00  0.00    +0.000 HD
ATOM     14  H   UNL     1     -10.587   3.891 133.510  0.00  0.00    +0.000 HD
ENDBRANCH   9  12
ENDBRANCH   1   9
BRANCH   3  15
ATOM     15  S   UNL     1     -10.685   7.125 126.994  0.00  0.00    +0.000 S 
ATOM     16  O   UNL     1     -10.670   8.544 126.759  0.00  0.00    +0.000 OA
ATOM     17  O   UNL     1      -9.656   6.246 126.483  0.00  0.00    +0.000 OA
BRANCH  15  18
ATOM     18  N   UNL     1     -12.111   6.524 126.393  0.00  0.00    +0.000 NA
ATOM     19  H   UNL     1     -12.398   6.785 125.457  0.00  0.00    +0.000 HD
ATOM     20  H   UNL     1     -12.655   5.906 126.987  0.00  0.00    +0.000 HD
ENDBRANCH  15  18
ENDBRANCH   3  15
TORSDOF 4
ENDMDL
MODEL 2
REMARK VINA RESULT:      -5.6      8.707     10.221
REMARK  Name = Diclofenamide
REMARK  4 active torsions:
REMARK  status: ('A' for Active; 'I' for Inactive)
REMARK    1  A    between atoms: N_1  and  S_2
REMARK    2  A    between atoms: S_2  and  C_5
REMARK    3  A    between atoms: C_7  and  S_13
REMARK    4  A    between atoms: S_13  and  N_14
REMARK                            x       y       z     vdW  Elec       q    Type
REMARK                         _______ _______ _______ _____ _____    ______ ____
ROOT
ATOM      1  C   UNL     1      -8.474   0.625 124.615  0.00  0.00    +0.000 A 
ATOM      2  C   UNL     1      -8.816  -0.731 124.702  0.00  0.00    +0.000 A 
ATOM      3  C   UNL     1      -7.896  -1.663 125.250  0.00  0.00    +0.000 A 
ATOM      4  C   UNL     1      -6.651  -1.228 125.723  0.00  0.00    +0.000 A 
ATOM      5 CL   UNL     1      -5.427  -2.298 126.316  0.00  0.00    +0.000 Cl
ATOM      6  C   UNL     1      -6.363   0.152 125.683  0.00  0.00    +0.000 A 
ATOM      7 CL   UNL     1      -4.868   0.802 126.274  0.00  0.00    +0.000 Cl
ATOM      8  C   UNL     1      -7.264   1.072 125.136  0.00  0.00    +0.000 A 
ENDROOT
BRANCH   1   9
ATOM      9  S   UNL     1      -9.551   1.807 123.835  0.00  0.00    +0.000 S 
ATOM     10  O   UNL     1     -10.914   1.368 124.020  0.00  0.00    +0.000 OA
ATOM     11  O   UNL     1      -9.013   2.136 122.539  0.00  0.00    +0.000 OA
BRANCH   9  12
ATOM     12  N   UNL     1      -9.338   3.180 124.788  0.00  0.00    +0.000 NA
ATOM     13  H   UNL     1      -9.268   4.004 124.183  0.00  0.00    +0.000 HD
ATOM     14  H   UNL     1      -8.522   3.113 125.397  0.00  0.00    +0.000 HD
ENDBRANCH   9  12
ENDBRANCH   1   9
BRANCH   3  15
ATOM     15  S   UNL     1      -8.389  -3.376 125.238  0.00  0.00    +0.000 S 
ATOM     16  O   UNL     1      -7.467  -4.077 124.385  0.00  0.00    +0.000 OA
ATOM     17  O   UNL     1      -8.734  -3.853 126.559  0.00  0.00    +0.000 OA
BRANCH  15  18
ATOM     18  N   UNL     1      -9.833  -3.246 124.429  0.00  0.00    +0.000 NA
ATOM     19  H   UNL     1      -9.964  -3.772 123.572  0.00  0.00    +0.000 HD
ATOM     20  H   UNL     1     -10.547  -2.641 124.822  0.00  0.00    +0.000 HD
ENDBRANCH  15  18
ENDBRANCH   3  15
TORSDOF 4
ENDMDL
MODEL 3
REMARK VINA RESULT:      -5.6      9.562     10.707
REMARK  Name = Diclofenamide
REMARK  4 active torsions:
REMARK  status: ('A' for Active; 'I' for Inactive)
REMARK    1  A    between atoms: N_1  and  S_2
REMARK    2  A    between atoms: S_2  and  C_5
REMARK    3  A    between atoms: C_7  and  S_13
REMARK    4  A    between atoms: S_13  and  N_14
REMARK                            x       y       z     vdW  Elec       q    Type
REMARK                         _______ _______ _______ _____ _____    ______ ____
ROOT
ATOM      1  C   UNL     1      -8.390  -2.346 125.419  0.00  0.00    +0.000 A 
ATOM      2  C   UNL     1      -7.289  -1.708 126.008  0.00  0.00    +0.000 A 
ATOM      3  C   UNL     1      -7.009  -1.901 127.386  0.00  0.00    +0.000 A 
ATOM      4  C   UNL     1      -7.818  -2.746 128.157  0.00  0.00    +0.000 A 
ATOM      5 CL   UNL     1      -7.617  -2.967 129.862  0.00  0.00    +0.000 Cl
ATOM      6  C   UNL     1      -8.877  -3.425 127.521  0.00  0.00    +0.000 A 
ATOM      7 CL   UNL     1      -9.918  -4.519 128.373  0.00  0.00    +0.000 Cl
ATOM      8  C   UNL     1      -9.162  -3.231 126.165  0.00  0.00    +0.000 A 
ENDROOT
BRANCH   1   9
ATOM      9  S   UNL     1      -8.841  -2.045 123.725  0.00  0.00    +0.000 S 
ATOM     10  O   UNL     1      -7.684  -2.294 122.897  0.00  0.00    +0.000 OA
ATOM     11  O   UNL     1      -9.590  -0.815 123.660  0.00  0.00    +0.000 OA
BRANCH   9  12
ATOM     12  N   UNL     1      -9.947  -3.278 123.416  0.00  0.00    +0.000 NA
ATOM     13  H   UNL     1      -9.554  -4.171 123.731  0.00  0.00    +0.000 HD
ATOM     14  H   UNL     1     -10.212  -3.331 122.433  0.00  0.00    +0.000 HD
ENDBRANCH   9  12
ENDBRANCH   1   9
BRANCH   3  15
ATOM     15  S   UNL     1      -5.641  -0.979 128.062  0.00  0.00    +0.000 S 
ATOM     16  O   UNL     1      -6.196   0.088 128.850  0.00  0.00    +0.000 OA
ATOM     17  O   UNL     1      -4.595  -1.843 128.560  0.00  0.00    +0.000 OA
BRANCH  15  18
ATOM     18  N   UNL     1      -5.033  -0.317 126.665  0.00  0.00    +0.000 NA
ATOM     19  H   UNL     1      -4.189   0.242 126.715  0.00  0.00    +0.000 HD
ATOM     20  H   UNL     1      -5.529  -0.496 125.798  0.00  0.00    +0.000 HD
ENDBRANCH  15  18
ENDBRANCH   3  15
TORSDOF 4
ENDMDL
MODEL 4
REMARK VINA RESULT:      -5.6      8.305      9.610
REMARK  Name = Diclofenamide
REMARK  4 active torsions:
REMARK  status: ('A' for Active; 'I' for Inactive)
REMARK    1  A    between atoms: N_1  and  S_2
REMARK    2  A    between atoms: S_2  and  C_5
REMARK    3  A    between atoms: C_7  and  S_13
REMARK    4  A    between atoms: S_13  and  N_14
REMARK                            x       y       z     vdW  Elec       q    Type
REMARK                         _______ _______ _______ _____ _____    ______ ____
ROOT
ATOM      1  C   UNL     1      -7.577   1.803 124.760  0.00  0.00    +0.000 A 
ATOM      2  C   UNL     1      -8.287   0.839 124.032  0.00  0.00    +0.000 A 
ATOM      3  C   UNL     1      -8.061  -0.542 124.271  0.00  0.00    +0.000 A 
ATOM      4  C   UNL     1      -7.145  -0.946 125.250  0.00  0.00    +0.000 A 
ATOM      5 CL   UNL     1      -6.729  -2.600 125.547  0.00  0.00    +0.000 Cl
ATOM      6  C   UNL     1      -6.495   0.047 126.012  0.00  0.00    +0.000 A 
ATOM      7 CL   UNL     1      -5.369  -0.342 127.271  0.00  0.00    +0.000 Cl
ATOM      8  C   UNL     1      -6.709   1.410 125.773  0.00  0.00    +0.000 A 
ENDROOT
BRANCH   1   9
ATOM      9  S   UNL     1      -7.747   3.540 124.414  0.00  0.00    +0.000 S 
ATOM     10  O   UNL     1      -6.427   4.123 124.365  0.00  0.00    +0.000 OA
ATOM     11  O   UNL     1      -8.799   4.074 125.242  0.00  0.00    +0.000 OA
BRANCH   9  12
ATOM     12  N   UNL     1      -8.349   3.542 122.841  0.00  0.00    +0.000 NA
ATOM     13  H   UNL     1      -7.570   3.628 122.181  0.00  0.00    +0.000 HD
ATOM     14  H   UNL     1      -9.034   4.282 122.683  0.00  0.00    +0.000 HD
ENDBRANCH   9  12
ENDBRANCH   1   9
BRANCH   3  15
ATOM     15  S   UNL     1      -8.948  -1.690 123.234  0.00  0.00    +0.000 S 
ATOM     16  O   UNL     1      -8.041  -2.120 122.204  0.00  0.00    +0.000 OA
ATOM     17  O   UNL     1      -9.739  -2.622 124.006  0.00  0.00    +0.000 OA
BRANCH  15  18
ATOM     18  N   UNL     1     -10.046  -0.653 122.544  0.00  0.00    +0.000 NA
ATOM     19  H   UNL     1      -9.843  -0.259 121.632  0.00  0.00    +0.000 HD
ATOM     20  H   UNL     1     -10.895  -0.446 123.060  0.00  0.00    +0.000 HD
ENDBRANCH  15  18
ENDBRANCH   3  15
TORSDOF 4
ENDMDL
MODEL 5
REMARK VINA RESULT:      -5.5      3.719      5.782
REMARK  Name = Diclofenamide
REMARK  4 active torsions:
REMARK  status: ('A' for Active; 'I' for Inactive)
REMARK    1  A    between atoms: N_1  and  S_2
REMARK    2  A    between atoms: S_2  and  C_5
REMARK    3  A    between atoms: C_7  and  S_13
REMARK    4  A    between atoms: S_13  and  N_14
REMARK                            x       y       z     vdW  Elec       q    Type
REMARK                         _______ _______ _______ _____ _____    ______ ____
ROOT
ATOM      1  C   UNL     1     -10.054   5.955 130.713  0.00  0.00    +0.000 A 
ATOM      2  C   UNL     1      -9.992   4.630 131.166  0.00  0.00    +0.000 A 
ATOM      3  C   UNL     1      -8.744   4.064 131.540  0.00  0.00    +0.000 A 
ATOM      4  C   UNL     1      -7.576   4.834 131.478  0.00  0.00    +0.000 A 
ATOM      5 CL   UNL     1      -5.999   4.206 131.818  0.00  0.00    +0.000 Cl
ATOM      6  C   UNL     1      -7.681   6.183 131.082  0.00  0.00    +0.000 A 
ATOM      7 CL   UNL     1      -6.304   7.234 131.004  0.00  0.00    +0.000 Cl
ATOM      8  C   UNL     1      -8.907   6.742 130.705  0.00  0.00    +0.000 A 
ENDROOT
BRANCH   1   9
ATOM      9  S   UNL     1     -11.577   6.667 130.130  0.00  0.00    +0.000 S 
ATOM     10  O   UNL     1     -12.213   5.714 129.251  0.00  0.00    +0.000 OA
ATOM     11  O   UNL     1     -11.328   8.032 129.743  0.00  0.00    +0.000 OA
BRANCH   9  12
ATOM     12  N   UNL     1     -12.505   6.744 131.533  0.00  0.00    +0.000 NA
ATOM     13  H   UNL     1     -12.422   7.680 131.943  0.00  0.00    +0.000 HD
ATOM     14  H   UNL     1     -12.246   6.030 132.215  0.00  0.00    +0.000 HD
ENDBRANCH   9  12
ENDBRANCH   1   9
BRANCH   3  15
ATOM     15  S   UNL     1      -8.756   2.347 132.019  0.00  0.00    +0.000 S 
ATOM     16  O   UNL     1      -8.154   1.603 130.945  0.00  0.00    +0.000 OA
ATOM     17  O   UNL     1      -8.366   2.164 133.399  0.00  0.00    +0.000 OA
BRANCH  15  18
ATOM     18  N   UNL     1     -10.391   2.057 131.985  0.00  0.00    +0.000 NA
ATOM     19  H   UNL     1     -10.759   1.262 132.494  0.00  0.00    +0.000 HD
ATOM     20  H   UNL     1     -10.976   2.694 131.453  0.00  0.00    +0.000 HD
ENDBRANCH  15  18
ENDBRANCH   3  15
TORSDOF 4
ENDMDL
MODEL 6
REMARK VINA RESULT:      -5.5      7.525      8.512
REMARK  Name = Diclofenamide
REMARK  4 active torsions:
REMARK  status: ('A' for Active; 'I' for Inactive)
REMARK    1  A    between atoms: N_1  and  S_2
REMARK    2  A    between atoms: S_2  and  C_5
REMARK    3  A    between atoms: C_7  and  S_13
REMARK    4  A    between atoms: S_13  and  N_14
REMARK                            x       y       z     vdW  Elec       q    Type
REMARK                         _______ _______ _______ _____ _____    ______ ____
ROOT
ATOM      1  C   UNL     1      -8.524  -0.322 124.459  0.00  0.00    +0.000 A 
ATOM      2  C   UNL     1      -8.327   1.039 124.191  0.00  0.00    +0.000 A 
ATOM      3  C   UNL     1      -7.982   1.929 125.242  0.00  0.00    +0.000 A 
ATOM      4  C   UNL     1      -7.816   1.446 126.546  0.00  0.00    +0.000 A 
ATOM      5 CL   UNL     1      -7.493   2.463 127.909  0.00  0.00    +0.000 Cl
ATOM      6  C   UNL     1      -7.955   0.061 126.772  0.00  0.00    +0.000 A 
ATOM      7 CL   UNL     1      -7.737  -0.648 128.339  0.00  0.00    +0.000 Cl
ATOM      8  C   UNL     1      -8.304  -0.818 125.739  0.00  0.00    +0.000 A 
ENDROOT
BRANCH   1   9
ATOM      9  S   UNL     1      -9.066  -1.449 123.194  0.00  0.00    +0.000 S 
ATOM     10  O   UNL     1      -7.899  -1.969 122.521  0.00  0.00    +0.000 OA
ATOM     11  O   UNL     1     -10.167  -0.849 122.483  0.00  0.00    +0.000 OA
BRANCH   9  12
ATOM     12  N   UNL     1      -9.727  -2.714 124.089  0.00  0.00    +0.000 NA
ATOM     13  H   UNL     1      -9.194  -3.571 123.909  0.00  0.00    +0.000 HD
ATOM     14  H   UNL     1     -10.717  -2.859 123.892  0.00  0.00    +0.000 HD
ENDBRANCH   9  12
ENDBRANCH   1   9
BRANCH   3  15
ATOM     15  S   UNL     1      -7.840   3.655 124.817  0.00  0.00    +0.000 S 
ATOM     16  O   UNL     1      -8.896   4.349 125.502  0.00  0.00    +0.000 OA
ATOM     17  O   UNL     1      -6.468   4.111 124.847  0.00  0.00    +0.000 OA
BRANCH  15  18
ATOM     18  N   UNL     1      -8.240   3.580 123.207  0.00  0.00    +0.000 NA
ATOM     19  H   UNL     1      -7.697   2.982 122.594  0.00  0.00    +0.000 HD
ATOM     20  H   UNL     1      -9.023   4.139 122.885  0.00  0.00    +0.000 HD
ENDBRANCH  15  18
ENDBRANCH   3  15
TORSDOF 4
ENDMDL
MODEL 7
REMARK VINA RESULT:      -5.3      8.211      9.546
REMARK  Name = Diclofenamide
REMARK  4 active torsions:
REMARK  status: ('A' for Active; 'I' for Inactive)
REMARK    1  A    between atoms: N_1  and  S_2
REMARK    2  A    between atoms: S_2  and  C_5
REMARK    3  A    between atoms: C_7  and  S_13
REMARK    4  A    between atoms: S_13  and  N_14
REMARK                            x       y       z     vdW  Elec       q    Type
REMARK                         _______ _______ _______ _____ _____    ______ ____
ROOT
ATOM      1  C   UNL     1      -8.087   1.500 124.447  0.00  0.00    +0.000 A 
ATOM      2  C   UNL     1      -8.182   0.250 123.821  0.00  0.00    +0.000 A 
ATOM      3  C   UNL     1      -8.214  -0.936 124.602  0.00  0.00    +0.000 A 
ATOM      4  C   UNL     1      -8.173  -0.859 126.000  0.00  0.00    +0.000 A 
ATOM      5 CL   UNL     1      -8.109  -2.247 127.032  0.00  0.00    +0.000 Cl
ATOM      6  C   UNL     1      -8.145   0.416 126.602  0.00  0.00    +0.000 A 
ATOM      7 CL   UNL     1      -8.128   0.627 128.322  0.00  0.00    +0.000 Cl
ATOM      8  C   UNL     1      -8.105   1.586 125.835  0.00  0.00    +0.000 A 
ENDROOT
BRANCH   1   9
ATOM      9  S   UNL     1      -7.931   3.001 123.505  0.00  0.00    +0.000 S 
ATOM     10  O   UNL     1      -8.999   3.039 122.534  0.00  0.00    +0.000 OA
ATOM     11  O   UNL     1      -6.548   3.175 123.142  0.00  0.00    +0.000 OA
BRANCH   9  12
ATOM     12  N   UNL     1      -8.262   4.189 124.653  0.00  0.00    +0.000 NA
ATOM     13  H   UNL     1      -9.100   4.708 124.370  0.00  0.00    +0.000 HD
ATOM     14  H   UNL     1      -7.479   4.826 124.796  0.00  0.00    +0.000 HD
ENDBRANCH   9  12
ENDBRANCH   1   9
BRANCH   3  15
ATOM     15  S   UNL     1      -8.246  -2.480 123.711  0.00  0.00    +0.000 S 
ATOM     16  O   UNL     1      -8.258  -2.161 122.309  0.00  0.00    +0.000 OA
ATOM     17  O   UNL     1      -7.336  -3.452 124.275  0.00  0.00    +0.000 OA
BRANCH  15  18
ATOM     18  N   UNL     1      -9.764  -3.011 124.126  0.00  0.00    +0.000 NA
ATOM     19  H   UNL     1     -10.546  -2.371 124.048  0.00  0.00    +0.000 HD
ATOM     20  H   UNL     1      -9.862  -3.969 124.446  0.00  0.00    +0.000 HD
ENDBRANCH  15  18
ENDBRANCH   3  15
TORSDOF 4
ENDMDL
MODEL 8
REMARK VINA RESULT:      -5.2      8.285      9.687
REMARK  Name = Diclofenamide
REMARK  4 active torsions:
REMARK  status: ('A' for Active; 'I' for Inactive)
REMARK    1  A    between atoms: N_1  and  S_2
REMARK    2  A    between atoms: S_2  and  C_5
REMARK    3  A    between atoms: C_7  and  S_13
REMARK    4  A    between atoms: S_13  and  N_14
REMARK                            x       y       z     vdW  Elec       q    Type
REMARK                         _______ _______ _______ _____ _____    ______ ____
ROOT
ATOM      1  C   UNL     1      -7.734   1.864 124.652  0.00  0.00    +0.000 A 
ATOM      2  C   UNL     1      -6.922   0.835 125.147  0.00  0.00    +0.000 A 
ATOM      3  C   UNL     1      -7.173  -0.511 124.772  0.00  0.00    +0.000 A 
ATOM      4  C   UNL     1      -8.220  -0.813 123.891  0.00  0.00    +0.000 A 
ATOM      5 CL   UNL     1      -8.665  -2.427 123.453  0.00  0.00    +0.000 Cl
ATOM      6  C   UNL     1      -8.977   0.251 123.359  0.00  0.00    +0.000 A 
ATOM      7 CL   UNL     1     -10.271  -0.007 122.235  0.00  0.00    +0.000 Cl
ATOM      8  C   UNL     1      -8.737   1.578 123.732  0.00  0.00    +0.000 A 
ENDROOT
BRANCH   1   9
ATOM      9  S   UNL     1      -7.525   3.549 125.184  0.00  0.00    +0.000 S 
ATOM     10  O   UNL     1      -6.549   3.570 126.248  0.00  0.00    +0.000 OA
ATOM     11  O   UNL     1      -8.825   4.157 125.313  0.00  0.00    +0.000 OA
BRANCH   9  12
ATOM     12  N   UNL     1      -6.807   4.269 123.840  0.00  0.00    +0.000 NA
ATOM     13  H   UNL     1      -7.156   3.818 122.988  0.00  0.00    +0.000 HD
ATOM     14  H   UNL     1      -5.788   4.234 123.873  0.00  0.00    +0.000 HD
ENDBRANCH   9  12
ENDBRANCH   1   9
BRANCH   3  15
ATOM     15  S   UNL     1      -6.141  -1.757 125.521  0.00  0.00    +0.000 S 
ATOM     16  O   UNL     1      -6.972  -2.515 126.417  0.00  0.00    +0.000 OA
ATOM     17  O   UNL     1      -5.265  -2.389 124.560  0.00  0.00    +0.000 OA
BRANCH  15  18
ATOM     18  N   UNL     1      -5.154  -0.787 126.440  0.00  0.00    +0.000 NA
ATOM     19  H   UNL     1      -5.419  -0.584 127.397  0.00  0.00    +0.000 HD
ATOM     20  H   UNL     1      -4.308  -0.427 126.011  0.00  0.00    +0.000 HD
ENDBRANCH  15  18
ENDBRANCH   3  15
TORSDOF 4
ENDMDL
MODEL 9
REMARK VINA RESULT:      -5.2      4.900      6.099
REMARK  Name = Diclofenamide
REMARK  4 active torsions:
REMARK  status: ('A' for Active; 'I' for Inactive)
REMARK    1  A    between atoms: N_1  and  S_2
REMARK    2  A    between atoms: S_2  and  C_5
REMARK    3  A    between atoms: C_7  and  S_13
REMARK    4  A    between atoms: S_13  and  N_14
REMARK                            x       y       z     vdW  Elec       q    Type
REMARK                         _______ _______ _______ _____ _____    ______ ____
ROOT
ATOM      1  C   UNL     1      -8.440   6.446 131.310  0.00  0.00    +0.000 A 
ATOM      2  C   UNL     1      -7.136   6.686 130.857  0.00  0.00    +0.000 A 
ATOM      3  C   UNL     1      -6.029   6.427 131.708  0.00  0.00    +0.000 A 
ATOM      4  C   UNL     1      -6.235   5.912 132.994  0.00  0.00    +0.000 A 
ATOM      5 CL   UNL     1      -4.961   5.656 134.137  0.00  0.00    +0.000 Cl
ATOM      6  C   UNL     1      -7.555   5.619 133.396  0.00  0.00    +0.000 A 
ATOM      7 CL   UNL     1      -7.919   4.947 134.951  0.00  0.00    +0.000 Cl
ATOM      8  C   UNL     1      -8.649   5.880 132.563  0.00  0.00    +0.000 A 
ENDROOT
BRANCH   1   9
ATOM      9  S   UNL     1      -9.859   6.861 130.319  0.00  0.00    +0.000 S 
ATOM     10  O   UNL     1      -9.491   7.939 129.432  0.00  0.00    +0.000 OA
ATOM     11  O   UNL     1     -11.016   6.922 131.175  0.00  0.00    +0.000 OA
BRANCH   9  12
ATOM     12  N   UNL     1     -10.057   5.483 129.370  0.00  0.00    +0.000 NA
ATOM     13  H   UNL     1      -9.993   5.743 128.380  0.00  0.00    +0.000 HD
ATOM     14  H   UNL     1     -10.935   5.000 129.557  0.00  0.00    +0.000 HD
ENDBRANCH   9  12
ENDBRANCH   1   9
BRANCH   3  15
ATOM     15  S   UNL     1      -4.416   6.847 131.073  0.00  0.00    +0.000 S 
ATOM     16  O   UNL     1      -3.745   7.609 132.090  0.00  0.00    +0.000 OA
ATOM     17  O   UNL     1      -3.788   5.730 130.403  0.00  0.00    +0.000 OA
BRANCH  15  18
ATOM     18  N   UNL     1      -4.856   7.892 129.860  0.00  0.00    +0.000 NA
ATOM     19  H   UNL     1      -5.555   8.600 130.052  0.00  0.00    +0.000 HD
ATOM     20  H   UNL     1      -4.405   7.789 128.956  0.00  0.00    +0.000 HD
ENDBRANCH  15  18
ENDBRANCH   3  15
TORSDOF 4
ENDMDL
