MODEL 1
REMARK VINA RESULT:      -8.1      0.000      0.000
REMARK  Name = Dicloxacillin
REMARK  8 active torsions:
REMARK  status: ('A' for Active; 'I' for Inactive)
REMARK    1  A    between atoms: C_4  and  C_5
REMARK    2  A    between atoms: C_4  and  C_6
REMARK    3  A    between atoms: CA_7  and  C_29
REMARK    4  A    between atoms: CA_11  and  N_12
REMARK    5  A    between atoms: C_13  and  C_15
REMARK    6  A    between atoms: C_16  and  C_17
REMARK    7  A    between atoms: C_20  and  C_21
REMARK    8  A    between atoms: C_29  and  O_30
REMARK                            x       y       z     vdW  Elec       q    Type
REMARK                         _______ _______ _______ _____ _____    ______ ____
ROOT
ATOM      1  N   UNL     1      -7.975   1.700 128.923  0.00  0.00    +0.000 N 
ATOM      2  C   UNL     1      -8.080   1.390 127.581  0.00  0.00    +0.000 C 
ATOM      3  O   UNL     1      -9.098   1.625 126.941  0.00  0.00    +0.000 OA
ATOM      4  H   UNL     1      -7.085   1.590 129.396  0.00  0.00    +0.000 HD
ENDROOT
BRANCH   1  14
ATOM      5  C   UNL     1      -9.032   2.506 131.150  0.00  0.00    +0.000 C 
ATOM      6  S   UNL     1      -7.389   2.391 131.943  0.00  0.00    +0.000 S 
ATOM      7  C   UNL     1      -7.687   4.004 132.852  0.00  0.00    +0.000 C 
ATOM      8  C   UNL     1      -6.308   4.565 133.209  0.00  0.00    +0.000 C 
ATOM      9  C   UNL     1      -8.507   3.623 134.099  0.00  0.00    +0.000 C 
ATOM     10  CA  UNL     1      -8.425   4.879 131.810  0.00  0.00    +0.000 C 
ATOM     11  N   UNL     1      -9.262   3.956 131.010  0.00  0.00    +0.000 N 
ATOM     12  C   UNL     1      -9.172   3.919 129.639  0.00  0.00    +0.000 C 
ATOM     13  O   UNL     1      -9.027   4.814 128.832  0.00  0.00    +0.000 OA
ATOM     14  CA  UNL     1      -9.121   2.363 129.621  0.00  0.00    +0.000 C 
BRANCH  10  15
ATOM     15  C   UNL     1      -9.242   6.104 132.293  0.00  0.00    +0.000 C 
ATOM     16  OXT UNL     1      -9.812   6.863 131.518  0.00  0.00    +0.000 OA
BRANCH  15  17
ATOM     17  O   UNL     1      -9.312   6.373 133.613  0.00  0.00    +0.000 OA
ATOM     18  H   UNL     1      -9.509   5.679 134.259  0.00  0.00    +0.000 HD
ENDBRANCH  15  17
ENDBRANCH  10  15
ENDBRANCH   1  14
BRANCH   2  19
ATOM     19  C   UNL     1      -6.921   0.790 126.957  0.00  0.00    +0.000 A 
ATOM     20  C   UNL     1      -5.824   1.401 126.393  0.00  0.00    +0.000 A 
ATOM     21  C   UNL     1      -5.406   2.796 126.181  0.00  0.00    +0.000 C 
ATOM     22  O   UNL     1      -4.933   0.451 125.999  0.00  0.00    +0.000 OA
ATOM     23  N   UNL     1      -5.438  -0.804 126.274  0.00  0.00    +0.000 NA
ATOM     24  C   UNL     1      -6.626  -0.604 126.863  0.00  0.00    +0.000 A 
BRANCH  24  25
ATOM     25  C   UNL     1      -7.481  -1.710 127.286  0.00  0.00    +0.000 A 
ATOM     26  C   UNL     1      -7.398  -2.208 128.603  0.00  0.00    +0.000 A 
ATOM     27 CL   UNL     1      -6.414  -1.467 129.827  0.00  0.00    +0.000 Cl
ATOM     28  C   UNL     1      -8.130  -3.335 128.990  0.00  0.00    +0.000 A 
ATOM     29  C   UNL     1      -8.967  -3.973 128.080  0.00  0.00    +0.000 A 
ATOM     30  C   UNL     1      -9.078  -3.481 126.782  0.00  0.00    +0.000 A 
ATOM     31  C   UNL     1      -8.343  -2.357 126.383  0.00  0.00    +0.000 A 
ATOM     32 CL   UNL     1      -8.526  -1.855 124.734  0.00  0.00    +0.000 Cl
ENDBRANCH  24  25
ENDBRANCH   2  19
TORSDOF 5
ENDMDL
MODEL 2
REMARK VINA RESULT:      -8.0      3.784      7.150
REMARK  Name = Dicloxacillin
REMARK  8 active torsions:
REMARK  status: ('A' for Active; 'I' for Inactive)
REMARK    1  A    between atoms: C_4  and  C_5
REMARK    2  A    between atoms: C_4  and  C_6
REMARK    3  A    between atoms: CA_7  and  C_29
REMARK    4  A    between atoms: CA_11  and  N_12
REMARK    5  A    between atoms: C_13  and  C_15
REMARK    6  A    between atoms: C_16  and  C_17
REMARK    7  A    between atoms: C_20  and  C_21
REMARK    8  A    between atoms: C_29  and  O_30
REMARK                            x       y       z     vdW  Elec       q    Type
REMARK                         _______ _______ _______ _____ _____    ______ ____
ROOT
ATOM      1  N   UNL     1      -7.365  -0.186 128.485  0.00  0.00    +0.000 N 
ATOM      2  C   UNL     1      -7.076   0.485 129.658  0.00  0.00    +0.000 C 
ATOM      3  O   UNL     1      -6.634   1.628 129.657  0.00  0.00    +0.000 OA
ATOM      4  H   UNL     1      -7.826  -1.089 128.524  0.00  0.00    +0.000 HD
ENDROOT
BRANCH   1  14
ATOM      5  C   UNL     1      -6.853  -0.388 125.951  0.00  0.00    +0.000 C 
ATOM      6  S   UNL     1      -7.292  -2.161 126.028  0.00  0.00    +0.000 S 
ATOM      7  C   UNL     1      -8.207  -2.030 124.397  0.00  0.00    +0.000 C 
ATOM      8  C   UNL     1      -9.214  -3.184 124.368  0.00  0.00    +0.000 C 
ATOM      9  C   UNL     1      -7.125  -2.168 123.310  0.00  0.00    +0.000 C 
ATOM     10  CA  UNL     1      -8.899  -0.648 124.477  0.00  0.00    +0.000 C 
ATOM     11  N   UNL     1      -7.985   0.232 125.239  0.00  0.00    +0.000 N 
ATOM     12  C   UNL     1      -8.415   0.914 126.352  0.00  0.00    +0.000 C 
ATOM     13  O   UNL     1      -9.471   1.470 126.580  0.00  0.00    +0.000 OA
ATOM     14  CA  UNL     1      -7.158   0.498 127.171  0.00  0.00    +0.000 C 
BRANCH  10  15
ATOM     15  C   UNL     1      -9.379   0.035 123.171  0.00  0.00    +0.000 C 
ATOM     16  OXT UNL     1     -10.190  -0.485 122.414  0.00  0.00    +0.000 OA
BRANCH  15  17
ATOM     17  O   UNL     1      -8.869   1.236 122.828  0.00  0.00    +0.000 OA
ATOM     18  H   UNL     1      -9.435   2.016 122.738  0.00  0.00    +0.000 HD
ENDBRANCH  15  17
ENDBRANCH  10  15
ENDBRANCH   1  14
BRANCH   2  19
ATOM     19  C   UNL     1      -7.339  -0.218 130.894  0.00  0.00    +0.000 A 
ATOM     20  C   UNL     1      -8.343  -0.015 131.813  0.00  0.00    +0.000 A 
ATOM     21  C   UNL     1      -9.465   0.930 131.934  0.00  0.00    +0.000 C 
ATOM     22  O   UNL     1      -8.261  -0.961 132.787  0.00  0.00    +0.000 OA
ATOM     23  N   UNL     1      -7.184  -1.790 132.542  0.00  0.00    +0.000 NA
ATOM     24  C   UNL     1      -6.637  -1.356 131.397  0.00  0.00    +0.000 A 
BRANCH  24  25
ATOM     25  C   UNL     1      -5.448  -1.977 130.818  0.00  0.00    +0.000 A 
ATOM     26  C   UNL     1      -4.173  -1.422 131.048  0.00  0.00    +0.000 A 
ATOM     27 CL   UNL     1      -3.910  -0.090 132.131  0.00  0.00    +0.000 Cl
ATOM     28  C   UNL     1      -3.041  -1.940 130.412  0.00  0.00    +0.000 A 
ATOM     29  C   UNL     1      -3.157  -3.027 129.551  0.00  0.00    +0.000 A 
ATOM     30  C   UNL     1      -4.406  -3.602 129.329  0.00  0.00    +0.000 A 
ATOM     31  C   UNL     1      -5.547  -3.085 129.957  0.00  0.00    +0.000 A 
ATOM     32 CL   UNL     1      -7.055  -3.850 129.579  0.00  0.00    +0.000 Cl
ENDBRANCH  24  25
ENDBRANCH   2  19
TORSDOF 5
ENDMDL
MODEL 3
REMARK VINA RESULT:      -8.0      3.709      7.904
REMARK  Name = Dicloxacillin
REMARK  8 active torsions:
REMARK  status: ('A' for Active; 'I' for Inactive)
REMARK    1  A    between atoms: C_4  and  C_5
REMARK    2  A    between atoms: C_4  and  C_6
REMARK    3  A    between atoms: CA_7  and  C_29
REMARK    4  A    between atoms: CA_11  and  N_12
REMARK    5  A    between atoms: C_13  and  C_15
REMARK    6  A    between atoms: C_16  and  C_17
REMARK    7  A    between atoms: C_20  and  C_21
REMARK    8  A    between atoms: C_29  and  O_30
REMARK                            x       y       z     vdW  Elec       q    Type
REMARK                         _______ _______ _______ _____ _____    ______ ____
ROOT
ATOM      1  N   UNL     1      -7.978   2.626 128.092  0.00  0.00    +0.000 N 
ATOM      2  C   UNL     1      -7.326   2.210 129.236  0.00  0.00    +0.000 C 
ATOM      3  O   UNL     1      -6.102   2.199 129.316  0.00  0.00    +0.000 OA
ATOM      4  H   UNL     1      -8.988   2.723 128.096  0.00  0.00    +0.000 HD
ENDROOT
BRANCH   1  14
ATOM      5  C   UNL     1      -6.867   2.076 125.814  0.00  0.00    +0.000 C 
ATOM      6  S   UNL     1      -7.894   0.568 125.705  0.00  0.00    +0.000 S 
ATOM      7  C   UNL     1      -8.203   0.880 123.882  0.00  0.00    +0.000 C 
ATOM      8  C   UNL     1      -9.493   0.138 123.524  0.00  0.00    +0.000 C 
ATOM      9  C   UNL     1      -6.973   0.303 123.156  0.00  0.00    +0.000 C 
ATOM     10  CA  UNL     1      -8.366   2.417 123.797  0.00  0.00    +0.000 C 
ATOM     11  N   UNL     1      -7.462   2.988 124.820  0.00  0.00    +0.000 N 
ATOM     12  C   UNL     1      -7.927   3.856 125.779  0.00  0.00    +0.000 C 
ATOM     13  O   UNL     1      -8.743   4.753 125.704  0.00  0.00    +0.000 OA
ATOM     14  CA  UNL     1      -7.181   3.101 126.917  0.00  0.00    +0.000 C 
BRANCH  10  15
ATOM     15  C   UNL     1      -8.186   3.124 122.430  0.00  0.00    +0.000 C 
ATOM     16  OXT UNL     1      -9.031   3.070 121.543  0.00  0.00    +0.000 OA
BRANCH  15  17
ATOM     17  O   UNL     1      -7.047   3.802 122.182  0.00  0.00    +0.000 OA
ATOM     18  H   UNL     1      -6.265   3.359 121.822  0.00  0.00    +0.000 HD
ENDBRANCH  15  17
ENDBRANCH  10  15
ENDBRANCH   1  14
BRANCH   2  19
ATOM     19  C   UNL     1      -8.155   1.805 130.350  0.00  0.00    +0.000 A 
ATOM     20  C   UNL     1      -8.439   0.538 130.807  0.00  0.00    +0.000 A 
ATOM     21  C   UNL     1      -8.074  -0.824 130.386  0.00  0.00    +0.000 C 
ATOM     22  O   UNL     1      -9.195   0.625 131.934  0.00  0.00    +0.000 OA
ATOM     23  N   UNL     1      -9.445   1.951 132.227  0.00  0.00    +0.000 NA
ATOM     24  C   UNL     1      -8.809   2.664 131.286  0.00  0.00    +0.000 A 
BRANCH  24  25
ATOM     25  C   UNL     1      -8.858   4.123 131.248  0.00  0.00    +0.000 A 
ATOM     26  C   UNL     1      -9.987   4.782 130.718  0.00  0.00    +0.000 A 
ATOM     27 CL   UNL     1     -11.423   3.938 130.228  0.00  0.00    +0.000 Cl
ATOM     28  C   UNL     1     -10.002   6.173 130.574  0.00  0.00    +0.000 A 
ATOM     29  C   UNL     1      -8.904   6.930 130.971  0.00  0.00    +0.000 A 
ATOM     30  C   UNL     1      -7.790   6.297 131.517  0.00  0.00    +0.000 A 
ATOM     31  C   UNL     1      -7.763   4.903 131.657  0.00  0.00    +0.000 A 
ATOM     32 CL   UNL     1      -6.311   4.218 132.310  0.00  0.00    +0.000 Cl
ENDBRANCH  24  25
ENDBRANCH   2  19
TORSDOF 5
ENDMDL
MODEL 4
REMARK VINA RESULT:      -7.8      3.685      7.841
REMARK  Name = Dicloxacillin
REMARK  8 active torsions:
REMARK  status: ('A' for Active; 'I' for Inactive)
REMARK    1  A    between atoms: C_4  and  C_5
REMARK    2  A    between atoms: C_4  and  C_6
REMARK    3  A    between atoms: CA_7  and  C_29
REMARK    4  A    between atoms: CA_11  and  N_12
REMARK    5  A    between atoms: C_13  and  C_15
REMARK    6  A    between atoms: C_16  and  C_17
REMARK    7  A    between atoms: C_20  and  C_21
REMARK    8  A    between atoms: C_29  and  O_30
REMARK                            x       y       z     vdW  Elec       q    Type
REMARK                         _______ _______ _______ _____ _____    ______ ____
ROOT
ATOM      1  N   UNL     1      -6.438   3.081 128.044  0.00  0.00    +0.000 N 
ATOM      2  C   UNL     1      -6.171   4.052 128.989  0.00  0.00    +0.000 C 
ATOM      3  O   UNL     1      -5.818   5.183 128.672  0.00  0.00    +0.000 OA
ATOM      4  H   UNL     1      -6.828   2.191 128.335  0.00  0.00    +0.000 HD
ENDROOT
BRANCH   1  14
ATOM      5  C   UNL     1      -6.237   2.235 125.601  0.00  0.00    +0.000 C 
ATOM      6  S   UNL     1      -6.829   0.594 126.146  0.00  0.00    +0.000 S 
ATOM      7  C   UNL     1      -7.907   0.447 124.619  0.00  0.00    +0.000 C 
ATOM      8  C   UNL     1      -9.014  -0.554 124.961  0.00  0.00    +0.000 C 
ATOM      9  C   UNL     1      -6.972  -0.067 123.508  0.00  0.00    +0.000 C 
ATOM     10  CA  UNL     1      -8.453   1.881 124.419  0.00  0.00    +0.000 C 
ATOM     11  N   UNL     1      -7.380   2.801 124.861  0.00  0.00    +0.000 N 
ATOM     12  C   UNL     1      -7.616   3.769 125.807  0.00  0.00    +0.000 C 
ATOM     13  O   UNL     1      -8.582   4.484 125.984  0.00  0.00    +0.000 OA
ATOM     14  CA  UNL     1      -6.319   3.411 126.589  0.00  0.00    +0.000 C 
BRANCH  10  15
ATOM     15  C   UNL     1      -9.012   2.293 123.034  0.00  0.00    +0.000 C 
ATOM     16  OXT UNL     1      -9.780   1.583 122.394  0.00  0.00    +0.000 OA
BRANCH  15  17
ATOM     17  O   UNL     1      -8.623   3.462 122.485  0.00  0.00    +0.000 OA
ATOM     18  H   UNL     1      -9.024   4.302 122.752  0.00  0.00    +0.000 HD
ENDBRANCH  15  17
ENDBRANCH  10  15
ENDBRANCH   1  14
BRANCH   2  19
ATOM     19  C   UNL     1      -6.347   3.681 130.376  0.00  0.00    +0.000 A 
ATOM     20  C   UNL     1      -5.560   2.875 131.167  0.00  0.00    +0.000 A 
ATOM     21  C   UNL     1      -4.328   2.100 130.957  0.00  0.00    +0.000 C 
ATOM     22  O   UNL     1      -6.055   2.866 132.434  0.00  0.00    +0.000 OA
ATOM     23  N   UNL     1      -7.193   3.646 132.496  0.00  0.00    +0.000 NA
ATOM     24  C   UNL     1      -7.364   4.149 131.264  0.00  0.00    +0.000 A 
BRANCH  24  25
ATOM     25  C   UNL     1      -8.489   5.017 130.927  0.00  0.00    +0.000 A 
ATOM     26  C   UNL     1      -9.754   4.462 130.643  0.00  0.00    +0.000 A 
ATOM     27 CL   UNL     1     -10.097   2.769 130.820  0.00  0.00    +0.000 Cl
ATOM     28  C   UNL     1     -10.810   5.270 130.212  0.00  0.00    +0.000 A 
ATOM     29  C   UNL     1     -10.630   6.643 130.073  0.00  0.00    +0.000 A 
ATOM     30  C   UNL     1      -9.393   7.211 130.370  0.00  0.00    +0.000 A 
ATOM     31  C   UNL     1      -8.327   6.408 130.795  0.00  0.00    +0.000 A 
ATOM     32 CL   UNL     1      -6.822   7.213 131.098  0.00  0.00    +0.000 Cl
ENDBRANCH  24  25
ENDBRANCH   2  19
TORSDOF 5
ENDMDL
MODEL 5
REMARK VINA RESULT:      -7.8      4.018      5.595
REMARK  Name = Dicloxacillin
REMARK  8 active torsions:
REMARK  status: ('A' for Active; 'I' for Inactive)
REMARK    1  A    between atoms: C_4  and  C_5
REMARK    2  A    between atoms: C_4  and  C_6
REMARK    3  A    between atoms: CA_7  and  C_29
REMARK    4  A    between atoms: CA_11  and  N_12
REMARK    5  A    between atoms: C_13  and  C_15
REMARK    6  A    between atoms: C_16  and  C_17
REMARK    7  A    between atoms: C_20  and  C_21
REMARK    8  A    between atoms: C_29  and  O_30
REMARK                            x       y       z     vdW  Elec       q    Type
REMARK                         _______ _______ _______ _____ _____    ______ ____
ROOT
ATOM      1  N   UNL     1      -7.168   0.708 127.140  0.00  0.00    +0.000 N 
ATOM      2  C   UNL     1      -8.056   1.288 126.255  0.00  0.00    +0.000 C 
ATOM      3  O   UNL     1      -9.228   1.486 126.553  0.00  0.00    +0.000 OA
ATOM      4  H   UNL     1      -6.183   0.654 126.900  0.00  0.00    +0.000 HD
ENDROOT
BRANCH   1  14
ATOM      5  C   UNL     1      -7.522  -1.155 128.908  0.00  0.00    +0.000 C 
ATOM      6  S   UNL     1      -6.376  -2.229 127.972  0.00  0.00    +0.000 S 
ATOM      7  C   UNL     1      -5.585  -2.818 129.566  0.00  0.00    +0.000 C 
ATOM      8  C   UNL     1      -4.185  -3.319 129.199  0.00  0.00    +0.000 C 
ATOM      9  C   UNL     1      -6.497  -3.947 130.080  0.00  0.00    +0.000 C 
ATOM     10  CA  UNL     1      -5.542  -1.545 130.444  0.00  0.00    +0.000 C 
ATOM     11  N   UNL     1      -6.749  -0.761 130.101  0.00  0.00    +0.000 N 
ATOM     12  C   UNL     1      -6.659   0.552 129.705  0.00  0.00    +0.000 C 
ATOM     13  O   UNL     1      -5.939   1.449 130.098  0.00  0.00    +0.000 OA
ATOM     14  CA  UNL     1      -7.631   0.326 128.511  0.00  0.00    +0.000 C 
BRANCH  10  15
ATOM     15  C   UNL     1      -5.382  -1.688 131.979  0.00  0.00    +0.000 C 
ATOM     16  OXT UNL     1      -6.294  -1.449 132.762  0.00  0.00    +0.000 OA
BRANCH  15  17
ATOM     17  O   UNL     1      -4.189  -2.060 132.488  0.00  0.00    +0.000 OA
ATOM     18  H   UNL     1      -3.622  -2.696 132.028  0.00  0.00    +0.000 HD
ENDBRANCH  15  17
ENDBRANCH  10  15
ENDBRANCH   1  14
BRANCH   2  19
ATOM     19  C   UNL     1      -7.534   1.672 124.962  0.00  0.00    +0.000 A 
ATOM     20  C   UNL     1      -7.035   2.888 124.552  0.00  0.00    +0.000 A 
ATOM     21  C   UNL     1      -6.856   4.204 125.185  0.00  0.00    +0.000 C 
ATOM     22  O   UNL     1      -6.575   2.779 123.277  0.00  0.00    +0.000 OA
ATOM     23  N   UNL     1      -6.784   1.495 122.813  0.00  0.00    +0.000 NA
ATOM     24  C   UNL     1      -7.347   0.823 123.829  0.00  0.00    +0.000 A 
BRANCH  24  25
ATOM     25  C   UNL     1      -7.739  -0.579 123.712  0.00  0.00    +0.000 A 
ATOM     26  C   UNL     1      -9.010  -0.921 123.204  0.00  0.00    +0.000 A 
ATOM     27 CL   UNL     1     -10.110   0.256 122.556  0.00  0.00    +0.000 Cl
ATOM     28  C   UNL     1      -9.441  -2.251 123.189  0.00  0.00    +0.000 A 
ATOM     29  C   UNL     1      -8.610  -3.262 123.662  0.00  0.00    +0.000 A 
ATOM     30  C   UNL     1      -7.343  -2.945 124.146  0.00  0.00    +0.000 A 
ATOM     31  C   UNL     1      -6.906  -1.614 124.172  0.00  0.00    +0.000 A 
ATOM     32 CL   UNL     1      -5.329  -1.328 124.832  0.00  0.00    +0.000 Cl
ENDBRANCH  24  25
ENDBRANCH   2  19
TORSDOF 5
ENDMDL
MODEL 6
REMARK VINA RESULT:      -7.8      3.698      7.471
REMARK  Name = Dicloxacillin
REMARK  8 active torsions:
REMARK  status: ('A' for Active; 'I' for Inactive)
REMARK    1  A    between atoms: C_4  and  C_5
REMARK    2  A    between atoms: C_4  and  C_6
REMARK    3  A    between atoms: CA_7  and  C_29
REMARK    4  A    between atoms: CA_11  and  N_12
REMARK    5  A    between atoms: C_13  and  C_15
REMARK    6  A    between atoms: C_16  and  C_17
REMARK    7  A    between atoms: C_20  and  C_21
REMARK    8  A    between atoms: C_29  and  O_30
REMARK                            x       y       z     vdW  Elec       q    Type
REMARK                         _______ _______ _______ _____ _____    ______ ____
ROOT
ATOM      1  N   UNL     1      -8.075   0.046 128.306  0.00  0.00    +0.000 N 
ATOM      2  C   UNL     1      -7.322   0.622 129.312  0.00  0.00    +0.000 C 
ATOM      3  O   UNL     1      -6.550   1.548 129.092  0.00  0.00    +0.000 OA
ATOM      4  H   UNL     1      -8.779  -0.645 128.540  0.00  0.00    +0.000 HD
ENDROOT
BRANCH   1  14
ATOM      5  C   UNL     1      -7.071  -0.195 125.928  0.00  0.00    +0.000 C 
ATOM      6  S   UNL     1      -6.644  -1.930 126.310  0.00  0.00    +0.000 S 
ATOM      7  C   UNL     1      -7.198  -2.469 124.602  0.00  0.00    +0.000 C 
ATOM      8  C   UNL     1      -7.530  -3.961 124.701  0.00  0.00    +0.000 C 
ATOM      9  C   UNL     1      -5.995  -2.196 123.679  0.00  0.00    +0.000 C 
ATOM     10  CA  UNL     1      -8.453  -1.604 124.335  0.00  0.00    +0.000 C 
ATOM     11  N   UNL     1      -8.209  -0.302 124.996  0.00  0.00    +0.000 N 
ATOM     12  C   UNL     1      -9.102   0.216 125.902  0.00  0.00    +0.000 C 
ATOM     13  O   UNL     1     -10.317   0.209 125.908  0.00  0.00    +0.000 OA
ATOM     14  CA  UNL     1      -7.971   0.574 126.910  0.00  0.00    +0.000 C 
BRANCH  10  15
ATOM     15  C   UNL     1      -8.945  -1.412 122.878  0.00  0.00    +0.000 C 
ATOM     16  OXT UNL     1      -8.424  -1.980 121.925  0.00  0.00    +0.000 OA
BRANCH  15  17
ATOM     17  O   UNL     1      -9.968  -0.567 122.632  0.00  0.00    +0.000 OA
ATOM     18  H   UNL     1     -10.824  -0.891 122.318  0.00  0.00    +0.000 HD
ENDBRANCH  15  17
ENDBRANCH  10  15
ENDBRANCH   1  14
BRANCH   2  19
ATOM     19  C   UNL     1      -7.501   0.094 130.646  0.00  0.00    +0.000 A 
ATOM     20  C   UNL     1      -8.444   0.424 131.593  0.00  0.00    +0.000 A 
ATOM     21  C   UNL     1      -9.557   1.384 131.658  0.00  0.00    +0.000 C 
ATOM     22  O   UNL     1      -8.295  -0.382 132.678  0.00  0.00    +0.000 OA
ATOM     23  N   UNL     1      -7.234  -1.243 132.477  0.00  0.00    +0.000 NA
ATOM     24  C   UNL     1      -6.764  -0.970 131.251  0.00  0.00    +0.000 A 
BRANCH  24  25
ATOM     25  C   UNL     1      -5.614  -1.671 130.684  0.00  0.00    +0.000 A 
ATOM     26  C   UNL     1      -5.793  -2.894 130.003  0.00  0.00    +0.000 A 
ATOM     27 CL   UNL     1      -7.361  -3.559 129.665  0.00  0.00    +0.000 Cl
ATOM     28  C   UNL     1      -4.694  -3.629 129.552  0.00  0.00    +0.000 A 
ATOM     29  C   UNL     1      -3.402  -3.153 129.754  0.00  0.00    +0.000 A 
ATOM     30  C   UNL     1      -3.208  -1.937 130.405  0.00  0.00    +0.000 A 
ATOM     31  C   UNL     1      -4.304  -1.197 130.867  0.00  0.00    +0.000 A 
ATOM     32 CL   UNL     1      -3.946   0.281 131.698  0.00  0.00    +0.000 Cl
ENDBRANCH  24  25
ENDBRANCH   2  19
TORSDOF 5
ENDMDL
MODEL 7
REMARK VINA RESULT:      -7.8      1.948      2.601
REMARK  Name = Dicloxacillin
REMARK  8 active torsions:
REMARK  status: ('A' for Active; 'I' for Inactive)
REMARK    1  A    between atoms: C_4  and  C_5
REMARK    2  A    between atoms: C_4  and  C_6
REMARK    3  A    between atoms: CA_7  and  C_29
REMARK    4  A    between atoms: CA_11  and  N_12
REMARK    5  A    between atoms: C_13  and  C_15
REMARK    6  A    between atoms: C_16  and  C_17
REMARK    7  A    between atoms: C_20  and  C_21
REMARK    8  A    between atoms: C_29  and  O_30
REMARK                            x       y       z     vdW  Elec       q    Type
REMARK                         _______ _______ _______ _____ _____    ______ ____
ROOT
ATOM      1  N   UNL     1      -7.597   1.537 127.639  0.00  0.00    +0.000 N 
ATOM      2  C   UNL     1      -8.331   0.981 126.609  0.00  0.00    +0.000 C 
ATOM      3  O   UNL     1      -9.541   1.149 126.514  0.00  0.00    +0.000 OA
ATOM      4  H   UNL     1      -6.585   1.466 127.629  0.00  0.00    +0.000 HD
ENDROOT
BRANCH   1  14
ATOM      5  C   UNL     1      -7.556   2.614 129.997  0.00  0.00    +0.000 C 
ATOM      6  S   UNL     1      -5.752   2.330 130.070  0.00  0.00    +0.000 S 
ATOM      7  C   UNL     1      -5.491   4.021 130.835  0.00  0.00    +0.000 C 
ATOM      8  C   UNL     1      -4.040   4.414 130.542  0.00  0.00    +0.000 C 
ATOM      9  C   UNL     1      -5.755   3.832 132.341  0.00  0.00    +0.000 C 
ATOM     10  CA  UNL     1      -6.505   4.920 130.089  0.00  0.00    +0.000 C 
ATOM     11  N   UNL     1      -7.682   4.070 129.802  0.00  0.00    +0.000 N 
ATOM     12  C   UNL     1      -8.171   3.935 128.524  0.00  0.00    +0.000 C 
ATOM     13  O   UNL     1      -8.287   4.752 127.632  0.00  0.00    +0.000 OA
ATOM     14  CA  UNL     1      -8.282   2.389 128.661  0.00  0.00    +0.000 C 
BRANCH  10  15
ATOM     15  C   UNL     1      -6.928   6.271 130.720  0.00  0.00    +0.000 C 
ATOM     16  OXT UNL     1      -6.225   7.273 130.665  0.00  0.00    +0.000 OA
BRANCH  15  17
ATOM     17  O   UNL     1      -8.099   6.352 131.384  0.00  0.00    +0.000 OA
ATOM     18  H   UNL     1      -8.432   5.612 131.912  0.00  0.00    +0.000 HD
ENDBRANCH  15  17
ENDBRANCH  10  15
ENDBRANCH   1  14
BRANCH   2  19
ATOM     19  C   UNL     1      -7.600   0.205 125.631  0.00  0.00    +0.000 A 
ATOM     20  C   UNL     1      -7.119   0.588 124.400  0.00  0.00    +0.000 A 
ATOM     21  C   UNL     1      -7.155   1.830 123.612  0.00  0.00    +0.000 C 
ATOM     22  O   UNL     1      -6.418  -0.440 123.850  0.00  0.00    +0.000 OA
ATOM     23  N   UNL     1      -6.446  -1.530 124.698  0.00  0.00    +0.000 NA
ATOM     24  C   UNL     1      -7.144  -1.141 125.776  0.00  0.00    +0.000 A 
BRANCH  24  25
ATOM     25  C   UNL     1      -7.408  -2.039 126.898  0.00  0.00    +0.000 A 
ATOM     26  C   UNL     1      -8.523  -2.902 126.868  0.00  0.00    +0.000 A 
ATOM     27 CL   UNL     1      -9.545  -3.069 125.474  0.00  0.00    +0.000 Cl
ATOM     28  C   UNL     1      -8.851  -3.686 127.978  0.00  0.00    +0.000 A 
ATOM     29  C   UNL     1      -8.067  -3.637 129.127  0.00  0.00    +0.000 A 
ATOM     30  C   UNL     1      -6.950  -2.807 129.165  0.00  0.00    +0.000 A 
ATOM     31  C   UNL     1      -6.618  -2.012 128.060  0.00  0.00    +0.000 A 
ATOM     32 CL   UNL     1      -5.231  -0.986 128.231  0.00  0.00    +0.000 Cl
ENDBRANCH  24  25
ENDBRANCH   2  19
TORSDOF 5
ENDMDL
MODEL 8
REMARK VINA RESULT:      -7.6      3.251      8.096
REMARK  Name = Dicloxacillin
REMARK  8 active torsions:
REMARK  status: ('A' for Active; 'I' for Inactive)
REMARK    1  A    between atoms: C_4  and  C_5
REMARK    2  A    between atoms: C_4  and  C_6
REMARK    3  A    between atoms: CA_7  and  C_29
REMARK    4  A    between atoms: CA_11  and  N_12
REMARK    5  A    between atoms: C_13  and  C_15
REMARK    6  A    between atoms: C_16  and  C_17
REMARK    7  A    between atoms: C_20  and  C_21
REMARK    8  A    between atoms: C_29  and  O_30
REMARK                            x       y       z     vdW  Elec       q    Type
REMARK                         _______ _______ _______ _____ _____    ______ ____
ROOT
ATOM      1  N   UNL     1      -8.261   1.280 128.647  0.00  0.00    +0.000 N 
ATOM      2  C   UNL     1      -7.508   1.975 129.573  0.00  0.00    +0.000 C 
ATOM      3  O   UNL     1      -6.500   2.595 129.252  0.00  0.00    +0.000 OA
ATOM      4  H   UNL     1      -9.144   0.866 128.927  0.00  0.00    +0.000 HD
ENDROOT
BRANCH   1  14
ATOM      5  C   UNL     1      -7.133   0.052 126.661  0.00  0.00    +0.000 C 
ATOM      6  S   UNL     1      -7.288  -1.522 127.578  0.00  0.00    +0.000 S 
ATOM      7  C   UNL     1      -7.797  -2.415 126.010  0.00  0.00    +0.000 C 
ATOM      8  C   UNL     1      -8.568  -3.662 126.448  0.00  0.00    +0.000 C 
ATOM      9  C   UNL     1      -6.478  -2.762 125.292  0.00  0.00    +0.000 C 
ATOM     10  CA  UNL     1      -8.700  -1.390 125.283  0.00  0.00    +0.000 C 
ATOM     11  N   UNL     1      -8.148  -0.053 125.596  0.00  0.00    +0.000 N 
ATOM     12  C   UNL     1      -8.934   0.935 126.139  0.00  0.00    +0.000 C 
ATOM     13  O   UNL     1     -10.089   1.239 125.915  0.00  0.00    +0.000 OA
ATOM     14  CA  UNL     1      -7.859   1.293 127.206  0.00  0.00    +0.000 C 
BRANCH  10  15
ATOM     15  C   UNL     1      -8.958  -1.551 123.763  0.00  0.00    +0.000 C 
ATOM     16  OXT UNL     1      -8.496  -0.779 122.931  0.00  0.00    +0.000 OA
BRANCH  15  17
ATOM     17  O   UNL     1      -9.744  -2.557 123.329  0.00  0.00    +0.000 OA
ATOM     18  H   UNL     1      -9.952  -3.315 123.896  0.00  0.00    +0.000 HD
ENDBRANCH  15  17
ENDBRANCH  10  15
ENDBRANCH   1  14
BRANCH   2  19
ATOM     19  C   UNL     1      -7.974   1.957 130.942  0.00  0.00    +0.000 A 
ATOM     20  C   UNL     1      -8.012   0.909 131.834  0.00  0.00    +0.000 A 
ATOM     21  C   UNL     1      -7.647  -0.515 131.778  0.00  0.00    +0.000 C 
ATOM     22  O   UNL     1      -8.450   1.360 133.040  0.00  0.00    +0.000 OA
ATOM     23  N   UNL     1      -8.735   2.708 132.959  0.00  0.00    +0.000 NA
ATOM     24  C   UNL     1      -8.436   3.074 131.703  0.00  0.00    +0.000 A 
BRANCH  24  25
ATOM     25  C   UNL     1      -8.626   4.441 131.224  0.00  0.00    +0.000 A 
ATOM     26  C   UNL     1      -7.618   5.408 131.418  0.00  0.00    +0.000 A 
ATOM     27 CL   UNL     1      -6.061   5.021 132.082  0.00  0.00    +0.000 Cl
ATOM     28  C   UNL     1      -7.830   6.744 131.064  0.00  0.00    +0.000 A 
ATOM     29  C   UNL     1      -9.038   7.135 130.496  0.00  0.00    +0.000 A 
ATOM     30  C   UNL     1     -10.037   6.189 130.277  0.00  0.00    +0.000 A 
ATOM     31  C   UNL     1      -9.836   4.849 130.636  0.00  0.00    +0.000 A 
ATOM     32 CL   UNL     1     -11.159   3.765 130.357  0.00  0.00    +0.000 Cl
ENDBRANCH  24  25
ENDBRANCH   2  19
TORSDOF 5
ENDMDL
MODEL 9
REMARK VINA RESULT:      -7.6      3.885      6.195
REMARK  Name = Dicloxacillin
REMARK  8 active torsions:
REMARK  status: ('A' for Active; 'I' for Inactive)
REMARK    1  A    between atoms: C_4  and  C_5
REMARK    2  A    between atoms: C_4  and  C_6
REMARK    3  A    between atoms: CA_7  and  C_29
REMARK    4  A    between atoms: CA_11  and  N_12
REMARK    5  A    between atoms: C_13  and  C_15
REMARK    6  A    between atoms: C_16  and  C_17
REMARK    7  A    between atoms: C_20  and  C_21
REMARK    8  A    between atoms: C_29  and  O_30
REMARK                            x       y       z     vdW  Elec       q    Type
REMARK                         _______ _______ _______ _____ _____    ______ ____
ROOT
ATOM      1  N   UNL     1      -6.014   3.051 131.603  0.00  0.00    +0.000 N 
ATOM      2  C   UNL     1      -6.463   1.980 132.351  0.00  0.00    +0.000 C 
ATOM      3  O   UNL     1      -5.695   1.279 133.000  0.00  0.00    +0.000 OA
ATOM      4  H   UNL     1      -6.685   3.673 131.164  0.00  0.00    +0.000 HD
ENDROOT
BRANCH   1  14
ATOM      5  C   UNL     1      -3.780   3.141 130.290  0.00  0.00    +0.000 C 
ATOM      6  S   UNL     1      -4.719   2.994 128.729  0.00  0.00    +0.000 S 
ATOM      7  C   UNL     1      -3.619   4.277 127.917  0.00  0.00    +0.000 C 
ATOM      8  C   UNL     1      -4.421   4.866 126.753  0.00  0.00    +0.000 C 
ATOM      9  C   UNL     1      -2.374   3.505 127.442  0.00  0.00    +0.000 C 
ATOM     10  CA  UNL     1      -3.373   5.311 129.042  0.00  0.00    +0.000 C 
ATOM     11  N   UNL     1      -3.332   4.546 130.309  0.00  0.00    +0.000 N 
ATOM     12  C   UNL     1      -4.146   4.874 131.367  0.00  0.00    +0.000 C 
ATOM     13  O   UNL     1      -4.489   5.958 131.795  0.00  0.00    +0.000 OA
ATOM     14  CA  UNL     1      -4.556   3.389 131.594  0.00  0.00    +0.000 C 
BRANCH  10  15
ATOM     15  C   UNL     1      -2.168   6.279 128.931  0.00  0.00    +0.000 C 
ATOM     16  OXT UNL     1      -1.358   6.431 129.839  0.00  0.00    +0.000 OA
BRANCH  15  17
ATOM     17  O   UNL     1      -2.009   7.011 127.810  0.00  0.00    +0.000 OA
ATOM     18  H   UNL     1      -1.558   6.651 127.032  0.00  0.00    +0.000 HD
ENDBRANCH  15  17
ENDBRANCH  10  15
ENDBRANCH   1  14
BRANCH   2  19
ATOM     19  C   UNL     1      -7.888   1.734 132.351  0.00  0.00    +0.000 A 
ATOM     20  C   UNL     1      -8.896   2.464 132.937  0.00  0.00    +0.000 A 
ATOM     21  C   UNL     1      -8.953   3.684 133.759  0.00  0.00    +0.000 C 
ATOM     22  O   UNL     1     -10.098   1.915 132.613  0.00  0.00    +0.000 OA
ATOM     23  N   UNL     1      -9.902   0.798 131.826  0.00  0.00    +0.000 NA
ATOM     24  C   UNL     1      -8.576   0.694 131.654  0.00  0.00    +0.000 A 
BRANCH  24  25
ATOM     25  C   UNL     1      -7.973  -0.392 130.885  0.00  0.00    +0.000 A 
ATOM     26  C   UNL     1      -7.779  -0.255 129.495  0.00  0.00    +0.000 A 
ATOM     27 CL   UNL     1      -8.090   1.228 128.645  0.00  0.00    +0.000 Cl
ATOM     28  C   UNL     1      -7.305  -1.324 128.729  0.00  0.00    +0.000 A 
ATOM     29  C   UNL     1      -7.001  -2.539 129.335  0.00  0.00    +0.000 A 
ATOM     30  C   UNL     1      -7.166  -2.685 130.711  0.00  0.00    +0.000 A 
ATOM     31  C   UNL     1      -7.647  -1.621 131.485  0.00  0.00    +0.000 A 
ATOM     32 CL   UNL     1      -7.852  -1.925 133.179  0.00  0.00    +0.000 Cl
ENDBRANCH  24  25
ENDBRANCH   2  19
TORSDOF 5
ENDMDL
