MODEL 1
REMARK VINA RESULT:      -9.3      0.000      0.000
REMARK  Name = Dicoumarol
REMARK  4 active torsions:
REMARK  status: ('A' for Active; 'I' for Inactive)
REMARK    1  A    between atoms: O_1  and  C_2
REMARK    2  A    between atoms: C_3  and  C_4
REMARK    3  A    between atoms: C_4  and  C_5
REMARK    4  A    between atoms: C_6  and  O_7
REMARK                            x       y       z     vdW  Elec       q    Type
REMARK                         _______ _______ _______ _____ _____    ______ ____
ROOT
ATOM      1  C   UNL     1      -8.451   2.479 123.536  0.00  0.00    +0.000 C 
ENDROOT
BRANCH   1   3
ATOM      2  C   UNL     1      -7.614   0.212 124.153  0.00  0.00    +0.000 A 
ATOM      3  C   UNL     1      -8.558   0.968 123.555  0.00  0.00    +0.000 A 
ATOM      4  C   UNL     1      -9.707   0.287 122.878  0.00  0.00    +0.000 A 
ATOM      5  O   UNL     1     -10.457   0.856 122.087  0.00  0.00    +0.000 OA
ATOM      6  O   UNL     1      -9.925  -1.041 123.141  0.00  0.00    +0.000 OA
ATOM      7  C   UNL     1      -8.945  -1.804 123.765  0.00  0.00    +0.000 A 
ATOM      8  C   UNL     1      -7.770  -1.239 124.246  0.00  0.00    +0.000 A 
ATOM      9  C   UNL     1      -6.832  -2.096 124.828  0.00  0.00    +0.000 A 
ATOM     10  C   UNL     1      -7.096  -3.470 124.924  0.00  0.00    +0.000 A 
ATOM     11  C   UNL     1      -8.295  -4.000 124.445  0.00  0.00    +0.000 A 
ATOM     12  C   UNL     1      -9.225  -3.161 123.854  0.00  0.00    +0.000 A 
BRANCH   2  13
ATOM     13  O   UNL     1      -6.466   0.712 124.738  0.00  0.00    +0.000 OA
ATOM     14  H   UNL     1      -6.269   0.260 125.573  0.00  0.00    +0.000 HD
ENDBRANCH   2  13
ENDBRANCH   1   3
BRANCH   1  15
ATOM     15  C   UNL     1      -7.650   3.099 122.427  0.00  0.00    +0.000 A 
ATOM     16  C   UNL     1      -8.108   3.336 121.185  0.00  0.00    +0.000 A 
ATOM     17  C   UNL     1      -7.293   4.099 120.245  0.00  0.00    +0.000 A 
ATOM     18  C   UNL     1      -6.080   4.622 120.681  0.00  0.00    +0.000 A 
ATOM     19  O   UNL     1      -5.575   4.339 121.957  0.00  0.00    +0.000 OA
ATOM     20  C   UNL     1      -6.273   3.525 122.825  0.00  0.00    +0.000 A 
ATOM     21  O   UNL     1      -5.805   3.204 123.916  0.00  0.00    +0.000 OA
ATOM     22  C   UNL     1      -5.284   5.422 119.868  0.00  0.00    +0.000 A 
ATOM     23  C   UNL     1      -5.693   5.681 118.564  0.00  0.00    +0.000 A 
ATOM     24  C   UNL     1      -6.892   5.144 118.092  0.00  0.00    +0.000 A 
ATOM     25  C   UNL     1      -7.694   4.366 118.932  0.00  0.00    +0.000 A 
BRANCH  16  26
ATOM     26  O   UNL     1      -9.351   2.972 120.710  0.00  0.00    +0.000 OA
ATOM     27  H   UNL     1      -9.564   2.055 120.931  0.00  0.00    +0.000 HD
ENDBRANCH  16  26
ENDBRANCH   1  15
TORSDOF 4
ENDMDL
MODEL 2
REMARK VINA RESULT:      -9.2      0.081      7.483
REMARK  Name = Dicoumarol
REMARK  4 active torsions:
REMARK  status: ('A' for Active; 'I' for Inactive)
REMARK    1  A    between atoms: O_1  and  C_2
REMARK    2  A    between atoms: C_3  and  C_4
REMARK    3  A    between atoms: C_4  and  C_5
REMARK    4  A    between atoms: C_6  and  O_7
REMARK                            x       y       z     vdW  Elec       q    Type
REMARK                         _______ _______ _______ _____ _____    ______ ____
ROOT
ATOM      1  C   UNL     1      -8.596   2.412 123.438  0.00  0.00    +0.000 C 
ENDROOT
BRANCH   1   3
ATOM      2  C   UNL     1      -8.151   3.353 121.171  0.00  0.00    +0.000 A 
ATOM      3  C   UNL     1      -7.712   3.108 122.423  0.00  0.00    +0.000 A 
ATOM      4  C   UNL     1      -6.317   3.508 122.790  0.00  0.00    +0.000 A 
ATOM      5  O   UNL     1      -5.739   3.094 123.794  0.00  0.00    +0.000 OA
ATOM      6  O   UNL     1      -5.644   4.366 121.958  0.00  0.00    +0.000 OA
ATOM      7  C   UNL     1      -6.115   4.614 120.674  0.00  0.00    +0.000 A 
ATOM      8  C   UNL     1      -7.326   4.103 120.226  0.00  0.00    +0.000 A 
ATOM      9  C   UNL     1      -7.695   4.382 118.906  0.00  0.00    +0.000 A 
ATOM     10  C   UNL     1      -6.863   5.161 118.090  0.00  0.00    +0.000 A 
ATOM     11  C   UNL     1      -5.660   5.672 118.581  0.00  0.00    +0.000 A 
ATOM     12  C   UNL     1      -5.279   5.390 119.882  0.00  0.00    +0.000 A 
BRANCH   2  13
ATOM     13  O   UNL     1      -9.383   2.960 120.683  0.00  0.00    +0.000 OA
ATOM     14  H   UNL     1     -10.050   2.931 121.387  0.00  0.00    +0.000 HD
ENDBRANCH   2  13
ENDBRANCH   1   3
BRANCH   1  15
ATOM     15  C   UNL     1      -8.561   0.911 123.468  0.00  0.00    +0.000 A 
ATOM     16  C   UNL     1      -7.629   0.174 124.097  0.00  0.00    +0.000 A 
ATOM     17  C   UNL     1      -7.797  -1.272 124.201  0.00  0.00    +0.000 A 
ATOM     18  C   UNL     1      -8.958  -1.850 123.699  0.00  0.00    +0.000 A 
ATOM     19  O   UNL     1      -9.910  -1.096 123.000  0.00  0.00    +0.000 OA
ATOM     20  C   UNL     1      -9.720   0.255 122.788  0.00  0.00    +0.000 A 
ATOM     21  O   UNL     1     -10.508   0.911 122.109  0.00  0.00    +0.000 OA
ATOM     22  C   UNL     1      -9.223  -3.209 123.827  0.00  0.00    +0.000 A 
ATOM     23  C   UNL     1      -8.284  -4.027 124.447  0.00  0.00    +0.000 A 
ATOM     24  C   UNL     1      -7.097  -3.477 124.933  0.00  0.00    +0.000 A 
ATOM     25  C   UNL     1      -6.859  -2.104 124.821  0.00  0.00    +0.000 A 
BRANCH  16  26
ATOM     26  O   UNL     1      -6.516   0.676 124.739  0.00  0.00    +0.000 OA
ATOM     27  H   UNL     1      -5.792   0.034 124.753  0.00  0.00    +0.000 HD
ENDBRANCH  16  26
ENDBRANCH   1  15
TORSDOF 4
ENDMDL
MODEL 3
REMARK VINA RESULT:      -8.6      1.844      7.743
REMARK  Name = Dicoumarol
REMARK  4 active torsions:
REMARK  status: ('A' for Active; 'I' for Inactive)
REMARK    1  A    between atoms: O_1  and  C_2
REMARK    2  A    between atoms: C_3  and  C_4
REMARK    3  A    between atoms: C_4  and  C_5
REMARK    4  A    between atoms: C_6  and  O_7
REMARK                            x       y       z     vdW  Elec       q    Type
REMARK                         _______ _______ _______ _____ _____    ______ ____
ROOT
ATOM      1  C   UNL     1      -8.918   2.191 124.741  0.00  0.00    +0.000 C 
ENDROOT
BRANCH   1   3
ATOM      2  C   UNL     1      -8.062   2.992 122.539  0.00  0.00    +0.000 A 
ATOM      3  C   UNL     1      -7.830   2.752 123.847  0.00  0.00    +0.000 A 
ATOM      4  C   UNL     1      -6.466   3.019 124.400  0.00  0.00    +0.000 A 
ATOM      5  O   UNL     1      -6.081   2.586 125.485  0.00  0.00    +0.000 OA
ATOM      6  O   UNL     1      -5.594   3.770 123.653  0.00  0.00    +0.000 OA
ATOM      7  C   UNL     1      -5.852   4.015 122.310  0.00  0.00    +0.000 A 
ATOM      8  C   UNL     1      -7.036   3.616 121.704  0.00  0.00    +0.000 A 
ATOM      9  C   UNL     1      -7.185   3.881 120.340  0.00  0.00    +0.000 A 
ATOM     10  C   UNL     1      -6.168   4.538 119.633  0.00  0.00    +0.000 A 
ATOM     11  C   UNL     1      -4.998   4.939 120.279  0.00  0.00    +0.000 A 
ATOM     12  C   UNL     1      -4.834   4.670 121.627  0.00  0.00    +0.000 A 
BRANCH   2  13
ATOM     13  O   UNL     1      -9.249   2.711 121.890  0.00  0.00    +0.000 OA
ATOM     14  H   UNL     1      -9.768   3.516 121.737  0.00  0.00    +0.000 HD
ENDBRANCH   2  13
ENDBRANCH   1   3
BRANCH   1  15
ATOM     15  C   UNL     1      -8.786   0.758 125.169  0.00  0.00    +0.000 A 
ATOM     16  C   UNL     1      -8.256   0.347 126.334  0.00  0.00    +0.000 A 
ATOM     17  C   UNL     1      -8.340  -1.060 126.714  0.00  0.00    +0.000 A 
ATOM     18  C   UNL     1      -9.028  -1.938 125.883  0.00  0.00    +0.000 A 
ATOM     19  O   UNL     1      -9.541  -1.528 124.645  0.00  0.00    +0.000 OA
ATOM     20  C   UNL     1      -9.375  -0.228 124.211  0.00  0.00    +0.000 A 
ATOM     21  O   UNL     1      -9.750   0.125 123.094  0.00  0.00    +0.000 OA
ATOM     22  C   UNL     1      -9.215  -3.277 126.213  0.00  0.00    +0.000 A 
ATOM     23  C   UNL     1      -8.667  -3.765 127.395  0.00  0.00    +0.000 A 
ATOM     24  C   UNL     1      -7.946  -2.912 128.231  0.00  0.00    +0.000 A 
ATOM     25  C   UNL     1      -7.793  -1.563 127.899  0.00  0.00    +0.000 A 
BRANCH  16  26
ATOM     26  O   UNL     1      -7.674   1.167 127.279  0.00  0.00    +0.000 OA
ATOM     27  H   UNL     1      -8.230   1.258 128.064  0.00  0.00    +0.000 HD
ENDBRANCH  16  26
ENDBRANCH   1  15
TORSDOF 4
ENDMDL
MODEL 4
REMARK VINA RESULT:      -8.6      0.746      2.028
REMARK  Name = Dicoumarol
REMARK  4 active torsions:
REMARK  status: ('A' for Active; 'I' for Inactive)
REMARK    1  A    between atoms: O_1  and  C_2
REMARK    2  A    between atoms: C_3  and  C_4
REMARK    3  A    between atoms: C_4  and  C_5
REMARK    4  A    between atoms: C_6  and  O_7
REMARK                            x       y       z     vdW  Elec       q    Type
REMARK                         _______ _______ _______ _____ _____    ______ ____
ROOT
ATOM      1  C   UNL     1      -8.290   2.725 124.012  0.00  0.00    +0.000 C 
ENDROOT
BRANCH   1   3
ATOM      2  C   UNL     1      -8.916   0.335 123.663  0.00  0.00    +0.000 A 
ATOM      3  C   UNL     1      -8.179   1.247 124.331  0.00  0.00    +0.000 A 
ATOM      4  C   UNL     1      -7.266   0.781 125.421  0.00  0.00    +0.000 A 
ATOM      5  O   UNL     1      -6.769   1.536 126.255  0.00  0.00    +0.000 OA
ATOM      6  O   UNL     1      -6.981  -0.558 125.505  0.00  0.00    +0.000 OA
ATOM      7  C   UNL     1      -7.745  -1.484 124.804  0.00  0.00    +0.000 A 
ATOM      8  C   UNL     1      -8.738  -1.094 123.914  0.00  0.00    +0.000 A 
ATOM      9  C   UNL     1      -9.472  -2.102 123.284  0.00  0.00    +0.000 A 
ATOM     10  C   UNL     1      -9.190  -3.451 123.546  0.00  0.00    +0.000 A 
ATOM     11  C   UNL     1      -8.173  -3.805 124.433  0.00  0.00    +0.000 A 
ATOM     12  C   UNL     1      -7.448  -2.814 125.074  0.00  0.00    +0.000 A 
BRANCH   2  13
ATOM     13  O   UNL     1      -9.854   0.643 122.696  0.00  0.00    +0.000 OA
ATOM     14  H   UNL     1     -10.623   1.094 123.079  0.00  0.00    +0.000 HD
ENDBRANCH   2  13
ENDBRANCH   1   3
BRANCH   1  15
ATOM     15  C   UNL     1      -7.539   3.229 122.814  0.00  0.00    +0.000 A 
ATOM     16  C   UNL     1      -8.052   3.352 121.577  0.00  0.00    +0.000 A 
ATOM     17  C   UNL     1      -7.278   4.016 120.533  0.00  0.00    +0.000 A 
ATOM     18  C   UNL     1      -6.043   4.565 120.861  0.00  0.00    +0.000 A 
ATOM     19  O   UNL     1      -5.481   4.399 122.134  0.00  0.00    +0.000 OA
ATOM     20  C   UNL     1      -6.142   3.677 123.106  0.00  0.00    +0.000 A 
ATOM     21  O   UNL     1      -5.625   3.456 124.200  0.00  0.00    +0.000 OA
ATOM     22  C   UNL     1      -5.281   5.277 119.940  0.00  0.00    +0.000 A 
ATOM     23  C   UNL     1      -5.750   5.416 118.637  0.00  0.00    +0.000 A 
ATOM     24  C   UNL     1      -6.972   4.848 118.274  0.00  0.00    +0.000 A 
ATOM     25  C   UNL     1      -7.738   4.161 119.220  0.00  0.00    +0.000 A 
BRANCH  16  26
ATOM     26  O   UNL     1      -9.318   2.957 121.196  0.00  0.00    +0.000 OA
ATOM     27  H   UNL     1      -9.565   3.327 120.338  0.00  0.00    +0.000 HD
ENDBRANCH  16  26
ENDBRANCH   1  15
TORSDOF 4
ENDMDL
MODEL 5
REMARK VINA RESULT:      -8.5      1.891      2.116
REMARK  Name = Dicoumarol
REMARK  4 active torsions:
REMARK  status: ('A' for Active; 'I' for Inactive)
REMARK    1  A    between atoms: O_1  and  C_2
REMARK    2  A    between atoms: C_3  and  C_4
REMARK    3  A    between atoms: C_4  and  C_5
REMARK    4  A    between atoms: C_6  and  O_7
REMARK                            x       y       z     vdW  Elec       q    Type
REMARK                         _______ _______ _______ _____ _____    ______ ____
ROOT
ATOM      1  C   UNL     1      -8.626   2.427 125.062  0.00  0.00    +0.000 C 
ENDROOT
BRANCH   1   3
ATOM      2  C   UNL     1      -8.081   0.425 126.446  0.00  0.00    +0.000 A 
ATOM      3  C   UNL     1      -8.691   0.942 125.360  0.00  0.00    +0.000 A 
ATOM      4  C   UNL     1      -9.413   0.020 124.428  0.00  0.00    +0.000 A 
ATOM      5  O   UNL     1      -9.759   0.343 123.293  0.00  0.00    +0.000 OA
ATOM      6  O   UNL     1      -9.687  -1.255 124.854  0.00  0.00    +0.000 OA
ATOM      7  C   UNL     1      -9.056  -1.770 125.980  0.00  0.00    +0.000 A 
ATOM      8  C   UNL     1      -8.223  -0.993 126.775  0.00  0.00    +0.000 A 
ATOM      9  C   UNL     1      -7.610  -1.614 127.867  0.00  0.00    +0.000 A 
ATOM     10  C   UNL     1      -7.853  -2.968 128.137  0.00  0.00    +0.000 A 
ATOM     11  C   UNL     1      -8.709  -3.713 127.326  0.00  0.00    +0.000 A 
ATOM     12  C   UNL     1      -9.311  -3.111 126.234  0.00  0.00    +0.000 A 
BRANCH   2  13
ATOM     13  O   UNL     1      -7.316   1.154 127.336  0.00  0.00    +0.000 OA
ATOM     14  H   UNL     1      -7.487   0.887 128.253  0.00  0.00    +0.000 HD
ENDBRANCH   2  13
ENDBRANCH   1   3
BRANCH   1  15
ATOM     15  C   UNL     1      -7.633   2.879 124.031  0.00  0.00    +0.000 A 
ATOM     16  C   UNL     1      -7.901   3.048 122.724  0.00  0.00    +0.000 A 
ATOM     17  C   UNL     1      -6.902   3.657 121.852  0.00  0.00    +0.000 A 
ATOM     18  C   UNL     1      -5.711   4.110 122.410  0.00  0.00    +0.000 A 
ATOM     19  O   UNL     1      -5.405   3.895 123.760  0.00  0.00    +0.000 OA
ATOM     20  C   UNL     1      -6.285   3.220 124.582  0.00  0.00    +0.000 A 
ATOM     21  O   UNL     1      -5.994   2.954 125.747  0.00  0.00    +0.000 OA
ATOM     22  C   UNL     1      -4.744   4.768 121.657  0.00  0.00    +0.000 A 
ATOM     23  C   UNL     1      -4.954   4.949 120.294  0.00  0.00    +0.000 A 
ATOM     24  C   UNL     1      -6.127   4.477 119.703  0.00  0.00    +0.000 A 
ATOM     25  C   UNL     1      -7.102   3.845 120.480  0.00  0.00    +0.000 A 
BRANCH  16  26
ATOM     26  O   UNL     1      -9.101   2.752 122.111  0.00  0.00    +0.000 OA
ATOM     27  H   UNL     1      -9.773   2.486 122.753  0.00  0.00    +0.000 HD
ENDBRANCH  16  26
ENDBRANCH   1  15
TORSDOF 4
ENDMDL
MODEL 6
REMARK VINA RESULT:      -8.4      9.022     11.940
REMARK  Name = Dicoumarol
REMARK  4 active torsions:
REMARK  status: ('A' for Active; 'I' for Inactive)
REMARK    1  A    between atoms: O_1  and  C_2
REMARK    2  A    between atoms: C_3  and  C_4
REMARK    3  A    between atoms: C_4  and  C_5
REMARK    4  A    between atoms: C_6  and  O_7
REMARK                            x       y       z     vdW  Elec       q    Type
REMARK                         _______ _______ _______ _____ _____    ______ ____
ROOT
ATOM      1  C   UNL     1      -9.233   5.882 133.090  0.00  0.00    +0.000 C 
ENDROOT
BRANCH   1   3
ATOM      2  C   UNL     1     -10.957   6.489 131.392  0.00  0.00    +0.000 A 
ATOM      3  C   UNL     1      -9.656   6.433 131.742  0.00  0.00    +0.000 A 
ATOM      4  C   UNL     1      -8.623   6.897 130.763  0.00  0.00    +0.000 A 
ATOM      5  O   UNL     1      -7.426   6.638 130.872  0.00  0.00    +0.000 OA
ATOM      6  O   UNL     1      -9.035   7.633 129.681  0.00  0.00    +0.000 OA
ATOM      7  C   UNL     1     -10.380   7.687 129.339  0.00  0.00    +0.000 A 
ATOM      8  C   UNL     1     -11.363   7.104 130.129  0.00  0.00    +0.000 A 
ATOM      9  C   UNL     1     -12.684   7.185 129.681  0.00  0.00    +0.000 A 
ATOM     10  C   UNL     1     -12.983   7.846 128.481  0.00  0.00    +0.000 A 
ATOM     11  C   UNL     1     -11.972   8.435 127.722  0.00  0.00    +0.000 A 
ATOM     12  C   UNL     1     -10.658   8.349 128.150  0.00  0.00    +0.000 A 
BRANCH   2  13
ATOM     13  O   UNL     1     -11.998   6.017 132.169  0.00  0.00    +0.000 OA
ATOM     14  H   UNL     1     -12.080   6.519 132.995  0.00  0.00    +0.000 HD
ENDBRANCH   2  13
ENDBRANCH   1   3
BRANCH   1  15
ATOM     15  C   UNL     1      -8.792   4.447 133.139  0.00  0.00    +0.000 A 
ATOM     16  C   UNL     1      -9.379   3.437 132.473  0.00  0.00    +0.000 A 
ATOM     17  C   UNL     1      -8.757   2.117 132.462  0.00  0.00    +0.000 A 
ATOM     18  C   UNL     1      -7.529   1.950 133.094  0.00  0.00    +0.000 A 
ATOM     19  O   UNL     1      -6.935   2.984 133.830  0.00  0.00    +0.000 OA
ATOM     20  C   UNL     1      -7.559   4.209 133.951  0.00  0.00    +0.000 A 
ATOM     21  O   UNL     1      -7.089   5.098 134.659  0.00  0.00    +0.000 OA
ATOM     22  C   UNL     1      -6.839   0.742 133.064  0.00  0.00    +0.000 A 
ATOM     23  C   UNL     1      -7.408  -0.346 132.410  0.00  0.00    +0.000 A 
ATOM     24  C   UNL     1      -8.654  -0.213 131.794  0.00  0.00    +0.000 A 
ATOM     25  C   UNL     1      -9.320   1.015 131.810  0.00  0.00    +0.000 A 
BRANCH  16  26
ATOM     26  O   UNL     1     -10.524   3.543 131.711  0.00  0.00    +0.000 OA
ATOM     27  H   UNL     1     -11.187   4.103 132.138  0.00  0.00    +0.000 HD
ENDBRANCH  16  26
ENDBRANCH   1  15
TORSDOF 4
ENDMDL
MODEL 7
REMARK VINA RESULT:      -8.3      1.376      6.918
REMARK  Name = Dicoumarol
REMARK  4 active torsions:
REMARK  status: ('A' for Active; 'I' for Inactive)
REMARK    1  A    between atoms: O_1  and  C_2
REMARK    2  A    between atoms: C_3  and  C_4
REMARK    3  A    between atoms: C_4  and  C_5
REMARK    4  A    between atoms: C_6  and  O_7
REMARK                            x       y       z     vdW  Elec       q    Type
REMARK                         _______ _______ _______ _____ _____    ______ ____
ROOT
ATOM      1  C   UNL     1      -7.634   2.244 125.060  0.00  0.00    +0.000 C 
ENDROOT
BRANCH   1   3
ATOM      2  C   UNL     1      -6.206   3.581 123.512  0.00  0.00    +0.000 A 
ATOM      3  C   UNL     1      -7.356   2.909 123.726  0.00  0.00    +0.000 A 
ATOM      4  C   UNL     1      -8.376   2.853 122.632  0.00  0.00    +0.000 A 
ATOM      5  O   UNL     1      -9.543   2.511 122.815  0.00  0.00    +0.000 OA
ATOM      6  O   UNL     1      -7.995   3.219 121.367  0.00  0.00    +0.000 OA
ATOM      7  C   UNL     1      -6.803   3.904 121.162  0.00  0.00    +0.000 A 
ATOM      8  C   UNL     1      -5.906   4.143 122.195  0.00  0.00    +0.000 A 
ATOM      9  C   UNL     1      -4.751   4.870 121.893  0.00  0.00    +0.000 A 
ATOM     10  C   UNL     1      -4.522   5.319 120.585  0.00  0.00    +0.000 A 
ATOM     11  C   UNL     1      -5.438   5.046 119.568  0.00  0.00    +0.000 A 
ATOM     12  C   UNL     1      -6.592   4.339 119.860  0.00  0.00    +0.000 A 
BRANCH   2  13
ATOM     13  O   UNL     1      -5.223   3.776 124.464  0.00  0.00    +0.000 OA
ATOM     14  H   UNL     1      -5.599   4.094 125.300  0.00  0.00    +0.000 HD
ENDBRANCH   2  13
ENDBRANCH   1   3
BRANCH   1  15
ATOM     15  C   UNL     1      -7.455   0.755 125.137  0.00  0.00    +0.000 A 
ATOM     16  C   UNL     1      -8.407  -0.151 124.856  0.00  0.00    +0.000 A 
ATOM     17  C   UNL     1      -8.066  -1.569 124.798  0.00  0.00    +0.000 A 
ATOM     18  C   UNL     1      -6.738  -1.946 124.975  0.00  0.00    +0.000 A 
ATOM     19  O   UNL     1      -5.750  -1.013 125.315  0.00  0.00    +0.000 OA
ATOM     20  C   UNL     1      -6.068   0.318 125.488  0.00  0.00    +0.000 A 
ATOM     21  O   UNL     1      -5.227   1.133 125.864  0.00  0.00    +0.000 OA
ATOM     22  C   UNL     1      -6.323  -3.269 124.861  0.00  0.00    +0.000 A 
ATOM     23  C   UNL     1      -7.269  -4.255 124.596  0.00  0.00    +0.000 A 
ATOM     24  C   UNL     1      -8.612  -3.907 124.445  0.00  0.00    +0.000 A 
ATOM     25  C   UNL     1      -9.007  -2.569 124.534  0.00  0.00    +0.000 A 
BRANCH  16  26
ATOM     26  O   UNL     1      -9.718   0.141 124.537  0.00  0.00    +0.000 OA
ATOM     27  H   UNL     1     -10.173   0.582 125.268  0.00  0.00    +0.000 HD
ENDBRANCH  16  26
ENDBRANCH   1  15
TORSDOF 4
ENDMDL
MODEL 8
REMARK VINA RESULT:      -8.2      1.409      3.147
REMARK  Name = Dicoumarol
REMARK  4 active torsions:
REMARK  status: ('A' for Active; 'I' for Inactive)
REMARK    1  A    between atoms: O_1  and  C_2
REMARK    2  A    between atoms: C_3  and  C_4
REMARK    3  A    between atoms: C_4  and  C_5
REMARK    4  A    between atoms: C_6  and  O_7
REMARK                            x       y       z     vdW  Elec       q    Type
REMARK                         _______ _______ _______ _____ _____    ______ ____
ROOT
ATOM      1  C   UNL     1      -7.665   2.138 125.085  0.00  0.00    +0.000 C 
ENDROOT
BRANCH   1   3
ATOM      2  C   UNL     1      -8.253  -0.276 124.867  0.00  0.00    +0.000 A 
ATOM      3  C   UNL     1      -7.318   0.663 125.116  0.00  0.00    +0.000 A 
ATOM      4  C   UNL     1      -5.927   0.226 125.458  0.00  0.00    +0.000 A 
ATOM      5  O   UNL     1      -5.089   0.973 125.959  0.00  0.00    +0.000 OA
ATOM      6  O   UNL     1      -5.576  -1.077 125.215  0.00  0.00    +0.000 OA
ATOM      7  C   UNL     1      -6.551  -2.031 124.951  0.00  0.00    +0.000 A 
ATOM      8  C   UNL     1      -7.891  -1.692 124.810  0.00  0.00    +0.000 A 
ATOM      9  C   UNL     1      -8.799  -2.729 124.579  0.00  0.00    +0.000 A 
ATOM     10  C   UNL     1      -8.348  -4.053 124.483  0.00  0.00    +0.000 A 
ATOM     11  C   UNL     1      -6.992  -4.355 124.613  0.00  0.00    +0.000 A 
ATOM     12  C   UNL     1      -6.086  -3.336 124.856  0.00  0.00    +0.000 A 
BRANCH   2  13
ATOM     13  O   UNL     1      -9.587  -0.007 124.622  0.00  0.00    +0.000 OA
ATOM     14  H   UNL     1     -10.162  -0.465 125.254  0.00  0.00    +0.000 HD
ENDBRANCH   2  13
ENDBRANCH   1   3
BRANCH   1  15
ATOM     15  C   UNL     1      -7.346   2.894 123.827  0.00  0.00    +0.000 A 
ATOM     16  C   UNL     1      -6.187   3.530 123.584  0.00  0.00    +0.000 A 
ATOM     17  C   UNL     1      -5.926   4.082 122.258  0.00  0.00    +0.000 A 
ATOM     18  C   UNL     1      -6.866   3.880 121.252  0.00  0.00    +0.000 A 
ATOM     19  O   UNL     1      -8.096   3.261 121.510  0.00  0.00    +0.000 OA
ATOM     20  C   UNL     1      -8.414   2.831 122.782  0.00  0.00    +0.000 A 
ATOM     21  O   UNL     1      -9.520   2.358 123.039  0.00  0.00    +0.000 OA
ATOM     22  C   UNL     1      -6.655   4.311 119.946  0.00  0.00    +0.000 A 
ATOM     23  C   UNL     1      -5.485   4.998 119.640  0.00  0.00    +0.000 A 
ATOM     24  C   UNL     1      -4.540   5.240 120.638  0.00  0.00    +0.000 A 
ATOM     25  C   UNL     1      -4.754   4.775 121.938  0.00  0.00    +0.000 A 
BRANCH  16  26
ATOM     26  O   UNL     1      -5.146   3.662 124.480  0.00  0.00    +0.000 OA
ATOM     27  H   UNL     1      -4.332   3.262 124.144  0.00  0.00    +0.000 HD
ENDBRANCH  16  26
ENDBRANCH   1  15
TORSDOF 4
ENDMDL
MODEL 9
REMARK VINA RESULT:      -8.1      9.227     10.252
REMARK  Name = Dicoumarol
REMARK  4 active torsions:
REMARK  status: ('A' for Active; 'I' for Inactive)
REMARK    1  A    between atoms: O_1  and  C_2
REMARK    2  A    between atoms: C_3  and  C_4
REMARK    3  A    between atoms: C_4  and  C_5
REMARK    4  A    between atoms: C_6  and  O_7
REMARK                            x       y       z     vdW  Elec       q    Type
REMARK                         _______ _______ _______ _____ _____    ______ ____
ROOT
ATOM      1  C   UNL     1      -8.739   5.934 132.799  0.00  0.00    +0.000 C 
ENDROOT
BRANCH   1   3
ATOM      2  C   UNL     1      -8.769   3.455 132.518  0.00  0.00    +0.000 A 
ATOM      3  C   UNL     1      -8.054   4.585 132.699  0.00  0.00    +0.000 A 
ATOM      4  C   UNL     1      -6.567   4.487 132.830  0.00  0.00    +0.000 A 
ATOM      5  O   UNL     1      -5.866   5.401 133.262  0.00  0.00    +0.000 OA
ATOM      6  O   UNL     1      -5.956   3.313 132.468  0.00  0.00    +0.000 OA
ATOM      7  C   UNL     1      -6.707   2.160 132.278  0.00  0.00    +0.000 A 
ATOM      8  C   UNL     1      -8.095   2.170 132.333  0.00  0.00    +0.000 A 
ATOM      9  C   UNL     1      -8.757   0.952 132.161  0.00  0.00    +0.000 A 
ATOM     10  C   UNL     1      -8.026  -0.223 131.931  0.00  0.00    +0.000 A 
ATOM     11  C   UNL     1      -6.633  -0.192 131.865  0.00  0.00    +0.000 A 
ATOM     12  C   UNL     1      -5.966   1.008 132.048  0.00  0.00    +0.000 A 
BRANCH   2  13
ATOM     13  O   UNL     1     -10.148   3.401 132.465  0.00  0.00    +0.000 OA
ATOM     14  H   UNL     1     -10.551   3.885 133.203  0.00  0.00    +0.000 HD
ENDBRANCH   2  13
ENDBRANCH   1   3
BRANCH   1  15
ATOM     15  C   UNL     1      -9.441   6.442 131.572  0.00  0.00    +0.000 A 
ATOM     16  C   UNL     1     -10.771   6.406 131.375  0.00  0.00    +0.000 A 
ATOM     17  C   UNL     1     -11.351   7.086 130.222  0.00  0.00    +0.000 A 
ATOM     18  C   UNL     1     -10.515   7.815 129.383  0.00  0.00    +0.000 A 
ATOM     19  O   UNL     1      -9.124   7.817 129.554  0.00  0.00    +0.000 OA
ATOM     20  C   UNL     1      -8.540   7.089 130.570  0.00  0.00    +0.000 A 
ATOM     21  O   UNL     1      -7.317   7.018 130.683  0.00  0.00    +0.000 OA
ATOM     22  C   UNL     1     -11.003   8.550 128.307  0.00  0.00    +0.000 A 
ATOM     23  C   UNL     1     -12.368   8.531 128.038  0.00  0.00    +0.000 A 
ATOM     24  C   UNL     1     -13.225   7.784 128.847  0.00  0.00    +0.000 A 
ATOM     25  C   UNL     1     -12.721   7.074 129.940  0.00  0.00    +0.000 A 
BRANCH  16  26
ATOM     26  O   UNL     1     -11.688   5.822 132.225  0.00  0.00    +0.000 OA
ATOM     27  H   UNL     1     -12.510   5.601 131.766  0.00  0.00    +0.000 HD
ENDBRANCH  16  26
ENDBRANCH   1  15
TORSDOF 4
ENDMDL
