MODEL 1
REMARK VINA RESULT:      -6.4      0.000      0.000
REMARK  Name = Didanosine
REMARK  3 active torsions:
REMARK  status: ('A' for Active; 'I' for Inactive)
REMARK    1  A    between atoms: O_1  and  C_2
REMARK    2  A    between atoms: C_2  and  C_3
REMARK    3  A    between atoms: C_6  and  N_8
REMARK                            x       y       z     vdW  Elec       q    Type
REMARK                         _______ _______ _______ _____ _____    ______ ____
ROOT
ATOM      1  N   UNL     1     -11.522   6.324 130.499  0.00  0.00    +0.000 N 
ATOM      2  C   UNL     1     -11.716   6.633 131.831  0.00  0.00    +0.000 A 
ATOM      3  N   UNL     1     -10.612   6.512 132.544  0.00  0.00    +0.000 NA
ATOM      4  C   UNL     1      -9.670   6.040 131.658  0.00  0.00    +0.000 A 
ATOM      5  C   UNL     1     -10.250   5.855 130.431  0.00  0.00    +0.000 A 
ATOM      6  N   UNL     1      -9.568   5.348 129.397  0.00  0.00    +0.000 N 
ATOM      7  C   UNL     1      -8.214   5.201 129.580  0.00  0.00    +0.000 A 
ATOM      8  N   UNL     1      -7.549   5.360 130.681  0.00  0.00    +0.000 NA
ATOM      9  C   UNL     1      -8.243   5.732 131.839  0.00  0.00    +0.000 A 
ATOM     10  O   UNL     1      -7.686   5.821 132.931  0.00  0.00    +0.000 OA
ATOM     11  H   UNL     1      -9.895   5.526 128.441  0.00  0.00    +0.000 HD
ENDROOT
BRANCH   1  15
ATOM     12  C   UNL     1     -11.906   7.470 127.412  0.00  0.00    +0.000 C 
ATOM     13  C   UNL     1     -12.210   8.587 128.395  0.00  0.00    +0.000 C 
ATOM     14  C   UNL     1     -13.101   7.912 129.407  0.00  0.00    +0.000 C 
ATOM     15  C   UNL     1     -12.537   6.496 129.462  0.00  0.00    +0.000 C 
ATOM     16  O   UNL     1     -11.985   6.230 128.149  0.00  0.00    +0.000 OA
BRANCH  12  17
ATOM     17  C   UNL     1     -10.550   7.648 126.707  0.00  0.00    +0.000 C 
BRANCH  17  18
ATOM     18  O   UNL     1      -9.899   6.404 126.514  0.00  0.00    +0.000 OA
ATOM     19  H   UNL     1      -9.918   5.902 127.346  0.00  0.00    +0.000 HD
ENDBRANCH  17  18
ENDBRANCH  12  17
ENDBRANCH   1  15
TORSDOF 3
ENDMDL
MODEL 2
REMARK VINA RESULT:      -6.3      1.479      2.166
REMARK  Name = Didanosine
REMARK  3 active torsions:
REMARK  status: ('A' for Active; 'I' for Inactive)
REMARK    1  A    between atoms: O_1  and  C_2
REMARK    2  A    between atoms: C_2  and  C_3
REMARK    3  A    between atoms: C_6  and  N_8
REMARK                            x       y       z     vdW  Elec       q    Type
REMARK                         _______ _______ _______ _____ _____    ______ ____
ROOT
ATOM      1  N   UNL     1     -10.499   6.425 130.821  0.00  0.00    +0.000 N 
ATOM      2  C   UNL     1      -9.660   7.230 130.076  0.00  0.00    +0.000 A 
ATOM      3  N   UNL     1      -8.409   7.181 130.495  0.00  0.00    +0.000 NA
ATOM      4  C   UNL     1      -8.440   6.363 131.601  0.00  0.00    +0.000 A 
ATOM      5  C   UNL     1      -9.728   5.965 131.840  0.00  0.00    +0.000 A 
ATOM      6  N   UNL     1     -10.050   5.205 132.894  0.00  0.00    +0.000 N 
ATOM      7  C   UNL     1      -8.996   4.692 133.612  0.00  0.00    +0.000 A 
ATOM      8  N   UNL     1      -7.739   4.976 133.472  0.00  0.00    +0.000 NA
ATOM      9  C   UNL     1      -7.362   5.897 132.488  0.00  0.00    +0.000 A 
ATOM     10  O   UNL     1      -6.198   6.270 132.357  0.00  0.00    +0.000 OA
ATOM     11  H   UNL     1     -10.915   4.655 132.874  0.00  0.00    +0.000 HD
ENDROOT
BRANCH   1  15
ATOM     12  C   UNL     1     -12.774   7.081 128.500  0.00  0.00    +0.000 C 
ATOM     13  C   UNL     1     -12.831   8.159 129.568  0.00  0.00    +0.000 C 
ATOM     14  C   UNL     1     -12.805   7.367 130.849  0.00  0.00    +0.000 C 
ATOM     15  C   UNL     1     -11.904   6.187 130.500  0.00  0.00    +0.000 C 
ATOM     16  O   UNL     1     -12.078   5.955 129.080  0.00  0.00    +0.000 OA
BRANCH  12  17
ATOM     17  C   UNL     1     -12.119   7.567 127.195  0.00  0.00    +0.000 C 
BRANCH  17  18
ATOM     18  O   UNL     1     -11.946   6.503 126.275  0.00  0.00    +0.000 OA
ATOM     19  H   UNL     1     -12.718   5.914 126.318  0.00  0.00    +0.000 HD
ENDBRANCH  17  18
ENDBRANCH  12  17
ENDBRANCH   1  15
TORSDOF 3
ENDMDL
MODEL 3
REMARK VINA RESULT:      -5.7      2.392      5.623
REMARK  Name = Didanosine
REMARK  3 active torsions:
REMARK  status: ('A' for Active; 'I' for Inactive)
REMARK    1  A    between atoms: O_1  and  C_2
REMARK    2  A    between atoms: C_2  and  C_3
REMARK    3  A    between atoms: C_6  and  N_8
REMARK                            x       y       z     vdW  Elec       q    Type
REMARK                         _______ _______ _______ _____ _____    ______ ____
ROOT
ATOM      1  N   UNL     1      -9.311   3.786 129.995  0.00  0.00    +0.000 N 
ATOM      2  C   UNL     1      -8.508   4.106 128.919  0.00  0.00    +0.000 A 
ATOM      3  N   UNL     1      -8.692   5.345 128.501  0.00  0.00    +0.000 NA
ATOM      4  C   UNL     1      -9.706   5.836 129.294  0.00  0.00    +0.000 A 
ATOM      5  C   UNL     1     -10.131   4.857 130.151  0.00  0.00    +0.000 A 
ATOM      6  N   UNL     1     -11.149   5.051 130.997  0.00  0.00    +0.000 N 
ATOM      7  C   UNL     1     -11.618   6.340 131.091  0.00  0.00    +0.000 A 
ATOM      8  N   UNL     1     -11.286   7.351 130.351  0.00  0.00    +0.000 NA
ATOM      9  C   UNL     1     -10.340   7.163 129.337  0.00  0.00    +0.000 A 
ATOM     10  O   UNL     1     -10.041   8.059 128.551  0.00  0.00    +0.000 OA
ATOM     11  H   UNL     1     -11.231   4.461 131.832  0.00  0.00    +0.000 HD
ENDROOT
BRANCH   1  15
ATOM     12  C   UNL     1      -8.770   2.612 133.048  0.00  0.00    +0.000 C 
ATOM     13  C   UNL     1      -7.448   2.678 132.302  0.00  0.00    +0.000 C 
ATOM     14  C   UNL     1      -7.786   2.071 130.965  0.00  0.00    +0.000 C 
ATOM     15  C   UNL     1      -9.222   2.530 130.738  0.00  0.00    +0.000 C 
ATOM     16  O   UNL     1      -9.815   2.664 132.053  0.00  0.00    +0.000 OA
BRANCH  12  17
ATOM     17  C   UNL     1      -8.912   3.718 134.108  0.00  0.00    +0.000 C 
BRANCH  17  18
ATOM     18  O   UNL     1      -9.891   4.672 133.734  0.00  0.00    +0.000 OA
ATOM     19  H   UNL     1      -9.605   5.554 134.025  0.00  0.00    +0.000 HD
ENDBRANCH  17  18
ENDBRANCH  12  17
ENDBRANCH   1  15
TORSDOF 3
ENDMDL
MODEL 4
REMARK VINA RESULT:      -5.6      7.291      9.127
REMARK  Name = Didanosine
REMARK  3 active torsions:
REMARK  status: ('A' for Active; 'I' for Inactive)
REMARK    1  A    between atoms: O_1  and  C_2
REMARK    2  A    between atoms: C_2  and  C_3
REMARK    3  A    between atoms: C_6  and  N_8
REMARK                            x       y       z     vdW  Elec       q    Type
REMARK                         _______ _______ _______ _____ _____    ______ ____
ROOT
ATOM      1  N   UNL     1      -7.795  -0.246 126.266  0.00  0.00    +0.000 N 
ATOM      2  C   UNL     1      -8.228   0.444 127.381  0.00  0.00    +0.000 A 
ATOM      3  N   UNL     1      -8.573   1.687 127.104  0.00  0.00    +0.000 NA
ATOM      4  C   UNL     1      -8.293   1.840 125.765  0.00  0.00    +0.000 A 
ATOM      5  C   UNL     1      -7.748   0.682 125.277  0.00  0.00    +0.000 A 
ATOM      6  N   UNL     1      -7.330   0.577 124.010  0.00  0.00    +0.000 N 
ATOM      7  C   UNL     1      -7.649   1.625 123.180  0.00  0.00    +0.000 A 
ATOM      8  N   UNL     1      -8.178   2.760 123.517  0.00  0.00    +0.000 NA
ATOM      9  C   UNL     1      -8.484   2.987 124.863  0.00  0.00    +0.000 A 
ATOM     10  O   UNL     1      -8.911   4.069 125.260  0.00  0.00    +0.000 OA
ATOM     11  H   UNL     1      -7.247  -0.352 123.582  0.00  0.00    +0.000 HD
ENDROOT
BRANCH   1  15
ATOM     12  C   UNL     1      -8.506  -3.053 124.652  0.00  0.00    +0.000 C 
ATOM     13  C   UNL     1      -9.453  -2.908 125.830  0.00  0.00    +0.000 C 
ATOM     14  C   UNL     1      -8.530  -2.524 126.958  0.00  0.00    +0.000 C 
ATOM     15  C   UNL     1      -7.476  -1.673 126.259  0.00  0.00    +0.000 C 
ATOM     16  O   UNL     1      -7.387  -2.176 124.903  0.00  0.00    +0.000 OA
BRANCH  12  17
ATOM     17  C   UNL     1      -9.185  -2.767 123.301  0.00  0.00    +0.000 C 
BRANCH  17  18
ATOM     18  O   UNL     1      -9.664  -1.435 123.233  0.00  0.00    +0.000 OA
ATOM     19  H   UNL     1     -10.303  -1.289 123.951  0.00  0.00    +0.000 HD
ENDBRANCH  17  18
ENDBRANCH  12  17
ENDBRANCH   1  15
TORSDOF 3
ENDMDL
MODEL 5
REMARK VINA RESULT:      -5.4      1.879      3.240
REMARK  Name = Didanosine
REMARK  3 active torsions:
REMARK  status: ('A' for Active; 'I' for Inactive)
REMARK    1  A    between atoms: O_1  and  C_2
REMARK    2  A    between atoms: C_2  and  C_3
REMARK    3  A    between atoms: C_6  and  N_8
REMARK                            x       y       z     vdW  Elec       q    Type
REMARK                         _______ _______ _______ _____ _____    ______ ____
ROOT
ATOM      1  N   UNL     1      -9.985   6.648 128.734  0.00  0.00    +0.000 N 
ATOM      2  C   UNL     1      -9.458   5.816 127.767  0.00  0.00    +0.000 A 
ATOM      3  N   UNL     1      -8.662   4.892 128.273  0.00  0.00    +0.000 NA
ATOM      4  C   UNL     1      -8.613   5.170 129.620  0.00  0.00    +0.000 A 
ATOM      5  C   UNL     1      -9.361   6.287 129.884  0.00  0.00    +0.000 A 
ATOM      6  N   UNL     1      -9.439   6.811 131.113  0.00  0.00    +0.000 N 
ATOM      7  C   UNL     1      -8.886   6.063 132.125  0.00  0.00    +0.000 A 
ATOM      8  N   UNL     1      -8.174   4.986 132.005  0.00  0.00    +0.000 NA
ATOM      9  C   UNL     1      -7.921   4.485 130.723  0.00  0.00    +0.000 A 
ATOM     10  O   UNL     1      -7.189   3.515 130.536  0.00  0.00    +0.000 OA
ATOM     11  H   UNL     1     -10.235   7.412 131.356  0.00  0.00    +0.000 HD
ENDROOT
BRANCH   1  15
ATOM     12  C   UNL     1     -12.779   7.917 129.990  0.00  0.00    +0.000 C 
ATOM     13  C   UNL     1     -13.134   6.810 129.013  0.00  0.00    +0.000 C 
ATOM     14  C   UNL     1     -12.258   7.114 127.825  0.00  0.00    +0.000 C 
ATOM     15  C   UNL     1     -10.994   7.672 128.471  0.00  0.00    +0.000 C 
ATOM     16  O   UNL     1     -11.418   8.308 129.703  0.00  0.00    +0.000 OA
BRANCH  12  17
ATOM     17  C   UNL     1     -12.973   7.502 131.459  0.00  0.00    +0.000 C 
BRANCH  17  18
ATOM     18  O   UNL     1     -12.350   6.259 131.733  0.00  0.00    +0.000 OA
ATOM     19  H   UNL     1     -13.002   5.546 131.625  0.00  0.00    +0.000 HD
ENDBRANCH  17  18
ENDBRANCH  12  17
ENDBRANCH   1  15
TORSDOF 3
ENDMDL
MODEL 6
REMARK VINA RESULT:      -5.3      2.231      5.120
REMARK  Name = Didanosine
REMARK  3 active torsions:
REMARK  status: ('A' for Active; 'I' for Inactive)
REMARK    1  A    between atoms: O_1  and  C_2
REMARK    2  A    between atoms: C_2  and  C_3
REMARK    3  A    between atoms: C_6  and  N_8
REMARK                            x       y       z     vdW  Elec       q    Type
REMARK                         _______ _______ _______ _____ _____    ______ ____
ROOT
ATOM      1  N   UNL     1     -10.602   5.610 130.396  0.00  0.00    +0.000 N 
ATOM      2  C   UNL     1     -11.317   5.952 131.526  0.00  0.00    +0.000 A 
ATOM      3  N   UNL     1     -12.029   7.051 131.361  0.00  0.00    +0.000 NA
ATOM      4  C   UNL     1     -11.716   7.485 130.092  0.00  0.00    +0.000 A 
ATOM      5  C   UNL     1     -10.788   6.645 129.537  0.00  0.00    +0.000 A 
ATOM      6  N   UNL     1     -10.267   6.869 128.325  0.00  0.00    +0.000 N 
ATOM      7  C   UNL     1     -10.850   7.877 127.594  0.00  0.00    +0.000 A 
ATOM      8  N   UNL     1     -11.743   8.724 128.000  0.00  0.00    +0.000 NA
ATOM      9  C   UNL     1     -12.205   8.638 129.318  0.00  0.00    +0.000 A 
ATOM     10  O   UNL     1     -12.991   9.458 129.789  0.00  0.00    +0.000 OA
ATOM     11  H   UNL     1      -9.854   6.090 127.802  0.00  0.00    +0.000 HD
ENDROOT
BRANCH   1  15
ATOM     12  C   UNL     1      -8.591   3.599 132.100  0.00  0.00    +0.000 C 
ATOM     13  C   UNL     1      -7.752   4.624 131.358  0.00  0.00    +0.000 C 
ATOM     14  C   UNL     1      -8.355   4.618 129.977  0.00  0.00    +0.000 C 
ATOM     15  C   UNL     1      -9.834   4.374 130.255  0.00  0.00    +0.000 C 
ATOM     16  O   UNL     1      -9.892   3.588 131.472  0.00  0.00    +0.000 OA
BRANCH  12  17
ATOM     17  C   UNL     1      -8.672   3.874 133.612  0.00  0.00    +0.000 C 
BRANCH  17  18
ATOM     18  O   UNL     1     -10.016   3.907 134.062  0.00  0.00    +0.000 OA
ATOM     19  H   UNL     1     -10.034   4.196 134.990  0.00  0.00    +0.000 HD
ENDBRANCH  17  18
ENDBRANCH  12  17
ENDBRANCH   1  15
TORSDOF 3
ENDMDL
MODEL 7
REMARK VINA RESULT:      -5.3      2.231      5.988
REMARK  Name = Didanosine
REMARK  3 active torsions:
REMARK  status: ('A' for Active; 'I' for Inactive)
REMARK    1  A    between atoms: O_1  and  C_2
REMARK    2  A    between atoms: C_2  and  C_3
REMARK    3  A    between atoms: C_6  and  N_8
REMARK                            x       y       z     vdW  Elec       q    Type
REMARK                         _______ _______ _______ _____ _____    ______ ____
ROOT
ATOM      1  N   UNL     1      -8.649   5.942 132.511  0.00  0.00    +0.000 N 
ATOM      2  C   UNL     1      -7.573   6.345 131.744  0.00  0.00    +0.000 A 
ATOM      3  N   UNL     1      -7.943   6.977 130.646  0.00  0.00    +0.000 NA
ATOM      4  C   UNL     1      -9.319   6.927 130.658  0.00  0.00    +0.000 A 
ATOM      5  C   UNL     1      -9.742   6.230 131.758  0.00  0.00    +0.000 A 
ATOM      6  N   UNL     1     -11.037   5.984 131.985  0.00  0.00    +0.000 N 
ATOM      7  C   UNL     1     -11.928   6.629 131.158  0.00  0.00    +0.000 A 
ATOM      8  N   UNL     1     -11.652   7.327 130.101  0.00  0.00    +0.000 NA
ATOM      9  C   UNL     1     -10.313   7.478 129.724  0.00  0.00    +0.000 A 
ATOM     10  O   UNL     1      -9.990   8.060 128.690  0.00  0.00    +0.000 OA
ATOM     11  H   UNL     1     -11.352   5.772 132.938  0.00  0.00    +0.000 HD
ENDROOT
BRANCH   1  15
ATOM     12  C   UNL     1      -6.753   3.846 134.244  0.00  0.00    +0.000 C 
ATOM     13  C   UNL     1      -7.889   3.070 133.602  0.00  0.00    +0.000 C 
ATOM     14  C   UNL     1      -9.094   3.924 133.902  0.00  0.00    +0.000 C 
ATOM     15  C   UNL     1      -8.529   5.339 133.836  0.00  0.00    +0.000 C 
ATOM     16  O   UNL     1      -7.140   5.238 134.235  0.00  0.00    +0.000 OA
BRANCH  12  17
ATOM     17  C   UNL     1      -5.400   3.608 133.550  0.00  0.00    +0.000 C 
BRANCH  17  18
ATOM     18  O   UNL     1      -4.768   4.832 133.213  0.00  0.00    +0.000 OA
ATOM     19  H   UNL     1      -3.843   4.805 133.510  0.00  0.00    +0.000 HD
ENDBRANCH  17  18
ENDBRANCH  12  17
ENDBRANCH   1  15
TORSDOF 3
ENDMDL
MODEL 8
REMARK VINA RESULT:      -5.3      7.950      9.776
REMARK  Name = Didanosine
REMARK  3 active torsions:
REMARK  status: ('A' for Active; 'I' for Inactive)
REMARK    1  A    between atoms: O_1  and  C_2
REMARK    2  A    between atoms: C_2  and  C_3
REMARK    3  A    between atoms: C_6  and  N_8
REMARK                            x       y       z     vdW  Elec       q    Type
REMARK                         _______ _______ _______ _____ _____    ______ ____
ROOT
ATOM      1  N   UNL     1      -8.452   0.893 123.286  0.00  0.00    +0.000 N 
ATOM      2  C   UNL     1      -9.757   0.825 122.840  0.00  0.00    +0.000 A 
ATOM      3  N   UNL     1     -10.224  -0.409 122.831  0.00  0.00    +0.000 NA
ATOM      4  C   UNL     1      -9.161  -1.191 123.223  0.00  0.00    +0.000 A 
ATOM      5  C   UNL     1      -8.062  -0.400 123.426  0.00  0.00    +0.000 A 
ATOM      6  N   UNL     1      -6.873  -0.914 123.760  0.00  0.00    +0.000 N 
ATOM      7  C   UNL     1      -6.860  -2.252 124.072  0.00  0.00    +0.000 A 
ATOM      8  N   UNL     1      -7.833  -3.098 123.940  0.00  0.00    +0.000 NA
ATOM      9  C   UNL     1      -9.057  -2.643 123.435  0.00  0.00    +0.000 A 
ATOM     10  O   UNL     1      -9.993  -3.408 123.210  0.00  0.00    +0.000 OA
ATOM     11  H   UNL     1      -6.177  -0.318 124.223  0.00  0.00    +0.000 HD
ENDROOT
BRANCH   1  15
ATOM     12  C   UNL     1      -6.531   2.397 125.532  0.00  0.00    +0.000 C 
ATOM     13  C   UNL     1      -7.980   2.769 125.792  0.00  0.00    +0.000 C 
ATOM     14  C   UNL     1      -8.492   3.113 124.417  0.00  0.00    +0.000 C 
ATOM     15  C   UNL     1      -7.731   2.143 123.520  0.00  0.00    +0.000 C 
ATOM     16  O   UNL     1      -6.464   1.894 124.179  0.00  0.00    +0.000 OA
BRANCH  12  17
ATOM     17  C   UNL     1      -5.979   1.393 126.559  0.00  0.00    +0.000 C 
BRANCH  17  18
ATOM     18  O   UNL     1      -5.221   0.373 125.932  0.00  0.00    +0.000 OA
ATOM     19  H   UNL     1      -4.896   0.698 125.076  0.00  0.00    +0.000 HD
ENDBRANCH  17  18
ENDBRANCH  12  17
ENDBRANCH   1  15
TORSDOF 3
ENDMDL
MODEL 9
REMARK VINA RESULT:      -5.3      2.042      4.680
REMARK  Name = Didanosine
REMARK  3 active torsions:
REMARK  status: ('A' for Active; 'I' for Inactive)
REMARK    1  A    between atoms: O_1  and  C_2
REMARK    2  A    between atoms: C_2  and  C_3
REMARK    3  A    between atoms: C_6  and  N_8
REMARK                            x       y       z     vdW  Elec       q    Type
REMARK                         _______ _______ _______ _____ _____    ______ ____
ROOT
ATOM      1  N   UNL     1     -10.635   6.713 131.228  0.00  0.00    +0.000 N 
ATOM      2  C   UNL     1     -11.902   6.524 131.741  0.00  0.00    +0.000 A 
ATOM      3  N   UNL     1     -12.849   6.914 130.908  0.00  0.00    +0.000 NA
ATOM      4  C   UNL     1     -12.174   7.442 129.831  0.00  0.00    +0.000 A 
ATOM      5  C   UNL     1     -10.826   7.387 130.064  0.00  0.00    +0.000 A 
ATOM      6  N   UNL     1      -9.937   7.887 129.198  0.00  0.00    +0.000 N 
ATOM      7  C   UNL     1     -10.439   8.288 127.982  0.00  0.00    +0.000 A 
ATOM      8  N   UNL     1     -11.686   8.370 127.637  0.00  0.00    +0.000 NA
ATOM      9  C   UNL     1     -12.668   8.013 128.568  0.00  0.00    +0.000 A 
ATOM     10  O   UNL     1     -13.867   8.143 128.332  0.00  0.00    +0.000 OA
ATOM     11  H   UNL     1      -8.969   7.550 129.217  0.00  0.00    +0.000 HD
ENDROOT
BRANCH   1  15
ATOM     12  C   UNL     1      -7.979   4.799 130.700  0.00  0.00    +0.000 C 
ATOM     13  C   UNL     1      -9.066   3.967 131.358  0.00  0.00    +0.000 C 
ATOM     14  C   UNL     1      -9.540   4.857 132.478  0.00  0.00    +0.000 C 
ATOM     15  C   UNL     1      -9.410   6.253 131.879  0.00  0.00    +0.000 C 
ATOM     16  O   UNL     1      -8.315   6.185 130.932  0.00  0.00    +0.000 OA
BRANCH  12  17
ATOM     17  C   UNL     1      -7.806   4.480 129.204  0.00  0.00    +0.000 C 
BRANCH  17  18
ATOM     18  O   UNL     1      -6.605   3.768 128.962  0.00  0.00    +0.000 OA
ATOM     19  H   UNL     1      -6.166   3.586 129.810  0.00  0.00    +0.000 HD
ENDBRANCH  17  18
ENDBRANCH  12  17
ENDBRANCH   1  15
TORSDOF 3
ENDMDL
