MODEL 1
REMARK VINA RESULT:      -8.2      0.000      0.000
REMARK  Name = Dienogest
REMARK  4 active torsions:
REMARK  status: ('A' for Active; 'I' for Inactive)
REMARK    1  A    between atoms: C_5  and  O_6
REMARK    2  A    between atoms: C_5  and  C_7
REMARK    3  A    between atoms: C_7  and  C_8
REMARK    4  A    between atoms: C_10  and  C_11
REMARK                            x       y       z     vdW  Elec       q    Type
REMARK                         _______ _______ _______ _____ _____    ______ ____
ROOT
ATOM      1  C   UNL     1      -8.423  -3.361 125.961  0.00  0.00    +0.000 C 
ATOM      2  C   UNL     1      -9.778  -3.288 126.425  0.00  0.00    +0.000 C 
ATOM      3  C   UNL     1      -9.150  -2.041 125.910  0.00  0.00    +0.000 C 
ATOM      4  C   UNL     1      -7.419  -2.320 124.708  0.00  0.00    +0.000 C 
ATOM      5  C   UNL     1      -8.787  -2.387 124.401  0.00  0.00    +0.000 C 
ATOM      6  C   UNL     1      -9.473  -3.085 123.318  0.00  0.00    +0.000 C 
ATOM      7  C   UNL     1      -8.808  -0.529 124.443  0.00  0.00    +0.000 C 
ATOM      8  C   UNL     1      -7.668  -0.004 125.597  0.00  0.00    +0.000 C 
ATOM      9  C   UNL     1      -7.449  -0.746 127.080  0.00  0.00    +0.000 C 
ATOM     10  C   UNL     1      -7.799  -0.026 128.182  0.00  0.00    +0.000 C 
ATOM     11  C   UNL     1      -8.159   1.393 127.885  0.00  0.00    +0.000 C 
ATOM     12  C   UNL     1      -8.466   2.251 129.059  0.00  0.00    +0.000 C 
ATOM     13  C   UNL     1      -8.499   1.835 130.463  0.00  0.00    +0.000 C 
ATOM     14  O   UNL     1      -8.722   2.718 131.290  0.00  0.00    +0.000 OA
ATOM     15  C   UNL     1      -8.257   0.325 130.638  0.00  0.00    +0.000 C 
ATOM     16  C   UNL     1      -7.973  -0.508 129.569  0.00  0.00    +0.000 C 
ATOM     17  C   UNL     1      -7.795  -2.032 129.702  0.00  0.00    +0.000 C 
ATOM     18  C   UNL     1      -7.518  -2.978 128.498  0.00  0.00    +0.000 C 
ATOM     19  C   UNL     1      -7.304  -2.387 127.113  0.00  0.00    +0.000 C 
ENDROOT
BRANCH   4  20
ATOM     20  O   UNL     1      -7.054  -1.665 123.444  0.00  0.00    +0.000 OA
ATOM     21  H   UNL     1      -6.246  -1.143 123.378  0.00  0.00    +0.000 HD
ENDBRANCH   4  20
BRANCH   4  22
ATOM     22  C   UNL     1      -6.465  -3.834 124.058  0.00  0.00    +0.000 C 
BRANCH  22  23
ATOM     23  C   UNL     1      -4.980  -4.015 123.795  0.00  0.00    +0.000 C 
ATOM     24  N   UNL     1      -3.746  -4.166 123.576  0.00  0.00    +0.000 NA
ENDBRANCH  22  23
ENDBRANCH   4  22
TORSDOF 3
ENDMDL
MODEL 2
REMARK VINA RESULT:      -8.2      2.626      4.109
REMARK  Name = Dienogest
REMARK  4 active torsions:
REMARK  status: ('A' for Active; 'I' for Inactive)
REMARK    1  A    between atoms: C_5  and  O_6
REMARK    2  A    between atoms: C_5  and  C_7
REMARK    3  A    between atoms: C_7  and  C_8
REMARK    4  A    between atoms: C_10  and  C_11
REMARK                            x       y       z     vdW  Elec       q    Type
REMARK                         _______ _______ _______ _____ _____    ______ ____
ROOT
ATOM      1  C   UNL     1      -7.039  -0.448 124.632  0.00  0.00    +0.000 C 
ATOM      2  C   UNL     1      -5.687  -0.418 125.111  0.00  0.00    +0.000 C 
ATOM      3  C   UNL     1      -6.471  -1.666 125.315  0.00  0.00    +0.000 C 
ATOM      4  C   UNL     1      -8.196  -1.872 124.089  0.00  0.00    +0.000 C 
ATOM      5  C   UNL     1      -6.840  -2.136 123.841  0.00  0.00    +0.000 C 
ATOM      6  C   UNL     1      -6.112  -2.204 122.578  0.00  0.00    +0.000 C 
ATOM      7  C   UNL     1      -7.033  -3.675 124.864  0.00  0.00    +0.000 C 
ATOM      8  C   UNL     1      -8.188  -3.372 126.081  0.00  0.00    +0.000 C 
ATOM      9  C   UNL     1      -8.273  -1.936 126.935  0.00  0.00    +0.000 C 
ATOM     10  C   UNL     1      -7.974  -1.996 128.262  0.00  0.00    +0.000 C 
ATOM     11  C   UNL     1      -7.790  -3.386 128.777  0.00  0.00    +0.000 C 
ATOM     12  C   UNL     1      -7.547  -3.518 130.237  0.00  0.00    +0.000 C 
ATOM     13  C   UNL     1      -7.421  -2.426 131.206  0.00  0.00    +0.000 C 
ATOM     14  O   UNL     1      -7.276  -2.754 132.383  0.00  0.00    +0.000 OA
ATOM     15  C   UNL     1      -7.481  -1.038 130.544  0.00  0.00    +0.000 C 
ATOM     16  C   UNL     1      -7.701  -0.874 129.186  0.00  0.00    +0.000 C 
ATOM     17  C   UNL     1      -7.697   0.496 128.484  0.00  0.00    +0.000 C 
ATOM     18  C   UNL     1      -7.901   0.683 126.953  0.00  0.00    +0.000 C 
ATOM     19  C   UNL     1      -8.226  -0.525 126.086  0.00  0.00    +0.000 C 
ENDROOT
BRANCH   4  20
ATOM     20  O   UNL     1      -8.674  -3.051 123.354  0.00  0.00    +0.000 OA
ATOM     21  H   UNL     1      -8.269  -3.304 122.516  0.00  0.00    +0.000 HD
ENDBRANCH   4  20
BRANCH   4  22
ATOM     22  C   UNL     1      -8.989  -0.837 122.702  0.00  0.00    +0.000 C 
BRANCH  22  23
ATOM     23  C   UNL     1     -10.204   0.075 122.734  0.00  0.00    +0.000 C 
ATOM     24  N   UNL     1     -11.213   0.832 122.761  0.00  0.00    +0.000 NA
ENDBRANCH  22  23
ENDBRANCH   4  22
TORSDOF 3
ENDMDL
MODEL 3
REMARK VINA RESULT:      -8.0      6.169      8.203
REMARK  Name = Dienogest
REMARK  4 active torsions:
REMARK  status: ('A' for Active; 'I' for Inactive)
REMARK    1  A    between atoms: C_5  and  O_6
REMARK    2  A    between atoms: C_5  and  C_7
REMARK    3  A    between atoms: C_7  and  C_8
REMARK    4  A    between atoms: C_10  and  C_11
REMARK                            x       y       z     vdW  Elec       q    Type
REMARK                         _______ _______ _______ _____ _____    ______ ____
ROOT
ATOM      1  C   UNL     1      -4.035   3.756 126.707  0.00  0.00    +0.000 C 
ATOM      2  C   UNL     1      -2.670   3.318 126.648  0.00  0.00    +0.000 C 
ATOM      3  C   UNL     1      -3.467   2.955 127.851  0.00  0.00    +0.000 C 
ATOM      4  C   UNL     1      -5.576   3.090 127.624  0.00  0.00    +0.000 C 
ATOM      5  C   UNL     1      -4.665   2.083 127.272  0.00  0.00    +0.000 C 
ATOM      6  C   UNL     1      -4.770   1.030 126.267  0.00  0.00    +0.000 C 
ATOM      7  C   UNL     1      -4.602   1.620 129.071  0.00  0.00    +0.000 C 
ATOM      8  C   UNL     1      -4.819   3.034 129.998  0.00  0.00    +0.000 C 
ATOM      9  C   UNL     1      -4.116   4.504 129.618  0.00  0.00    +0.000 C 
ATOM     10  C   UNL     1      -3.169   4.969 130.478  0.00  0.00    +0.000 C 
ATOM     11  C   UNL     1      -3.042   4.163 131.729  0.00  0.00    +0.000 C 
ATOM     12  C   UNL     1      -2.084   4.674 132.744  0.00  0.00    +0.000 C 
ATOM     13  C   UNL     1      -1.223   5.853 132.620  0.00  0.00    +0.000 C 
ATOM     14  O   UNL     1      -0.540   6.136 133.604  0.00  0.00    +0.000 OA
ATOM     15  C   UNL     1      -1.329   6.520 131.238  0.00  0.00    +0.000 C 
ATOM     16  C   UNL     1      -2.206   6.071 130.264  0.00  0.00    +0.000 C 
ATOM     17  C   UNL     1      -2.286   6.673 128.849  0.00  0.00    +0.000 C 
ATOM     18  C   UNL     1      -3.238   6.145 127.738  0.00  0.00    +0.000 C 
ATOM     19  C   UNL     1      -4.232   5.039 128.064  0.00  0.00    +0.000 C 
ENDROOT
BRANCH   4  20
ATOM     20  O   UNL     1      -6.617   2.149 128.061  0.00  0.00    +0.000 OA
ATOM     21  H   UNL     1      -7.536   2.275 127.792  0.00  0.00    +0.000 HD
ENDBRANCH   4  20
BRANCH   4  22
ATOM     22  C   UNL     1      -6.747   3.529 126.188  0.00  0.00    +0.000 C 
BRANCH  22  23
ATOM     23  C   UNL     1      -7.838   4.583 126.102  0.00  0.00    +0.000 C 
ATOM     24  N   UNL     1      -8.744   5.459 126.030  0.00  0.00    +0.000 NA
ENDBRANCH  22  23
ENDBRANCH   4  22
TORSDOF 3
ENDMDL
MODEL 4
REMARK VINA RESULT:      -8.0      4.725      7.518
REMARK  Name = Dienogest
REMARK  4 active torsions:
REMARK  status: ('A' for Active; 'I' for Inactive)
REMARK    1  A    between atoms: C_5  and  O_6
REMARK    2  A    between atoms: C_5  and  C_7
REMARK    3  A    between atoms: C_7  and  C_8
REMARK    4  A    between atoms: C_10  and  C_11
REMARK                            x       y       z     vdW  Elec       q    Type
REMARK                         _______ _______ _______ _____ _____    ______ ____
ROOT
ATOM      1  C   UNL     1      -7.619   0.781 125.815  0.00  0.00    +0.000 C 
ATOM      2  C   UNL     1      -7.083  -0.153 124.866  0.00  0.00    +0.000 C 
ATOM      3  C   UNL     1      -6.258   1.035 125.216  0.00  0.00    +0.000 C 
ATOM      4  C   UNL     1      -6.803   2.027 127.016  0.00  0.00    +0.000 C 
ATOM      5  C   UNL     1      -6.015   0.890 126.781  0.00  0.00    +0.000 C 
ATOM      6  C   UNL     1      -5.687  -0.225 127.665  0.00  0.00    +0.000 C 
ATOM      7  C   UNL     1      -4.663   2.035 126.222  0.00  0.00    +0.000 C 
ATOM      8  C   UNL     1      -5.381   3.401 125.496  0.00  0.00    +0.000 C 
ATOM      9  C   UNL     1      -6.706   3.315 124.478  0.00  0.00    +0.000 C 
ATOM     10  C   UNL     1      -6.498   3.648 123.175  0.00  0.00    +0.000 C 
ATOM     11  C   UNL     1      -5.141   4.212 122.906  0.00  0.00    +0.000 C 
ATOM     12  C   UNL     1      -4.887   4.674 121.516  0.00  0.00    +0.000 C 
ATOM     13  C   UNL     1      -5.809   4.585 120.381  0.00  0.00    +0.000 C 
ATOM     14  O   UNL     1      -5.421   5.079 119.323  0.00  0.00    +0.000 OA
ATOM     15  C   UNL     1      -7.116   3.856 120.737  0.00  0.00    +0.000 C 
ATOM     16  C   UNL     1      -7.388   3.407 122.019  0.00  0.00    +0.000 C 
ATOM     17  C   UNL     1      -8.655   2.614 122.391  0.00  0.00    +0.000 C 
ATOM     18  C   UNL     1      -8.945   2.070 123.820  0.00  0.00    +0.000 C 
ATOM     19  C   UNL     1      -7.996   2.410 124.959  0.00  0.00    +0.000 C 
ENDROOT
BRANCH   4  20
ATOM     20  O   UNL     1      -5.939   2.539 128.089  0.00  0.00    +0.000 OA
ATOM     21  H   UNL     1      -6.101   2.295 129.008  0.00  0.00    +0.000 HD
ENDBRANCH   4  20
BRANCH   4  22
ATOM     22  C   UNL     1      -8.104   1.729 128.373  0.00  0.00    +0.000 C 
BRANCH  22  23
ATOM     23  C   UNL     1      -9.010   2.713 129.093  0.00  0.00    +0.000 C 
ATOM     24  N   UNL     1      -9.763   3.531 129.690  0.00  0.00    +0.000 NA
ENDBRANCH  22  23
ENDBRANCH   4  22
TORSDOF 3
ENDMDL
MODEL 5
REMARK VINA RESULT:      -8.0      3.065      4.245
REMARK  Name = Dienogest
REMARK  4 active torsions:
REMARK  status: ('A' for Active; 'I' for Inactive)
REMARK    1  A    between atoms: C_5  and  O_6
REMARK    2  A    between atoms: C_5  and  C_7
REMARK    3  A    between atoms: C_7  and  C_8
REMARK    4  A    between atoms: C_10  and  C_11
REMARK                            x       y       z     vdW  Elec       q    Type
REMARK                         _______ _______ _______ _____ _____    ______ ____
ROOT
ATOM      1  C   UNL     1      -6.465  -0.786 124.440  0.00  0.00    +0.000 C 
ATOM      2  C   UNL     1      -5.451  -1.800 124.490  0.00  0.00    +0.000 C 
ATOM      3  C   UNL     1      -6.812  -2.151 124.978  0.00  0.00    +0.000 C 
ATOM      4  C   UNL     1      -8.374  -0.859 124.336  0.00  0.00    +0.000 C 
ATOM      5  C   UNL     1      -7.744  -1.943 123.706  0.00  0.00    +0.000 C 
ATOM      6  C   UNL     1      -7.624  -2.265 122.287  0.00  0.00    +0.000 C 
ATOM      7  C   UNL     1      -8.736  -3.061 124.810  0.00  0.00    +0.000 C 
ATOM      8  C   UNL     1      -8.975  -2.270 126.302  0.00  0.00    +0.000 C 
ATOM      9  C   UNL     1      -7.789  -1.379 127.074  0.00  0.00    +0.000 C 
ATOM     10  C   UNL     1      -7.320  -1.876 128.251  0.00  0.00    +0.000 C 
ATOM     11  C   UNL     1      -8.082  -3.060 128.752  0.00  0.00    +0.000 C 
ATOM     12  C   UNL     1      -7.669  -3.592 130.077  0.00  0.00    +0.000 C 
ATOM     13  C   UNL     1      -6.567  -3.107 130.912  0.00  0.00    +0.000 C 
ATOM     14  O   UNL     1      -6.428  -3.654 132.005  0.00  0.00    +0.000 OA
ATOM     15  C   UNL     1      -5.763  -1.984 130.234  0.00  0.00    +0.000 C 
ATOM     16  C   UNL     1      -6.112  -1.465 128.998  0.00  0.00    +0.000 C 
ATOM     17  C   UNL     1      -5.288  -0.391 128.264  0.00  0.00    +0.000 C 
ATOM     18  C   UNL     1      -5.652   0.165 126.857  0.00  0.00    +0.000 C 
ATOM     19  C   UNL     1      -6.943  -0.280 126.185  0.00  0.00    +0.000 C 
ENDROOT
BRANCH   4  20
ATOM     20  O   UNL     1      -9.712  -1.202 123.834  0.00  0.00    +0.000 OA
ATOM     21  H   UNL     1      -9.844  -1.985 123.286  0.00  0.00    +0.000 HD
ENDBRANCH   4  20
BRANCH   4  22
ATOM     22  C   UNL     1      -8.473   0.668 123.204  0.00  0.00    +0.000 C 
BRANCH  22  23
ATOM     23  C   UNL     1      -8.494   2.146 123.554  0.00  0.00    +0.000 C 
ATOM     24  N   UNL     1      -8.511   3.374 123.844  0.00  0.00    +0.000 NA
ENDBRANCH  22  23
ENDBRANCH   4  22
TORSDOF 3
ENDMDL
MODEL 6
REMARK VINA RESULT:      -7.9      3.866      7.025
REMARK  Name = Dienogest
REMARK  4 active torsions:
REMARK  status: ('A' for Active; 'I' for Inactive)
REMARK    1  A    between atoms: C_5  and  O_6
REMARK    2  A    between atoms: C_5  and  C_7
REMARK    3  A    between atoms: C_7  and  C_8
REMARK    4  A    between atoms: C_10  and  C_11
REMARK                            x       y       z     vdW  Elec       q    Type
REMARK                         _______ _______ _______ _____ _____    ______ ____
ROOT
ATOM      1  C   UNL     1      -6.057  -3.725 131.262  0.00  0.00    +0.000 C 
ATOM      2  C   UNL     1      -5.918  -5.029 130.679  0.00  0.00    +0.000 C 
ATOM      3  C   UNL     1      -5.171  -3.903 130.055  0.00  0.00    +0.000 C 
ATOM      4  C   UNL     1      -4.930  -2.180 131.276  0.00  0.00    +0.000 C 
ATOM      5  C   UNL     1      -4.214  -3.385 131.215  0.00  0.00    +0.000 C 
ATOM      6  C   UNL     1      -3.385  -4.037 132.223  0.00  0.00    +0.000 C 
ATOM      7  C   UNL     1      -3.421  -2.745 129.661  0.00  0.00    +0.000 C 
ATOM      8  C   UNL     1      -4.549  -1.758 128.848  0.00  0.00    +0.000 C 
ATOM      9  C   UNL     1      -6.174  -2.131 128.716  0.00  0.00    +0.000 C 
ATOM     10  C   UNL     1      -6.635  -2.417 127.467  0.00  0.00    +0.000 C 
ATOM     11  C   UNL     1      -5.635  -2.174 126.384  0.00  0.00    +0.000 C 
ATOM     12  C   UNL     1      -6.112  -2.387 124.992  0.00  0.00    +0.000 C 
ATOM     13  C   UNL     1      -7.437  -2.857 124.582  0.00  0.00    +0.000 C 
ATOM     14  O   UNL     1      -7.646  -2.912 123.371  0.00  0.00    +0.000 OA
ATOM     15  C   UNL     1      -8.334  -3.215 125.780  0.00  0.00    +0.000 C 
ATOM     16  C   UNL     1      -7.926  -3.035 127.091  0.00  0.00    +0.000 C 
ATOM     17  C   UNL     1      -8.772  -3.448 128.310  0.00  0.00    +0.000 C 
ATOM     18  C   UNL     1      -8.300  -3.287 129.784  0.00  0.00    +0.000 C 
ATOM     19  C   UNL     1      -6.977  -2.594 130.077  0.00  0.00    +0.000 C 
ENDROOT
BRANCH   4  20
ATOM     20  O   UNL     1      -3.734  -1.352 131.484  0.00  0.00    +0.000 OA
ATOM     21  H   UNL     1      -3.579  -0.569 130.941  0.00  0.00    +0.000 HD
ENDBRANCH   4  20
BRANCH   4  22
ATOM     22  C   UNL     1      -5.408  -1.721 133.061  0.00  0.00    +0.000 C 
BRANCH  22  23
ATOM     23  C   UNL     1      -6.148  -0.506 133.594  0.00  0.00    +0.000 C 
ATOM     24  N   UNL     1      -6.762   0.504 134.037  0.00  0.00    +0.000 NA
ENDBRANCH  22  23
ENDBRANCH   4  22
TORSDOF 3
ENDMDL
MODEL 7
REMARK VINA RESULT:      -7.8      3.433      6.812
REMARK  Name = Dienogest
REMARK  4 active torsions:
REMARK  status: ('A' for Active; 'I' for Inactive)
REMARK    1  A    between atoms: C_5  and  O_6
REMARK    2  A    between atoms: C_5  and  C_7
REMARK    3  A    between atoms: C_7  and  C_8
REMARK    4  A    between atoms: C_10  and  C_11
REMARK                            x       y       z     vdW  Elec       q    Type
REMARK                         _______ _______ _______ _____ _____    ______ ____
ROOT
ATOM      1  C   UNL     1      -6.763  -3.369 130.818  0.00  0.00    +0.000 C 
ATOM      2  C   UNL     1      -6.088  -4.503 130.256  0.00  0.00    +0.000 C 
ATOM      3  C   UNL     1      -5.601  -3.148 129.883  0.00  0.00    +0.000 C 
ATOM      4  C   UNL     1      -6.211  -1.572 131.173  0.00  0.00    +0.000 C 
ATOM      5  C   UNL     1      -5.164  -2.500 131.269  0.00  0.00    +0.000 C 
ATOM      6  C   UNL     1      -4.443  -2.986 132.441  0.00  0.00    +0.000 C 
ATOM      7  C   UNL     1      -4.257  -1.492 129.998  0.00  0.00    +0.000 C 
ATOM      8  C   UNL     1      -5.404  -0.797 128.945  0.00  0.00    +0.000 C 
ATOM      9  C   UNL     1      -6.749  -1.613 128.377  0.00  0.00    +0.000 C 
ATOM     10  C   UNL     1      -6.781  -1.886 127.044  0.00  0.00    +0.000 C 
ATOM     11  C   UNL     1      -5.676  -1.245 126.270  0.00  0.00    +0.000 C 
ATOM     12  C   UNL     1      -5.710  -1.436 124.797  0.00  0.00    +0.000 C 
ATOM     13  C   UNL     1      -6.683  -2.226 124.038  0.00  0.00    +0.000 C 
ATOM     14  O   UNL     1      -6.564  -2.210 122.814  0.00  0.00    +0.000 OA
ATOM     15  C   UNL     1      -7.685  -2.959 124.946  0.00  0.00    +0.000 C 
ATOM     16  C   UNL     1      -7.684  -2.810 126.323  0.00  0.00    +0.000 C 
ATOM     17  C   UNL     1      -8.628  -3.582 127.263  0.00  0.00    +0.000 C 
ATOM     18  C   UNL     1      -8.602  -3.451 128.814  0.00  0.00    +0.000 C 
ATOM     19  C   UNL     1      -7.673  -2.436 129.465  0.00  0.00    +0.000 C 
ENDROOT
BRANCH   4  20
ATOM     20  O   UNL     1      -5.420  -0.457 131.712  0.00  0.00    +0.000 OA
ATOM     21  H   UNL     1      -5.753   0.447 131.667  0.00  0.00    +0.000 HD
ENDBRANCH   4  20
BRANCH   4  22
ATOM     22  C   UNL     1      -7.226  -1.469 132.780  0.00  0.00    +0.000 C 
BRANCH  22  23
ATOM     23  C   UNL     1      -7.882  -2.571 133.595  0.00  0.00    +0.000 C 
ATOM     24  N   UNL     1      -8.428  -3.486 134.272  0.00  0.00    +0.000 NA
ENDBRANCH  22  23
ENDBRANCH   4  22
TORSDOF 3
ENDMDL
MODEL 8
REMARK VINA RESULT:      -7.3      4.658      8.451
REMARK  Name = Dienogest
REMARK  4 active torsions:
REMARK  status: ('A' for Active; 'I' for Inactive)
REMARK    1  A    between atoms: C_5  and  O_6
REMARK    2  A    between atoms: C_5  and  C_7
REMARK    3  A    between atoms: C_7  and  C_8
REMARK    4  A    between atoms: C_10  and  C_11
REMARK                            x       y       z     vdW  Elec       q    Type
REMARK                         _______ _______ _______ _____ _____    ______ ____
ROOT
ATOM      1  C   UNL     1      -7.967   4.280 132.238  0.00  0.00    +0.000 C 
ATOM      2  C   UNL     1      -6.710   3.724 132.648  0.00  0.00    +0.000 C 
ATOM      3  C   UNL     1      -6.986   3.821 131.189  0.00  0.00    +0.000 C 
ATOM      4  C   UNL     1      -8.539   5.166 130.642  0.00  0.00    +0.000 C 
ATOM      5  C   UNL     1      -7.183   5.379 130.937  0.00  0.00    +0.000 C 
ATOM      6  C   UNL     1      -6.500   6.584 131.398  0.00  0.00    +0.000 C 
ATOM      7  C   UNL     1      -6.789   4.700 129.253  0.00  0.00    +0.000 C 
ATOM      8  C   UNL     1      -7.956   3.519 128.863  0.00  0.00    +0.000 C 
ATOM      9  C   UNL     1      -8.541   2.401 129.962  0.00  0.00    +0.000 C 
ATOM     10  C   UNL     1      -8.219   1.098 129.737  0.00  0.00    +0.000 C 
ATOM     11  C   UNL     1      -7.536   0.862 128.430  0.00  0.00    +0.000 C 
ATOM     12  C   UNL     1      -7.239  -0.555 128.092  0.00  0.00    +0.000 C 
ATOM     13  C   UNL     1      -7.501  -1.729 128.929  0.00  0.00    +0.000 C 
ATOM     14  O   UNL     1      -7.228  -2.823 128.436  0.00  0.00    +0.000 OA
ATOM     15  C   UNL     1      -8.070  -1.356 130.309  0.00  0.00    +0.000 C 
ATOM     16  C   UNL     1      -8.356  -0.048 130.663  0.00  0.00    +0.000 C 
ATOM     17  C   UNL     1      -8.859   0.365 132.059  0.00  0.00    +0.000 C 
ATOM     18  C   UNL     1      -9.142   1.837 132.475  0.00  0.00    +0.000 C 
ATOM     19  C   UNL     1      -9.022   2.946 131.440  0.00  0.00    +0.000 C 
ENDROOT
BRANCH   4  20
ATOM     20  O   UNL     1      -8.570   6.150 129.551  0.00  0.00    +0.000 OA
ATOM     21  H   UNL     1      -9.257   6.112 128.875  0.00  0.00    +0.000 HD
ENDBRANCH   4  20
BRANCH   4  22
ATOM     22  C   UNL     1      -9.674   6.363 131.591  0.00  0.00    +0.000 C 
BRANCH  22  23
ATOM     23  C   UNL     1     -11.190   6.472 131.603  0.00  0.00    +0.000 C 
ATOM     24  N   UNL     1     -12.449   6.562 131.614  0.00  0.00    +0.000 NA
ENDBRANCH  22  23
ENDBRANCH   4  22
TORSDOF 3
ENDMDL
MODEL 9
REMARK VINA RESULT:      -7.2      2.343      3.851
REMARK  Name = Dienogest
REMARK  4 active torsions:
REMARK  status: ('A' for Active; 'I' for Inactive)
REMARK    1  A    between atoms: C_5  and  O_6
REMARK    2  A    between atoms: C_5  and  C_7
REMARK    3  A    between atoms: C_7  and  C_8
REMARK    4  A    between atoms: C_10  and  C_11
REMARK                            x       y       z     vdW  Elec       q    Type
REMARK                         _______ _______ _______ _____ _____    ______ ____
ROOT
ATOM      1  C   UNL     1      -6.514   0.302 125.298  0.00  0.00    +0.000 C 
ATOM      2  C   UNL     1      -5.247   0.610 125.897  0.00  0.00    +0.000 C 
ATOM      3  C   UNL     1      -6.048  -0.495 126.490  0.00  0.00    +0.000 C 
ATOM      4  C   UNL     1      -7.572  -1.290 125.240  0.00  0.00    +0.000 C 
ATOM      5  C   UNL     1      -6.194  -1.546 125.305  0.00  0.00    +0.000 C 
ATOM      6  C   UNL     1      -5.287  -2.075 124.291  0.00  0.00    +0.000 C 
ATOM      7  C   UNL     1      -6.530  -2.546 126.835  0.00  0.00    +0.000 C 
ATOM      8  C   UNL     1      -7.853  -1.849 127.654  0.00  0.00    +0.000 C 
ATOM      9  C   UNL     1      -8.068  -0.198 127.823  0.00  0.00    +0.000 C 
ATOM     10  C   UNL     1      -7.967   0.305 129.084  0.00  0.00    +0.000 C 
ATOM     11  C   UNL     1      -7.856  -0.741 130.144  0.00  0.00    +0.000 C 
ATOM     12  C   UNL     1      -7.831  -0.252 131.547  0.00  0.00    +0.000 C 
ATOM     13  C   UNL     1      -7.853   1.145 131.989  0.00  0.00    +0.000 C 
ATOM     14  O   UNL     1      -7.882   1.333 133.205  0.00  0.00    +0.000 OA
ATOM     15  C   UNL     1      -7.820   2.137 130.814  0.00  0.00    +0.000 C 
ATOM     16  C   UNL     1      -7.838   1.721 129.492  0.00  0.00    +0.000 C 
ATOM     17  C   UNL     1      -7.735   2.685 128.296  0.00  0.00    +0.000 C 
ATOM     18  C   UNL     1      -7.712   2.220 126.811  0.00  0.00    +0.000 C 
ATOM     19  C   UNL     1      -7.902   0.746 126.483  0.00  0.00    +0.000 C 
ENDROOT
BRANCH   4  20
ATOM     20  O   UNL     1      -7.933  -2.695 124.999  0.00  0.00    +0.000 OA
ATOM     21  H   UNL     1      -8.666  -3.102 125.476  0.00  0.00    +0.000 HD
ENDBRANCH   4  20
BRANCH   4  22
ATOM     22  C   UNL     1      -8.156  -0.961 123.459  0.00  0.00    +0.000 C 
BRANCH  22  23
ATOM     23  C   UNL     1      -9.427  -0.302 122.951  0.00  0.00    +0.000 C 
ATOM     24  N   UNL     1     -10.484   0.246 122.530  0.00  0.00    +0.000 NA
ENDBRANCH  22  23
ENDBRANCH   4  22
TORSDOF 3
ENDMDL
