MODEL 1
REMARK VINA RESULT:      -7.5      0.000      0.000
REMARK  Name = Dienestrol
REMARK  7 active torsions:
REMARK  status: ('A' for Active; 'I' for Inactive)
REMARK    1  A    between atoms: C_2  and  C_3
REMARK    2  A    between atoms: C_4  and  C_5
REMARK    3  A    between atoms: C_4  and  C_16
REMARK    4  A    between atoms: C_5  and  C_9
REMARK    5  A    between atoms: C_6  and  C_8
REMARK    6  A    between atoms: C_12  and  O_13
REMARK    7  A    between atoms: C_19  and  O_20
REMARK                            x       y       z     vdW  Elec       q    Type
REMARK                         _______ _______ _______ _____ _____    ______ ____
ROOT
ATOM      1  C   UNL     1      -6.159   3.170 124.716  0.00  0.00    +0.000 C 
ATOM      2  C   UNL     1      -5.613   4.556 124.514  0.00  0.00    +0.000 C 
ATOM      3  C   UNL     1      -6.897   2.410 123.871  0.00  0.00    +0.000 C 
ENDROOT
BRANCH   3   4
ATOM      4  C   UNL     1      -7.116   2.962 122.486  0.00  0.00    +0.000 A 
ATOM      5  C   UNL     1      -8.412   3.260 122.021  0.00  0.00    +0.000 A 
ATOM      6  C   UNL     1      -8.632   3.748 120.731  0.00  0.00    +0.000 A 
ATOM      7  C   UNL     1      -7.542   4.049 119.929  0.00  0.00    +0.000 A 
ATOM      8  C   UNL     1      -6.249   3.810 120.373  0.00  0.00    +0.000 A 
ATOM      9  C   UNL     1      -6.042   3.223 121.625  0.00  0.00    +0.000 A 
BRANCH   7  10
ATOM     10  O   UNL     1      -7.699   4.596 118.691  0.00  0.00    +0.000 OA
ATOM     11  H   UNL     1      -7.228   5.445 118.666  0.00  0.00    +0.000 HD
ENDBRANCH   7  10
ENDBRANCH   3   4
BRANCH   3  12
ATOM     12  C   UNL     1      -7.463   1.074 124.328  0.00  0.00    +0.000 C 
ATOM     13  C   UNL     1      -8.646   1.007 124.985  0.00  0.00    +0.000 C 
ATOM     14  C   UNL     1      -9.354  -0.164 125.613  0.00  0.00    +0.000 C 
BRANCH  12  15
ATOM     15  C   UNL     1      -6.760  -0.232 124.087  0.00  0.00    +0.000 A 
ATOM     16  C   UNL     1      -6.853  -0.911 122.862  0.00  0.00    +0.000 A 
ATOM     17  C   UNL     1      -6.210  -2.138 122.667  0.00  0.00    +0.000 A 
ATOM     18  C   UNL     1      -5.388  -2.644 123.667  0.00  0.00    +0.000 A 
ATOM     19  C   UNL     1      -5.248  -1.979 124.874  0.00  0.00    +0.000 A 
ATOM     20  C   UNL     1      -5.975  -0.811 125.101  0.00  0.00    +0.000 A 
BRANCH  18  21
ATOM     21  O   UNL     1      -4.692  -3.804 123.507  0.00  0.00    +0.000 OA
ATOM     22  H   UNL     1      -3.919  -3.627 122.946  0.00  0.00    +0.000 HD
ENDBRANCH  18  21
ENDBRANCH  12  15
ENDBRANCH   3  12
TORSDOF 5
ENDMDL
MODEL 2
REMARK VINA RESULT:      -7.4      0.169      6.203
REMARK  Name = Dienestrol
REMARK  7 active torsions:
REMARK  status: ('A' for Active; 'I' for Inactive)
REMARK    1  A    between atoms: C_2  and  C_3
REMARK    2  A    between atoms: C_4  and  C_5
REMARK    3  A    between atoms: C_4  and  C_16
REMARK    4  A    between atoms: C_5  and  C_9
REMARK    5  A    between atoms: C_6  and  C_8
REMARK    6  A    between atoms: C_12  and  O_13
REMARK    7  A    between atoms: C_19  and  O_20
REMARK                            x       y       z     vdW  Elec       q    Type
REMARK                         _______ _______ _______ _____ _____    ______ ____
ROOT
ATOM      1  C   UNL     1      -8.675   1.169 124.855  0.00  0.00    +0.000 C 
ATOM      2  C   UNL     1      -9.389  -0.006 125.461  0.00  0.00    +0.000 C 
ATOM      3  C   UNL     1      -7.448   1.220 124.281  0.00  0.00    +0.000 C 
ENDROOT
BRANCH   3   4
ATOM      4  C   UNL     1      -6.728  -0.092 124.110  0.00  0.00    +0.000 A 
ATOM      5  C   UNL     1      -5.951  -0.634 125.152  0.00  0.00    +0.000 A 
ATOM      6  C   UNL     1      -5.258  -1.837 124.999  0.00  0.00    +0.000 A 
ATOM      7  C   UNL     1      -5.427  -2.569 123.833  0.00  0.00    +0.000 A 
ATOM      8  C   UNL     1      -6.223  -2.086 122.804  0.00  0.00    +0.000 A 
ATOM      9  C   UNL     1      -6.828  -0.831 122.923  0.00  0.00    +0.000 A 
BRANCH   7  10
ATOM     10  O   UNL     1      -4.833  -3.782 123.662  0.00  0.00    +0.000 OA
ATOM     11  H   UNL     1      -3.902  -3.641 123.425  0.00  0.00    +0.000 HD
ENDBRANCH   7  10
ENDBRANCH   3   4
BRANCH   3  12
ATOM     12  C   UNL     1      -6.855   2.552 123.845  0.00  0.00    +0.000 C 
ATOM     13  C   UNL     1      -6.135   3.310 124.706  0.00  0.00    +0.000 C 
ATOM     14  C   UNL     1      -5.539   4.682 124.544  0.00  0.00    +0.000 C 
BRANCH  12  15
ATOM     15  C   UNL     1      -7.029   3.104 122.458  0.00  0.00    +0.000 A 
ATOM     16  C   UNL     1      -5.932   3.380 121.626  0.00  0.00    +0.000 A 
ATOM     17  C   UNL     1      -6.115   3.917 120.346  0.00  0.00    +0.000 A 
ATOM     18  C   UNL     1      -7.405   4.087 119.856  0.00  0.00    +0.000 A 
ATOM     19  C   UNL     1      -8.507   3.790 120.641  0.00  0.00    +0.000 A 
ATOM     20  C   UNL     1      -8.317   3.356 121.952  0.00  0.00    +0.000 A 
BRANCH  18  21
ATOM     21  O   UNL     1      -7.639   4.549 118.596  0.00  0.00    +0.000 OA
ATOM     22  H   UNL     1      -8.594   4.687 118.489  0.00  0.00    +0.000 HD
ENDBRANCH  18  21
ENDBRANCH  12  15
ENDBRANCH   3  12
TORSDOF 5
ENDMDL
MODEL 3
REMARK VINA RESULT:      -7.2      1.834      5.897
REMARK  Name = Dienestrol
REMARK  7 active torsions:
REMARK  status: ('A' for Active; 'I' for Inactive)
REMARK    1  A    between atoms: C_2  and  C_3
REMARK    2  A    between atoms: C_4  and  C_5
REMARK    3  A    between atoms: C_4  and  C_16
REMARK    4  A    between atoms: C_5  and  C_9
REMARK    5  A    between atoms: C_6  and  C_8
REMARK    6  A    between atoms: C_12  and  O_13
REMARK    7  A    between atoms: C_19  and  O_20
REMARK                            x       y       z     vdW  Elec       q    Type
REMARK                         _______ _______ _______ _____ _____    ______ ____
ROOT
ATOM      1  C   UNL     1      -5.804   0.660 125.710  0.00  0.00    +0.000 C 
ATOM      2  C   UNL     1      -5.210  -0.682 126.032  0.00  0.00    +0.000 C 
ATOM      3  C   UNL     1      -6.926   0.952 125.008  0.00  0.00    +0.000 C 
ENDROOT
BRANCH   3   4
ATOM      4  C   UNL     1      -7.776  -0.216 124.580  0.00  0.00    +0.000 A 
ATOM      5  C   UNL     1      -7.730  -0.700 123.258  0.00  0.00    +0.000 A 
ATOM      6  C   UNL     1      -8.531  -1.765 122.840  0.00  0.00    +0.000 A 
ATOM      7  C   UNL     1      -9.307  -2.432 123.775  0.00  0.00    +0.000 A 
ATOM      8  C   UNL     1      -9.342  -2.010 125.097  0.00  0.00    +0.000 A 
ATOM      9  C   UNL     1      -8.618  -0.878 125.484  0.00  0.00    +0.000 A 
BRANCH   7  10
ATOM     10  O   UNL     1     -10.049  -3.523 123.436  0.00  0.00    +0.000 OA
ATOM     11  H   UNL     1     -10.635  -3.741 124.179  0.00  0.00    +0.000 HD
ENDBRANCH   7  10
ENDBRANCH   3   4
BRANCH   3  12
ATOM     12  C   UNL     1      -7.280   2.395 124.684  0.00  0.00    +0.000 C 
ATOM     13  C   UNL     1      -7.580   3.278 125.667  0.00  0.00    +0.000 C 
ATOM     14  C   UNL     1      -8.047   4.707 125.594  0.00  0.00    +0.000 C 
BRANCH  12  15
ATOM     15  C   UNL     1      -7.322   2.926 123.278  0.00  0.00    +0.000 A 
ATOM     16  C   UNL     1      -6.168   3.382 122.622  0.00  0.00    +0.000 A 
ATOM     17  C   UNL     1      -6.233   3.895 121.322  0.00  0.00    +0.000 A 
ATOM     18  C   UNL     1      -7.440   3.861 120.634  0.00  0.00    +0.000 A 
ATOM     19  C   UNL     1      -8.589   3.384 121.244  0.00  0.00    +0.000 A 
ATOM     20  C   UNL     1      -8.540   2.974 122.575  0.00  0.00    +0.000 A 
BRANCH  18  21
ATOM     21  O   UNL     1      -7.547   4.292 119.346  0.00  0.00    +0.000 OA
ATOM     22  H   UNL     1      -8.231   4.979 119.305  0.00  0.00    +0.000 HD
ENDBRANCH  18  21
ENDBRANCH  12  15
ENDBRANCH   3  12
TORSDOF 5
ENDMDL
MODEL 4
REMARK VINA RESULT:      -7.0      2.890      4.394
REMARK  Name = Dienestrol
REMARK  7 active torsions:
REMARK  status: ('A' for Active; 'I' for Inactive)
REMARK    1  A    between atoms: C_2  and  C_3
REMARK    2  A    between atoms: C_4  and  C_5
REMARK    3  A    between atoms: C_4  and  C_16
REMARK    4  A    between atoms: C_5  and  C_9
REMARK    5  A    between atoms: C_6  and  C_8
REMARK    6  A    between atoms: C_12  and  O_13
REMARK    7  A    between atoms: C_19  and  O_20
REMARK                            x       y       z     vdW  Elec       q    Type
REMARK                         _______ _______ _______ _____ _____    ______ ____
ROOT
ATOM      1  C   UNL     1      -9.241  -0.443 123.112  0.00  0.00    +0.000 C 
ATOM      2  C   UNL     1     -10.136   0.535 122.405  0.00  0.00    +0.000 C 
ATOM      3  C   UNL     1      -8.079  -0.215 123.772  0.00  0.00    +0.000 C 
ENDROOT
BRANCH   3   4
ATOM      4  C   UNL     1      -7.666   1.224 123.933  0.00  0.00    +0.000 A 
ATOM      5  C   UNL     1      -8.023   1.957 125.082  0.00  0.00    +0.000 A 
ATOM      6  C   UNL     1      -7.668   3.300 125.233  0.00  0.00    +0.000 A 
ATOM      7  C   UNL     1      -6.853   3.893 124.282  0.00  0.00    +0.000 A 
ATOM      8  C   UNL     1      -6.444   3.185 123.159  0.00  0.00    +0.000 A 
ATOM      9  C   UNL     1      -6.890   1.875 122.964  0.00  0.00    +0.000 A 
BRANCH   7  10
ATOM     10  O   UNL     1      -6.417   5.176 124.418  0.00  0.00    +0.000 OA
ATOM     11  H   UNL     1      -6.944   5.610 125.108  0.00  0.00    +0.000 HD
ENDBRANCH   7  10
ENDBRANCH   3   4
BRANCH   3  12
ATOM     12  C   UNL     1      -7.256  -1.377 124.309  0.00  0.00    +0.000 C 
ATOM     13  C   UNL     1      -6.296  -1.960 123.552  0.00  0.00    +0.000 C 
ATOM     14  C   UNL     1      -5.431  -3.163 123.818  0.00  0.00    +0.000 C 
BRANCH  12  15
ATOM     15  C   UNL     1      -7.453  -1.944 125.687  0.00  0.00    +0.000 A 
ATOM     16  C   UNL     1      -6.663  -1.542 126.776  0.00  0.00    +0.000 A 
ATOM     17  C   UNL     1      -6.846  -2.101 128.045  0.00  0.00    +0.000 A 
ATOM     18  C   UNL     1      -7.890  -2.995 128.253  0.00  0.00    +0.000 A 
ATOM     19  C   UNL     1      -8.708  -3.384 127.205  0.00  0.00    +0.000 A 
ATOM     20  C   UNL     1      -8.453  -2.905 125.921  0.00  0.00    +0.000 A 
BRANCH  18  21
ATOM     21  O   UNL     1      -8.151  -3.523 129.481  0.00  0.00    +0.000 OA
ATOM     22  H   UNL     1      -7.450  -3.246 130.093  0.00  0.00    +0.000 HD
ENDBRANCH  18  21
ENDBRANCH  12  15
ENDBRANCH   3  12
TORSDOF 5
ENDMDL
MODEL 5
REMARK VINA RESULT:      -6.9      2.900      7.002
REMARK  Name = Dienestrol
REMARK  7 active torsions:
REMARK  status: ('A' for Active; 'I' for Inactive)
REMARK    1  A    between atoms: C_2  and  C_3
REMARK    2  A    between atoms: C_4  and  C_5
REMARK    3  A    between atoms: C_4  and  C_16
REMARK    4  A    between atoms: C_5  and  C_9
REMARK    5  A    between atoms: C_6  and  C_8
REMARK    6  A    between atoms: C_12  and  O_13
REMARK    7  A    between atoms: C_19  and  O_20
REMARK                            x       y       z     vdW  Elec       q    Type
REMARK                         _______ _______ _______ _____ _____    ______ ____
ROOT
ATOM      1  C   UNL     1      -6.312  -1.951 123.581  0.00  0.00    +0.000 C 
ATOM      2  C   UNL     1      -5.507  -3.189 123.857  0.00  0.00    +0.000 C 
ATOM      3  C   UNL     1      -7.272  -1.368 124.339  0.00  0.00    +0.000 C 
ENDROOT
BRANCH   3   4
ATOM      4  C   UNL     1      -7.502  -1.958 125.706  0.00  0.00    +0.000 A 
ATOM      5  C   UNL     1      -6.741  -1.538 126.815  0.00  0.00    +0.000 A 
ATOM      6  C   UNL     1      -6.925  -2.094 128.083  0.00  0.00    +0.000 A 
ATOM      7  C   UNL     1      -7.956  -3.001 128.277  0.00  0.00    +0.000 A 
ATOM      8  C   UNL     1      -8.755  -3.403 127.216  0.00  0.00    +0.000 A 
ATOM      9  C   UNL     1      -8.495  -2.921 125.929  0.00  0.00    +0.000 A 
BRANCH   7  10
ATOM     10  O   UNL     1      -8.227  -3.518 129.508  0.00  0.00    +0.000 OA
ATOM     11  H   UNL     1      -8.129  -2.812 130.168  0.00  0.00    +0.000 HD
ENDBRANCH   7  10
ENDBRANCH   3   4
BRANCH   3  12
ATOM     12  C   UNL     1      -8.062  -0.181 123.808  0.00  0.00    +0.000 C 
ATOM     13  C   UNL     1      -9.240  -0.360 123.164  0.00  0.00    +0.000 C 
ATOM     14  C   UNL     1     -10.142   0.629 122.474  0.00  0.00    +0.000 C 
BRANCH  12  15
ATOM     15  C   UNL     1      -7.594   1.240 123.957  0.00  0.00    +0.000 A 
ATOM     16  C   UNL     1      -6.871   1.894 122.947  0.00  0.00    +0.000 A 
ATOM     17  C   UNL     1      -6.424   3.209 123.117  0.00  0.00    +0.000 A 
ATOM     18  C   UNL     1      -6.784   3.910 124.262  0.00  0.00    +0.000 A 
ATOM     19  C   UNL     1      -7.527   3.302 125.260  0.00  0.00    +0.000 A 
ATOM     20  C   UNL     1      -7.879   1.959 125.132  0.00  0.00    +0.000 A 
BRANCH  18  21
ATOM     21  O   UNL     1      -6.427   5.211 124.450  0.00  0.00    +0.000 OA
ATOM     22  H   UNL     1      -6.715   5.726 123.680  0.00  0.00    +0.000 HD
ENDBRANCH  18  21
ENDBRANCH  12  15
ENDBRANCH   3  12
TORSDOF 5
ENDMDL
MODEL 6
REMARK VINA RESULT:      -6.9      4.574      7.032
REMARK  Name = Dienestrol
REMARK  7 active torsions:
REMARK  status: ('A' for Active; 'I' for Inactive)
REMARK    1  A    between atoms: C_2  and  C_3
REMARK    2  A    between atoms: C_4  and  C_5
REMARK    3  A    between atoms: C_4  and  C_16
REMARK    4  A    between atoms: C_5  and  C_9
REMARK    5  A    between atoms: C_6  and  C_8
REMARK    6  A    between atoms: C_12  and  O_13
REMARK    7  A    between atoms: C_19  and  O_20
REMARK                            x       y       z     vdW  Elec       q    Type
REMARK                         _______ _______ _______ _____ _____    ______ ____
ROOT
ATOM      1  C   UNL     1      -7.978   0.121 127.055  0.00  0.00    +0.000 C 
ATOM      2  C   UNL     1      -7.915   0.796 128.396  0.00  0.00    +0.000 C 
ATOM      3  C   UNL     1      -7.538  -1.110 126.695  0.00  0.00    +0.000 C 
ENDROOT
BRANCH   3   4
ATOM      4  C   UNL     1      -7.011  -1.987 127.801  0.00  0.00    +0.000 A 
ATOM      5  C   UNL     1      -7.872  -2.834 128.526  0.00  0.00    +0.000 A 
ATOM      6  C   UNL     1      -7.402  -3.634 129.571  0.00  0.00    +0.000 A 
ATOM      7  C   UNL     1      -6.040  -3.678 129.826  0.00  0.00    +0.000 A 
ATOM      8  C   UNL     1      -5.158  -2.890 129.100  0.00  0.00    +0.000 A 
ATOM      9  C   UNL     1      -5.649  -2.013 128.127  0.00  0.00    +0.000 A 
BRANCH   7  10
ATOM     10  O   UNL     1      -5.521  -4.496 130.783  0.00  0.00    +0.000 OA
ATOM     11  H   UNL     1      -4.711  -4.904 130.435  0.00  0.00    +0.000 HD
ENDBRANCH   7  10
ENDBRANCH   3   4
BRANCH   3  12
ATOM     12  C   UNL     1      -7.584  -1.551 125.240  0.00  0.00    +0.000 C 
ATOM     13  C   UNL     1      -8.522  -1.064 124.393  0.00  0.00    +0.000 C 
ATOM     14  C   UNL     1      -8.828  -1.413 122.961  0.00  0.00    +0.000 C 
BRANCH  12  15
ATOM     15  C   UNL     1      -6.612  -2.540 124.660  0.00  0.00    +0.000 A 
ATOM     16  C   UNL     1      -5.389  -2.137 124.100  0.00  0.00    +0.000 A 
ATOM     17  C   UNL     1      -4.509  -3.071 123.542  0.00  0.00    +0.000 A 
ATOM     18  C   UNL     1      -4.806  -4.426 123.632  0.00  0.00    +0.000 A 
ATOM     19  C   UNL     1      -5.989  -4.856 124.210  0.00  0.00    +0.000 A 
ATOM     20  C   UNL     1      -6.910  -3.915 124.668  0.00  0.00    +0.000 A 
BRANCH  18  21
ATOM     21  O   UNL     1      -3.957  -5.381 123.160  0.00  0.00    +0.000 OA
ATOM     22  H   UNL     1      -4.254  -5.652 122.277  0.00  0.00    +0.000 HD
ENDBRANCH  18  21
ENDBRANCH  12  15
ENDBRANCH   3  12
TORSDOF 5
ENDMDL
MODEL 7
REMARK VINA RESULT:      -6.8      3.886      7.875
REMARK  Name = Dienestrol
REMARK  7 active torsions:
REMARK  status: ('A' for Active; 'I' for Inactive)
REMARK    1  A    between atoms: C_2  and  C_3
REMARK    2  A    between atoms: C_4  and  C_5
REMARK    3  A    between atoms: C_4  and  C_16
REMARK    4  A    between atoms: C_5  and  C_9
REMARK    5  A    between atoms: C_6  and  C_8
REMARK    6  A    between atoms: C_12  and  O_13
REMARK    7  A    between atoms: C_19  and  O_20
REMARK                            x       y       z     vdW  Elec       q    Type
REMARK                         _______ _______ _______ _____ _____    ______ ____
ROOT
ATOM      1  C   UNL     1      -5.539  -0.294 127.205  0.00  0.00    +0.000 C 
ATOM      2  C   UNL     1      -5.248   0.429 128.490  0.00  0.00    +0.000 C 
ATOM      3  C   UNL     1      -5.662  -1.625 126.981  0.00  0.00    +0.000 C 
ENDROOT
BRANCH   3   4
ATOM      4  C   UNL     1      -5.620  -2.519 128.193  0.00  0.00    +0.000 A 
ATOM      5  C   UNL     1      -6.805  -2.927 128.834  0.00  0.00    +0.000 A 
ATOM      6  C   UNL     1      -6.780  -3.736 129.973  0.00  0.00    +0.000 A 
ATOM      7  C   UNL     1      -5.566  -4.237 130.417  0.00  0.00    +0.000 A 
ATOM      8  C   UNL     1      -4.382  -3.891 129.781  0.00  0.00    +0.000 A 
ATOM      9  C   UNL     1      -4.406  -2.997 128.706  0.00  0.00    +0.000 A 
BRANCH   7  10
ATOM     10  O   UNL     1      -5.492  -5.088 131.478  0.00  0.00    +0.000 OA
ATOM     11  H   UNL     1      -6.217  -4.882 132.091  0.00  0.00    +0.000 HD
ENDBRANCH   7  10
ENDBRANCH   3   4
BRANCH   3  12
ATOM     12  C   UNL     1      -5.830  -2.157 125.566  0.00  0.00    +0.000 C 
ATOM     13  C   UNL     1      -4.914  -2.995 125.023  0.00  0.00    +0.000 C 
ATOM     14  C   UNL     1      -4.810  -3.568 123.635  0.00  0.00    +0.000 C 
BRANCH  12  15
ATOM     15  C   UNL     1      -7.000  -1.794 124.694  0.00  0.00    +0.000 A 
ATOM     16  C   UNL     1      -8.100  -2.651 124.533  0.00  0.00    +0.000 A 
ATOM     17  C   UNL     1      -9.168  -2.304 123.698  0.00  0.00    +0.000 A 
ATOM     18  C   UNL     1      -9.184  -1.051 123.095  0.00  0.00    +0.000 A 
ATOM     19  C   UNL     1      -8.128  -0.170 123.264  0.00  0.00    +0.000 A 
ATOM     20  C   UNL     1      -7.019  -0.564 124.012  0.00  0.00    +0.000 A 
BRANCH  18  21
ATOM     21  O   UNL     1     -10.226  -0.639 122.321  0.00  0.00    +0.000 OA
ATOM     22  H   UNL     1     -10.910  -1.327 122.330  0.00  0.00    +0.000 HD
ENDBRANCH  18  21
ENDBRANCH  12  15
ENDBRANCH   3  12
TORSDOF 5
ENDMDL
MODEL 8
REMARK VINA RESULT:      -6.8      3.894      6.010
REMARK  Name = Dienestrol
REMARK  7 active torsions:
REMARK  status: ('A' for Active; 'I' for Inactive)
REMARK    1  A    between atoms: C_2  and  C_3
REMARK    2  A    between atoms: C_4  and  C_5
REMARK    3  A    between atoms: C_4  and  C_16
REMARK    4  A    between atoms: C_5  and  C_9
REMARK    5  A    between atoms: C_6  and  C_8
REMARK    6  A    between atoms: C_12  and  O_13
REMARK    7  A    between atoms: C_19  and  O_20
REMARK                            x       y       z     vdW  Elec       q    Type
REMARK                         _______ _______ _______ _____ _____    ______ ____
ROOT
ATOM      1  C   UNL     1      -4.911  -3.006 125.066  0.00  0.00    +0.000 C 
ATOM      2  C   UNL     1      -4.814  -3.542 123.666  0.00  0.00    +0.000 C 
ATOM      3  C   UNL     1      -5.822  -2.152 125.594  0.00  0.00    +0.000 C 
ENDROOT
BRANCH   3   4
ATOM      4  C   UNL     1      -6.974  -1.761 124.705  0.00  0.00    +0.000 A 
ATOM      5  C   UNL     1      -8.075  -2.621 124.526  0.00  0.00    +0.000 A 
ATOM      6  C   UNL     1      -9.138  -2.283 123.685  0.00  0.00    +0.000 A 
ATOM      7  C   UNL     1      -9.162  -1.026 123.100  0.00  0.00    +0.000 A 
ATOM      8  C   UNL     1      -8.114  -0.136 123.293  0.00  0.00    +0.000 A 
ATOM      9  C   UNL     1      -7.004  -0.522 124.050  0.00  0.00    +0.000 A 
BRANCH   7  10
ATOM     10  O   UNL     1     -10.210  -0.618 122.332  0.00  0.00    +0.000 OA
ATOM     11  H   UNL     1     -10.324  -1.250 121.603  0.00  0.00    +0.000 HD
ENDBRANCH   7  10
ENDBRANCH   3   4
BRANCH   3  12
ATOM     12  C   UNL     1      -5.659  -1.630 127.014  0.00  0.00    +0.000 C 
ATOM     13  C   UNL     1      -5.523  -0.304 127.258  0.00  0.00    +0.000 C 
ATOM     14  C   UNL     1      -5.256   0.435 128.542  0.00  0.00    +0.000 C 
BRANCH  12  15
ATOM     15  C   UNL     1      -5.636  -2.533 128.214  0.00  0.00    +0.000 A 
ATOM     16  C   UNL     1      -6.814  -2.952 128.852  0.00  0.00    +0.000 A 
ATOM     17  C   UNL     1      -6.769  -3.774 129.983  0.00  0.00    +0.000 A 
ATOM     18  C   UNL     1      -5.544  -4.262 130.424  0.00  0.00    +0.000 A 
ATOM     19  C   UNL     1      -4.367  -3.894 129.794  0.00  0.00    +0.000 A 
ATOM     20  C   UNL     1      -4.410  -2.990 128.733  0.00  0.00    +0.000 A 
BRANCH  18  21
ATOM     21  O   UNL     1      -5.448  -5.113 131.483  0.00  0.00    +0.000 OA
ATOM     22  H   UNL     1      -5.046  -5.942 131.179  0.00  0.00    +0.000 HD
ENDBRANCH  18  21
ENDBRANCH  12  15
ENDBRANCH   3  12
TORSDOF 5
ENDMDL
MODEL 9
REMARK VINA RESULT:      -6.8      6.286      8.978
REMARK  Name = Dienestrol
REMARK  7 active torsions:
REMARK  status: ('A' for Active; 'I' for Inactive)
REMARK    1  A    between atoms: C_2  and  C_3
REMARK    2  A    between atoms: C_4  and  C_5
REMARK    3  A    between atoms: C_4  and  C_16
REMARK    4  A    between atoms: C_5  and  C_9
REMARK    5  A    between atoms: C_6  and  C_8
REMARK    6  A    between atoms: C_12  and  O_13
REMARK    7  A    between atoms: C_19  and  O_20
REMARK                            x       y       z     vdW  Elec       q    Type
REMARK                         _______ _______ _______ _____ _____    ______ ____
ROOT
ATOM      1  C   UNL     1      -6.946  -1.393 130.695  0.00  0.00    +0.000 C 
ATOM      2  C   UNL     1      -8.253  -0.656 130.769  0.00  0.00    +0.000 C 
ATOM      3  C   UNL     1      -6.518  -2.285 129.770  0.00  0.00    +0.000 C 
ENDROOT
BRANCH   3   4
ATOM      4  C   UNL     1      -7.412  -2.499 128.576  0.00  0.00    +0.000 A 
ATOM      5  C   UNL     1      -8.306  -3.586 128.525  0.00  0.00    +0.000 A 
ATOM      6  C   UNL     1      -9.123  -3.811 127.414  0.00  0.00    +0.000 A 
ATOM      7  C   UNL     1      -9.132  -2.882 126.386  0.00  0.00    +0.000 A 
ATOM      8  C   UNL     1      -8.296  -1.774 126.424  0.00  0.00    +0.000 A 
ATOM      9  C   UNL     1      -7.406  -1.613 127.490  0.00  0.00    +0.000 A 
BRANCH   7  10
ATOM     10  O   UNL     1      -9.963  -3.014 125.314  0.00  0.00    +0.000 OA
ATOM     11  H   UNL     1     -10.833  -2.654 125.551  0.00  0.00    +0.000 HD
ENDBRANCH   7  10
ENDBRANCH   3   4
BRANCH   3  12
ATOM     12  C   UNL     1      -5.199  -3.020 129.957  0.00  0.00    +0.000 C 
ATOM     13  C   UNL     1      -4.315  -3.137 128.937  0.00  0.00    +0.000 C 
ATOM     14  C   UNL     1      -3.012  -3.886 128.849  0.00  0.00    +0.000 C 
BRANCH  12  15
ATOM     15  C   UNL     1      -4.800  -3.654 131.260  0.00  0.00    +0.000 A 
ATOM     16  C   UNL     1      -3.888  -3.042 132.135  0.00  0.00    +0.000 A 
ATOM     17  C   UNL     1      -3.511  -3.661 133.332  0.00  0.00    +0.000 A 
ATOM     18  C   UNL     1      -4.122  -4.852 133.707  0.00  0.00    +0.000 A 
ATOM     19  C   UNL     1      -5.052  -5.461 132.880  0.00  0.00    +0.000 A 
ATOM     20  C   UNL     1      -5.344  -4.894 131.641  0.00  0.00    +0.000 A 
BRANCH  18  21
ATOM     21  O   UNL     1      -3.837  -5.465 134.889  0.00  0.00    +0.000 OA
ATOM     22  H   UNL     1      -3.522  -4.796 135.517  0.00  0.00    +0.000 HD
ENDBRANCH  18  21
ENDBRANCH  12  15
ENDBRANCH   3  12
TORSDOF 5
ENDMDL
