MODEL 1
REMARK VINA RESULT:      -5.4      0.000      0.000
REMARK  Name = Diethylcarbamazine
REMARK  5 active torsions:
REMARK  status: ('A' for Active; 'I' for Inactive)
REMARK    1  A    between atoms: C_1  and  C_2
REMARK    2  A    between atoms: C_2  and  N_3
REMARK    3  A    between atoms: N_3  and  C_4
REMARK    4  A    between atoms: C_4  and  C_5
REMARK    5  A    between atoms: N_11  and  C_12
REMARK                            x       y       z     vdW  Elec       q    Type
REMARK                         _______ _______ _______ _____ _____    ______ ____
ROOT
ATOM      1  N   UNL     1     -12.715   8.579 129.255  0.00  0.00    +0.000 N 
ATOM      2  C   UNL     1     -11.367   8.167 129.073  0.00  0.00    +0.000 C 
ATOM      3  O   UNL     1     -10.806   8.188 127.989  0.00  0.00    +0.000 OA
ATOM      4  N   UNL     1     -10.761   7.599 130.210  0.00  0.00    +0.000 N 
ATOM      5  C   UNL     1      -9.351   7.209 130.046  0.00  0.00    +0.000 C 
ATOM      6  C   UNL     1      -8.699   6.707 131.354  0.00  0.00    +0.000 C 
ATOM      7  N   UNL     1      -9.468   5.662 132.069  0.00  0.00    +0.000 NA
ATOM      8  C   UNL     1      -9.366   4.376 131.380  0.00  0.00    +0.000 C 
ATOM      9  C   UNL     1     -10.880   6.084 132.196  0.00  0.00    +0.000 C 
ATOM     10  C   UNL     1     -11.534   6.558 130.886  0.00  0.00    +0.000 C 
ENDROOT
BRANCH   1  12
ATOM     11  C   UNL     1     -13.503  10.968 129.929  0.00  0.00    +0.000 C 
ATOM     12  C   UNL     1     -12.978   9.589 130.309  0.00  0.00    +0.000 C 
ENDBRANCH   1  12
BRANCH   1  13
ATOM     13  C   UNL     1     -13.568   8.337 128.075  0.00  0.00    +0.000 C 
ATOM     14  C   UNL     1     -13.887   6.925 127.619  0.00  0.00    +0.000 C 
ENDBRANCH   1  13
TORSDOF 2
ENDMDL
MODEL 2
REMARK VINA RESULT:      -5.4      1.616      2.858
REMARK  Name = Diethylcarbamazine
REMARK  5 active torsions:
REMARK  status: ('A' for Active; 'I' for Inactive)
REMARK    1  A    between atoms: C_1  and  C_2
REMARK    2  A    between atoms: C_2  and  N_3
REMARK    3  A    between atoms: N_3  and  C_4
REMARK    4  A    between atoms: C_4  and  C_5
REMARK    5  A    between atoms: N_11  and  C_12
REMARK                            x       y       z     vdW  Elec       q    Type
REMARK                         _______ _______ _______ _____ _____    ______ ____
ROOT
ATOM      1  N   UNL     1     -12.724   8.585 129.674  0.00  0.00    +0.000 N 
ATOM      2  C   UNL     1     -12.602   7.440 130.506  0.00  0.00    +0.000 C 
ATOM      3  O   UNL     1     -13.293   7.261 131.495  0.00  0.00    +0.000 OA
ATOM      4  N   UNL     1     -11.529   6.586 130.186  0.00  0.00    +0.000 N 
ATOM      5  C   UNL     1     -11.420   5.373 131.014  0.00  0.00    +0.000 C 
ATOM      6  C   UNL     1     -10.304   4.411 130.545  0.00  0.00    +0.000 C 
ATOM      7  N   UNL     1      -8.982   5.047 130.343  0.00  0.00    +0.000 NA
ATOM      8  C   UNL     1      -8.348   5.353 131.625  0.00  0.00    +0.000 C 
ATOM      9  C   UNL     1      -9.139   6.269 129.524  0.00  0.00    +0.000 C 
ATOM     10  C   UNL     1     -10.232   7.237 130.010  0.00  0.00    +0.000 C 
ENDROOT
BRANCH   1  12
ATOM     11  C   UNL     1     -13.887   7.288 127.739  0.00  0.00    +0.000 C 
ATOM     12  C   UNL     1     -12.909   8.351 128.221  0.00  0.00    +0.000 C 
ENDBRANCH   1  12
BRANCH   1  13
ATOM     13  C   UNL     1     -13.147   9.798 130.401  0.00  0.00    +0.000 C 
ATOM     14  C   UNL     1     -13.591  11.042 129.653  0.00  0.00    +0.000 C 
ENDBRANCH   1  13
TORSDOF 2
ENDMDL
MODEL 3
REMARK VINA RESULT:      -5.3      1.592      5.304
REMARK  Name = Diethylcarbamazine
REMARK  5 active torsions:
REMARK  status: ('A' for Active; 'I' for Inactive)
REMARK    1  A    between atoms: C_1  and  C_2
REMARK    2  A    between atoms: C_2  and  N_3
REMARK    3  A    between atoms: N_3  and  C_4
REMARK    4  A    between atoms: C_4  and  C_5
REMARK    5  A    between atoms: N_11  and  C_12
REMARK                            x       y       z     vdW  Elec       q    Type
REMARK                         _______ _______ _______ _____ _____    ______ ____
ROOT
ATOM      1  N   UNL     1      -9.777   5.468 131.340  0.00  0.00    +0.000 N 
ATOM      2  C   UNL     1      -9.561   6.580 130.483  0.00  0.00    +0.000 C 
ATOM      3  O   UNL     1      -8.555   7.269 130.529  0.00  0.00    +0.000 OA
ATOM      4  N   UNL     1     -10.655   6.919 129.663  0.00  0.00    +0.000 N 
ATOM      5  C   UNL     1     -10.426   8.042 128.739  0.00  0.00    +0.000 C 
ATOM      6  C   UNL     1     -11.611   8.294 127.778  0.00  0.00    +0.000 C 
ATOM      7  N   UNL     1     -12.933   8.398 128.438  0.00  0.00    +0.000 NA
ATOM      8  C   UNL     1     -13.069   9.676 129.136  0.00  0.00    +0.000 C 
ATOM      9  C   UNL     1     -13.114   7.263 129.370  0.00  0.00    +0.000 C 
ATOM     10  C   UNL     1     -11.944   7.033 130.343  0.00  0.00    +0.000 C 
ENDROOT
BRANCH   1  12
ATOM     11  C   UNL     1      -9.073   3.416 129.899  0.00  0.00    +0.000 C 
ATOM     12  C   UNL     1     -10.123   4.175 130.700  0.00  0.00    +0.000 C 
ENDBRANCH   1  12
BRANCH   1  13
ATOM     13  C   UNL     1      -9.152   5.619 132.669  0.00  0.00    +0.000 C 
ATOM     14  C   UNL     1      -8.958   4.422 133.582  0.00  0.00    +0.000 C 
ENDBRANCH   1  13
TORSDOF 2
ENDMDL
MODEL 4
REMARK VINA RESULT:      -5.3      1.847      2.919
REMARK  Name = Diethylcarbamazine
REMARK  5 active torsions:
REMARK  status: ('A' for Active; 'I' for Inactive)
REMARK    1  A    between atoms: C_1  and  C_2
REMARK    2  A    between atoms: C_2  and  N_3
REMARK    3  A    between atoms: N_3  and  C_4
REMARK    4  A    between atoms: C_4  and  C_5
REMARK    5  A    between atoms: N_11  and  C_12
REMARK                            x       y       z     vdW  Elec       q    Type
REMARK                         _______ _______ _______ _____ _____    ______ ____
ROOT
ATOM      1  N   UNL     1     -11.268   7.738 129.220  0.00  0.00    +0.000 N 
ATOM      2  C   UNL     1     -11.029   6.372 129.530  0.00  0.00    +0.000 C 
ATOM      3  O   UNL     1     -11.923   5.549 129.642  0.00  0.00    +0.000 OA
ATOM      4  N   UNL     1      -9.690   6.058 129.835  0.00  0.00    +0.000 N 
ATOM      5  C   UNL     1      -9.423   4.637 130.114  0.00  0.00    +0.000 C 
ATOM      6  C   UNL     1      -7.923   4.326 130.321  0.00  0.00    +0.000 C 
ATOM      7  N   UNL     1      -7.237   5.206 131.295  0.00  0.00    +0.000 NA
ATOM      8  C   UNL     1      -7.622   4.868 132.666  0.00  0.00    +0.000 C 
ATOM      9  C   UNL     1      -7.546   6.620 130.991  0.00  0.00    +0.000 C 
ATOM     10  C   UNL     1      -9.042   6.931 130.812  0.00  0.00    +0.000 C 
ENDROOT
BRANCH   1  12
ATOM     11  C   UNL     1     -10.867   7.889 126.652  0.00  0.00    +0.000 C 
ATOM     12  C   UNL     1     -10.524   8.313 128.074  0.00  0.00    +0.000 C 
ENDBRANCH   1  12
BRANCH   1  13
ATOM     13  C   UNL     1     -12.555   8.242 129.739  0.00  0.00    +0.000 C 
ATOM     14  C   UNL     1     -13.074   9.612 129.342  0.00  0.00    +0.000 C 
ENDBRANCH   1  13
TORSDOF 2
ENDMDL
MODEL 5
REMARK VINA RESULT:      -5.2      9.356     11.422
REMARK  Name = Diethylcarbamazine
REMARK  5 active torsions:
REMARK  status: ('A' for Active; 'I' for Inactive)
REMARK    1  A    between atoms: C_1  and  C_2
REMARK    2  A    between atoms: C_2  and  N_3
REMARK    3  A    between atoms: N_3  and  C_4
REMARK    4  A    between atoms: C_4  and  C_5
REMARK    5  A    between atoms: N_11  and  C_12
REMARK                            x       y       z     vdW  Elec       q    Type
REMARK                         _______ _______ _______ _____ _____    ______ ____
ROOT
ATOM      1  N   UNL     1      -7.913  -2.762 124.620  0.00  0.00    +0.000 N 
ATOM      2  C   UNL     1      -8.378  -1.823 123.661  0.00  0.00    +0.000 C 
ATOM      3  O   UNL     1      -8.199  -1.954 122.461  0.00  0.00    +0.000 OA
ATOM      4  N   UNL     1      -8.948  -0.654 124.201  0.00  0.00    +0.000 N 
ATOM      5  C   UNL     1      -9.475   0.305 123.216  0.00  0.00    +0.000 C 
ATOM      6  C   UNL     1     -10.198   1.510 123.862  0.00  0.00    +0.000 C 
ATOM      7  N   UNL     1      -9.429   2.196 124.926  0.00  0.00    +0.000 NA
ATOM      8  C   UNL     1      -8.346   2.996 124.354  0.00  0.00    +0.000 C 
ATOM      9  C   UNL     1      -8.903   1.197 125.882  0.00  0.00    +0.000 C 
ATOM     10  C   UNL     1      -8.161   0.013 125.237  0.00  0.00    +0.000 C 
ENDROOT
BRANCH   1  12
ATOM     11  C   UNL     1      -8.599  -3.277 127.079  0.00  0.00    +0.000 C 
ATOM     12  C   UNL     1      -8.904  -3.293 125.586  0.00  0.00    +0.000 C 
ENDBRANCH   1  12
BRANCH   1  13
ATOM     13  C   UNL     1      -6.665  -3.441 124.220  0.00  0.00    +0.000 C 
ATOM     14  C   UNL     1      -5.326  -2.732 124.310  0.00  0.00    +0.000 C 
ENDBRANCH   1  13
TORSDOF 2
ENDMDL
MODEL 6
REMARK VINA RESULT:      -5.1      1.825      2.453
REMARK  Name = Diethylcarbamazine
REMARK  5 active torsions:
REMARK  status: ('A' for Active; 'I' for Inactive)
REMARK    1  A    between atoms: C_1  and  C_2
REMARK    2  A    between atoms: C_2  and  N_3
REMARK    3  A    between atoms: N_3  and  C_4
REMARK    4  A    between atoms: C_4  and  C_5
REMARK    5  A    between atoms: N_11  and  C_12
REMARK                            x       y       z     vdW  Elec       q    Type
REMARK                         _______ _______ _______ _____ _____    ______ ____
ROOT
ATOM      1  N   UNL     1     -10.885   7.715 129.307  0.00  0.00    +0.000 N 
ATOM      2  C   UNL     1      -9.760   7.218 130.018  0.00  0.00    +0.000 C 
ATOM      3  O   UNL     1      -8.663   7.751 129.984  0.00  0.00    +0.000 OA
ATOM      4  N   UNL     1      -9.963   5.981 130.661  0.00  0.00    +0.000 N 
ATOM      5  C   UNL     1      -8.818   5.478 131.438  0.00  0.00    +0.000 C 
ATOM      6  C   UNL     1      -9.133   4.183 132.222  0.00  0.00    +0.000 C 
ATOM      7  N   UNL     1      -9.754   3.107 131.418  0.00  0.00    +0.000 NA
ATOM      8  C   UNL     1      -8.770   2.479 130.537  0.00  0.00    +0.000 C 
ATOM      9  C   UNL     1     -10.886   3.657 130.640  0.00  0.00    +0.000 C 
ATOM     10  C   UNL     1     -10.561   4.931 129.839  0.00  0.00    +0.000 C 
ENDROOT
BRANCH   1  12
ATOM     11  C   UNL     1     -12.925   9.229 129.879  0.00  0.00    +0.000 C 
ATOM     12  C   UNL     1     -12.128   7.946 130.082  0.00  0.00    +0.000 C 
ENDBRANCH   1  12
BRANCH   1  13
ATOM     13  C   UNL     1     -10.530   8.393 128.045  0.00  0.00    +0.000 C 
ATOM     14  C   UNL     1     -10.958   7.822 126.705  0.00  0.00    +0.000 C 
ENDBRANCH   1  13
TORSDOF 2
ENDMDL
MODEL 7
REMARK VINA RESULT:      -4.9      9.242     11.229
REMARK  Name = Diethylcarbamazine
REMARK  5 active torsions:
REMARK  status: ('A' for Active; 'I' for Inactive)
REMARK    1  A    between atoms: C_1  and  C_2
REMARK    2  A    between atoms: C_2  and  N_3
REMARK    3  A    between atoms: N_3  and  C_4
REMARK    4  A    between atoms: C_4  and  C_5
REMARK    5  A    between atoms: N_11  and  C_12
REMARK                            x       y       z     vdW  Elec       q    Type
REMARK                         _______ _______ _______ _____ _____    ______ ____
ROOT
ATOM      1  N   UNL     1      -7.972  -2.219 125.024  0.00  0.00    +0.000 N 
ATOM      2  C   UNL     1      -8.743  -1.055 125.286  0.00  0.00    +0.000 C 
ATOM      3  O   UNL     1      -9.873  -1.096 125.747  0.00  0.00    +0.000 OA
ATOM      4  N   UNL     1      -8.164   0.152 124.849  0.00  0.00    +0.000 N 
ATOM      5  C   UNL     1      -8.934   1.369 125.157  0.00  0.00    +0.000 C 
ATOM      6  C   UNL     1      -8.199   2.672 124.767  0.00  0.00    +0.000 C 
ATOM      7  N   UNL     1      -7.677   2.698 123.381  0.00  0.00    +0.000 NA
ATOM      8  C   UNL     1      -8.764   2.879 122.418  0.00  0.00    +0.000 C 
ATOM      9  C   UNL     1      -6.928   1.453 123.108  0.00  0.00    +0.000 C 
ATOM     10  C   UNL     1      -7.674   0.157 123.473  0.00  0.00    +0.000 C 
ENDROOT
BRANCH   1  12
ATOM     11  C   UNL     1      -5.442  -2.781 124.769  0.00  0.00    +0.000 C 
ATOM     12  C   UNL     1      -6.610  -2.276 125.607  0.00  0.00    +0.000 C 
ENDBRANCH   1  12
BRANCH   1  13
ATOM     13  C   UNL     1      -8.787  -3.391 124.647  0.00  0.00    +0.000 C 
ATOM     14  C   UNL     1      -9.576  -3.409 123.350  0.00  0.00    +0.000 C 
ENDBRANCH   1  13
TORSDOF 2
ENDMDL
MODEL 8
REMARK VINA RESULT:      -4.8      1.709      5.370
REMARK  Name = Diethylcarbamazine
REMARK  5 active torsions:
REMARK  status: ('A' for Active; 'I' for Inactive)
REMARK    1  A    between atoms: C_1  and  C_2
REMARK    2  A    between atoms: C_2  and  N_3
REMARK    3  A    between atoms: N_3  and  C_4
REMARK    4  A    between atoms: C_4  and  C_5
REMARK    5  A    between atoms: N_11  and  C_12
REMARK                            x       y       z     vdW  Elec       q    Type
REMARK                         _______ _______ _______ _____ _____    ______ ____
ROOT
ATOM      1  N   UNL     1      -8.998   4.843 130.921  0.00  0.00    +0.000 N 
ATOM      2  C   UNL     1      -9.602   5.372 129.749  0.00  0.00    +0.000 C 
ATOM      3  O   UNL     1      -9.006   5.492 128.690  0.00  0.00    +0.000 OA
ATOM      4  N   UNL     1     -10.904   5.878 129.928  0.00  0.00    +0.000 N 
ATOM      5  C   UNL     1     -11.557   6.387 128.711  0.00  0.00    +0.000 C 
ATOM      6  C   UNL     1     -13.025   6.816 128.938  0.00  0.00    +0.000 C 
ATOM      7  N   UNL     1     -13.233   7.729 130.085  0.00  0.00    +0.000 NA
ATOM      8  C   UNL     1     -12.760   9.078 129.772  0.00  0.00    +0.000 C 
ATOM      9  C   UNL     1     -12.547   7.191 131.280  0.00  0.00    +0.000 C 
ATOM     10  C   UNL     1     -11.078   6.790 131.057  0.00  0.00    +0.000 C 
ENDROOT
BRANCH   1  12
ATOM     11  C   UNL     1      -9.180   3.198 132.931  0.00  0.00    +0.000 C 
ATOM     12  C   UNL     1      -9.697   3.724 131.598  0.00  0.00    +0.000 C 
ENDBRANCH   1  12
BRANCH   1  13
ATOM     13  C   UNL     1      -7.552   5.126 131.016  0.00  0.00    +0.000 C 
ATOM     14  C   UNL     1      -7.051   6.471 131.510  0.00  0.00    +0.000 C 
ENDBRANCH   1  13
TORSDOF 2
ENDMDL
MODEL 9
REMARK VINA RESULT:      -4.8      8.756     10.899
REMARK  Name = Diethylcarbamazine
REMARK  5 active torsions:
REMARK  status: ('A' for Active; 'I' for Inactive)
REMARK    1  A    between atoms: C_1  and  C_2
REMARK    2  A    between atoms: C_2  and  N_3
REMARK    3  A    between atoms: N_3  and  C_4
REMARK    4  A    between atoms: C_4  and  C_5
REMARK    5  A    between atoms: N_11  and  C_12
REMARK                            x       y       z     vdW  Elec       q    Type
REMARK                         _______ _______ _______ _____ _____    ______ ____
ROOT
ATOM      1  N   UNL     1      -8.487  -2.117 126.245  0.00  0.00    +0.000 N 
ATOM      2  C   UNL     1      -7.536  -1.244 125.651  0.00  0.00    +0.000 C 
ATOM      3  O   UNL     1      -6.340  -1.305 125.886  0.00  0.00    +0.000 OA
ATOM      4  N   UNL     1      -8.087  -0.209 124.870  0.00  0.00    +0.000 N 
ATOM      5  C   UNL     1      -7.109   0.673 124.212  0.00  0.00    +0.000 C 
ATOM      6  C   UNL     1      -7.760   1.713 123.271  0.00  0.00    +0.000 C 
ATOM      7  N   UNL     1      -8.866   2.489 123.877  0.00  0.00    +0.000 NA
ATOM      8  C   UNL     1      -8.353   3.483 124.819  0.00  0.00    +0.000 C 
ATOM      9  C   UNL     1      -9.814   1.568 124.541  0.00  0.00    +0.000 C 
ATOM     10  C   UNL     1      -9.165   0.552 125.498  0.00  0.00    +0.000 C 
ENDROOT
BRANCH   1  12
ATOM     11  C   UNL     1      -8.852  -3.560 124.109  0.00  0.00    +0.000 C 
ATOM     12  C   UNL     1      -9.404  -2.843 125.334  0.00  0.00    +0.000 C 
ENDBRANCH   1  12
BRANCH   1  13
ATOM     13  C   UNL     1      -8.112  -2.556 127.604  0.00  0.00    +0.000 C 
ATOM     14  C   UNL     1      -8.728  -3.800 128.220  0.00  0.00    +0.000 C 
ENDBRANCH   1  13
TORSDOF 2
ENDMDL
