MODEL 1
REMARK VINA RESULT:      -5.9      0.000      0.000
REMARK  Name = Diethyltoluamide
REMARK  6 active torsions:
REMARK  status: ('A' for Active; 'I' for Inactive)
REMARK    1  A    between atoms: C_1  and  C_2
REMARK    2  A    between atoms: C_2  and  N_3
REMARK    3  A    between atoms: N_3  and  C_4
REMARK    4  A    between atoms: C_4  and  C_5
REMARK    5  A    between atoms: C_6  and  C_8
REMARK    6  A    between atoms: C_10  and  C_11
REMARK                            x       y       z     vdW  Elec       q    Type
REMARK                         _______ _______ _______ _____ _____    ______ ____
ROOT
ATOM      1  N   UNL     1     -12.391   8.442 129.772  0.00  0.00    +0.000 N 
ATOM      2  C   UNL     1     -12.384   7.338 130.690  0.00  0.00    +0.000 C 
ATOM      3  O   UNL     1     -13.265   7.169 131.519  0.00  0.00    +0.000 OA
ENDROOT
BRANCH   2   4
ATOM      4  C   UNL     1     -11.175   6.430 130.732  0.00  0.00    +0.000 A 
ATOM      5  C   UNL     1      -9.889   6.947 130.985  0.00  0.00    +0.000 A 
ATOM      6  C   UNL     1      -8.755   6.106 130.946  0.00  0.00    +0.000 A 
ATOM      7  C   UNL     1      -7.366   6.633 131.156  0.00  0.00    +0.000 C 
ATOM      8  C   UNL     1      -8.916   4.739 130.695  0.00  0.00    +0.000 A 
ATOM      9  C   UNL     1     -10.175   4.225 130.432  0.00  0.00    +0.000 A 
ATOM     10  C   UNL     1     -11.268   5.082 130.382  0.00  0.00    +0.000 A 
ENDBRANCH   2   4
BRANCH   1  12
ATOM     11  C   UNL     1     -10.838   8.346 127.682  0.00  0.00    +0.000 C 
ATOM     12  C   UNL     1     -12.199   8.165 128.322  0.00  0.00    +0.000 C 
ENDBRANCH   1  12
BRANCH   1  13
ATOM     13  C   UNL     1     -13.081   9.642 130.306  0.00  0.00    +0.000 C 
ATOM     14  C   UNL     1     -13.563  10.721 129.351  0.00  0.00    +0.000 C 
ENDBRANCH   1  13
TORSDOF 3
ENDMDL
MODEL 2
REMARK VINA RESULT:      -5.8      2.525      5.267
REMARK  Name = Diethyltoluamide
REMARK  6 active torsions:
REMARK  status: ('A' for Active; 'I' for Inactive)
REMARK    1  A    between atoms: C_1  and  C_2
REMARK    2  A    between atoms: C_2  and  N_3
REMARK    3  A    between atoms: N_3  and  C_4
REMARK    4  A    between atoms: C_4  and  C_5
REMARK    5  A    between atoms: C_6  and  C_8
REMARK    6  A    between atoms: C_10  and  C_11
REMARK                            x       y       z     vdW  Elec       q    Type
REMARK                         _______ _______ _______ _____ _____    ______ ____
ROOT
ATOM      1  N   UNL     1      -9.643   4.277 132.258  0.00  0.00    +0.000 N 
ATOM      2  C   UNL     1      -9.537   5.705 132.147  0.00  0.00    +0.000 C 
ATOM      3  O   UNL     1      -8.733   6.355 132.799  0.00  0.00    +0.000 OA
ENDROOT
BRANCH   2   4
ATOM      4  C   UNL     1     -10.547   6.451 131.304  0.00  0.00    +0.000 A 
ATOM      5  C   UNL     1     -10.165   7.073 130.099  0.00  0.00    +0.000 A 
ATOM      6  C   UNL     1     -11.096   7.834 129.356  0.00  0.00    +0.000 A 
ATOM      7  C   UNL     1     -10.710   8.555 128.098  0.00  0.00    +0.000 C 
ATOM      8  C   UNL     1     -12.419   7.934 129.801  0.00  0.00    +0.000 A 
ATOM      9  C   UNL     1     -12.798   7.337 130.991  0.00  0.00    +0.000 A 
ATOM     10  C   UNL     1     -11.849   6.671 131.756  0.00  0.00    +0.000 A 
ENDBRANCH   2   4
BRANCH   1  12
ATOM     11  C   UNL     1      -8.488   3.610 130.020  0.00  0.00    +0.000 C 
ATOM     12  C   UNL     1      -9.623   3.463 131.012  0.00  0.00    +0.000 C 
ENDBRANCH   1  12
BRANCH   1  13
ATOM     13  C   UNL     1      -9.257   3.764 133.594  0.00  0.00    +0.000 C 
ATOM     14  C   UNL     1      -7.952   3.005 133.761  0.00  0.00    +0.000 C 
ENDBRANCH   1  13
TORSDOF 3
ENDMDL
MODEL 3
REMARK VINA RESULT:      -5.6      9.774     11.201
REMARK  Name = Diethyltoluamide
REMARK  6 active torsions:
REMARK  status: ('A' for Active; 'I' for Inactive)
REMARK    1  A    between atoms: C_1  and  C_2
REMARK    2  A    between atoms: C_2  and  N_3
REMARK    3  A    between atoms: N_3  and  C_4
REMARK    4  A    between atoms: C_4  and  C_5
REMARK    5  A    between atoms: C_6  and  C_8
REMARK    6  A    between atoms: C_10  and  C_11
REMARK                            x       y       z     vdW  Elec       q    Type
REMARK                         _______ _______ _______ _____ _____    ______ ____
ROOT
ATOM      1  N   UNL     1      -7.185  -2.035 124.280  0.00  0.00    +0.000 N 
ATOM      2  C   UNL     1      -8.432  -2.231 124.965  0.00  0.00    +0.000 C 
ATOM      3  O   UNL     1      -9.513  -2.083 124.414  0.00  0.00    +0.000 OA
ENDROOT
BRANCH   2   4
ATOM      4  C   UNL     1      -8.415  -2.492 126.454  0.00  0.00    +0.000 A 
ATOM      5  C   UNL     1      -7.798  -1.588 127.341  0.00  0.00    +0.000 A 
ATOM      6  C   UNL     1      -7.717  -1.876 128.721  0.00  0.00    +0.000 A 
ATOM      7  C   UNL     1      -7.020  -0.962 129.686  0.00  0.00    +0.000 C 
ATOM      8  C   UNL     1      -8.294  -3.050 129.218  0.00  0.00    +0.000 A 
ATOM      9  C   UNL     1      -8.890  -3.950 128.352  0.00  0.00    +0.000 A 
ATOM     10  C   UNL     1      -8.879  -3.697 126.985  0.00  0.00    +0.000 A 
ENDBRANCH   2   4
BRANCH   1  12
ATOM     11  C   UNL     1      -4.962  -3.089 123.424  0.00  0.00    +0.000 C 
ATOM     12  C   UNL     1      -6.149  -3.099 124.365  0.00  0.00    +0.000 C 
ENDBRANCH   1  12
BRANCH   1  13
ATOM     13  C   UNL     1      -7.274  -1.045 123.178  0.00  0.00    +0.000 C 
ATOM     14  C   UNL     1      -7.114   0.435 123.481  0.00  0.00    +0.000 C 
ENDBRANCH   1  13
TORSDOF 3
ENDMDL
MODEL 4
REMARK VINA RESULT:      -5.4      2.143      5.067
REMARK  Name = Diethyltoluamide
REMARK  6 active torsions:
REMARK  status: ('A' for Active; 'I' for Inactive)
REMARK    1  A    between atoms: C_1  and  C_2
REMARK    2  A    between atoms: C_2  and  N_3
REMARK    3  A    between atoms: N_3  and  C_4
REMARK    4  A    between atoms: C_4  and  C_5
REMARK    5  A    between atoms: C_6  and  C_8
REMARK    6  A    between atoms: C_10  and  C_11
REMARK                            x       y       z     vdW  Elec       q    Type
REMARK                         _______ _______ _______ _____ _____    ______ ____
ROOT
ATOM      1  N   UNL     1      -9.230   4.730 130.211  0.00  0.00    +0.000 N 
ATOM      2  C   UNL     1     -10.659   4.618 130.292  0.00  0.00    +0.000 C 
ATOM      3  O   UNL     1     -11.239   3.548 130.185  0.00  0.00    +0.000 OA
ENDROOT
BRANCH   2   4
ATOM      4  C   UNL     1     -11.489   5.880 130.368  0.00  0.00    +0.000 A 
ATOM      5  C   UNL     1     -11.751   6.646 129.215  0.00  0.00    +0.000 A 
ATOM      6  C   UNL     1     -12.460   7.864 129.306  0.00  0.00    +0.000 A 
ATOM      7  C   UNL     1     -12.710   8.731 128.107  0.00  0.00    +0.000 C 
ATOM      8  C   UNL     1     -12.943   8.292 130.548  0.00  0.00    +0.000 A 
ATOM      9  C   UNL     1     -12.678   7.553 131.688  0.00  0.00    +0.000 A 
ATOM     10  C   UNL     1     -11.899   6.406 131.595  0.00  0.00    +0.000 A 
ENDBRANCH   2   4
BRANCH   1  12
ATOM     11  C   UNL     1      -8.010   6.881 131.035  0.00  0.00    +0.000 C 
ATOM     12  C   UNL     1      -8.511   5.472 131.283  0.00  0.00    +0.000 C 
ENDBRANCH   1  12
BRANCH   1  13
ATOM     13  C   UNL     1      -8.608   3.685 129.363  0.00  0.00    +0.000 C 
ATOM     14  C   UNL     1      -7.857   4.085 128.104  0.00  0.00    +0.000 C 
ENDBRANCH   1  13
TORSDOF 3
ENDMDL
MODEL 5
REMARK VINA RESULT:      -5.3      9.529     11.465
REMARK  Name = Diethyltoluamide
REMARK  6 active torsions:
REMARK  status: ('A' for Active; 'I' for Inactive)
REMARK    1  A    between atoms: C_1  and  C_2
REMARK    2  A    between atoms: C_2  and  N_3
REMARK    3  A    between atoms: N_3  and  C_4
REMARK    4  A    between atoms: C_4  and  C_5
REMARK    5  A    between atoms: C_6  and  C_8
REMARK    6  A    between atoms: C_10  and  C_11
REMARK                            x       y       z     vdW  Elec       q    Type
REMARK                         _______ _______ _______ _____ _____    ______ ____
ROOT
ATOM      1  N   UNL     1      -7.496  -1.071 127.234  0.00  0.00    +0.000 N 
ATOM      2  C   UNL     1      -6.241  -0.930 126.549  0.00  0.00    +0.000 C 
ATOM      3  O   UNL     1      -5.341  -0.219 126.971  0.00  0.00    +0.000 OA
ENDROOT
BRANCH   2   4
ATOM      4  C   UNL     1      -6.074  -1.570 125.189  0.00  0.00    +0.000 A 
ATOM      5  C   UNL     1      -5.305  -2.738 125.027  0.00  0.00    +0.000 A 
ATOM      6  C   UNL     1      -5.089  -3.286 123.743  0.00  0.00    +0.000 A 
ATOM      7  C   UNL     1      -4.230  -4.498 123.528  0.00  0.00    +0.000 C 
ATOM      8  C   UNL     1      -5.681  -2.685 122.627  0.00  0.00    +0.000 A 
ATOM      9  C   UNL     1      -6.427  -1.528 122.775  0.00  0.00    +0.000 A 
ATOM     10  C   UNL     1      -6.552  -0.950 124.033  0.00  0.00    +0.000 A 
ENDBRANCH   2   4
BRANCH   1  12
ATOM     11  C   UNL     1      -9.046  -3.063 126.588  0.00  0.00    +0.000 C 
ATOM     12  C   UNL     1      -8.012  -2.440 127.503  0.00  0.00    +0.000 C 
ENDBRANCH   1  12
BRANCH   1  13
ATOM     13  C   UNL     1      -7.870   0.130 128.021  0.00  0.00    +0.000 C 
ATOM     14  C   UNL     1      -8.547   1.302 127.330  0.00  0.00    +0.000 C 
ENDBRANCH   1  13
TORSDOF 3
ENDMDL
MODEL 6
REMARK VINA RESULT:      -5.3      2.279      3.633
REMARK  Name = Diethyltoluamide
REMARK  6 active torsions:
REMARK  status: ('A' for Active; 'I' for Inactive)
REMARK    1  A    between atoms: C_1  and  C_2
REMARK    2  A    between atoms: C_2  and  N_3
REMARK    3  A    between atoms: N_3  and  C_4
REMARK    4  A    between atoms: C_4  and  C_5
REMARK    5  A    between atoms: C_6  and  C_8
REMARK    6  A    between atoms: C_10  and  C_11
REMARK                            x       y       z     vdW  Elec       q    Type
REMARK                         _______ _______ _______ _____ _____    ______ ____
ROOT
ATOM      1  N   UNL     1     -10.663   6.460 129.674  0.00  0.00    +0.000 N 
ATOM      2  C   UNL     1      -9.524   6.517 130.547  0.00  0.00    +0.000 C 
ATOM      3  O   UNL     1      -8.656   7.370 130.437  0.00  0.00    +0.000 OA
ENDROOT
BRANCH   2   4
ATOM      4  C   UNL     1      -9.312   5.403 131.547  0.00  0.00    +0.000 A 
ATOM      5  C   UNL     1      -9.624   4.068 131.221  0.00  0.00    +0.000 A 
ATOM      6  C   UNL     1      -9.497   3.044 132.186  0.00  0.00    +0.000 A 
ATOM      7  C   UNL     1      -9.871   1.621 131.890  0.00  0.00    +0.000 C 
ATOM      8  C   UNL     1      -9.018   3.352 133.464  0.00  0.00    +0.000 A 
ATOM      9  C   UNL     1      -8.723   4.663 133.796  0.00  0.00    +0.000 A 
ATOM     10  C   UNL     1      -8.941   5.672 132.866  0.00  0.00    +0.000 A 
ENDBRANCH   2   4
BRANCH   1  12
ATOM     11  C   UNL     1     -12.673   7.587 130.890  0.00  0.00    +0.000 C 
ATOM     12  C   UNL     1     -12.020   6.365 130.278  0.00  0.00    +0.000 C 
ENDBRANCH   1  12
BRANCH   1  13
ATOM     13  C   UNL     1     -10.390   7.002 128.321  0.00  0.00    +0.000 C 
ATOM     14  C   UNL     1     -10.754   8.442 128.000  0.00  0.00    +0.000 C 
ENDBRANCH   1  13
TORSDOF 3
ENDMDL
MODEL 7
REMARK VINA RESULT:      -5.3     10.628     11.734
REMARK  Name = Diethyltoluamide
REMARK  6 active torsions:
REMARK  status: ('A' for Active; 'I' for Inactive)
REMARK    1  A    between atoms: C_1  and  C_2
REMARK    2  A    between atoms: C_2  and  N_3
REMARK    3  A    between atoms: N_3  and  C_4
REMARK    4  A    between atoms: C_4  and  C_5
REMARK    5  A    between atoms: C_6  and  C_8
REMARK    6  A    between atoms: C_10  and  C_11
REMARK                            x       y       z     vdW  Elec       q    Type
REMARK                         _______ _______ _______ _____ _____    ______ ____
ROOT
ATOM      1  N   UNL     1      -6.901  -2.226 124.432  0.00  0.00    +0.000 N 
ATOM      2  C   UNL     1      -6.516  -1.888 125.773  0.00  0.00    +0.000 C 
ATOM      3  O   UNL     1      -5.493  -1.269 126.025  0.00  0.00    +0.000 OA
ENDROOT
BRANCH   2   4
ATOM      4  C   UNL     1      -7.325  -2.437 126.927  0.00  0.00    +0.000 A 
ATOM      5  C   UNL     1      -7.061  -2.038 128.252  0.00  0.00    +0.000 A 
ATOM      6  C   UNL     1      -7.768  -2.613 129.331  0.00  0.00    +0.000 A 
ATOM      7  C   UNL     1      -7.475  -2.252 130.758  0.00  0.00    +0.000 C 
ATOM      8  C   UNL     1      -8.770  -3.557 129.077  0.00  0.00    +0.000 A 
ATOM      9  C   UNL     1      -9.026  -3.965 127.779  0.00  0.00    +0.000 A 
ATOM     10  C   UNL     1      -8.258  -3.458 126.738  0.00  0.00    +0.000 A 
ENDBRANCH   2   4
BRANCH   1  12
ATOM     11  C   UNL     1      -9.117  -2.939 123.261  0.00  0.00    +0.000 C 
ATOM     12  C   UNL     1      -8.282  -1.901 123.983  0.00  0.00    +0.000 C 
ENDBRANCH   1  12
BRANCH   1  13
ATOM     13  C   UNL     1      -5.746  -2.391 123.516  0.00  0.00    +0.000 C 
ATOM     14  C   UNL     1      -4.881  -3.636 123.614  0.00  0.00    +0.000 C 
ENDBRANCH   1  13
TORSDOF 3
ENDMDL
MODEL 8
REMARK VINA RESULT:      -5.3      2.228      5.228
REMARK  Name = Diethyltoluamide
REMARK  6 active torsions:
REMARK  status: ('A' for Active; 'I' for Inactive)
REMARK    1  A    between atoms: C_1  and  C_2
REMARK    2  A    between atoms: C_2  and  N_3
REMARK    3  A    between atoms: N_3  and  C_4
REMARK    4  A    between atoms: C_4  and  C_5
REMARK    5  A    between atoms: C_6  and  C_8
REMARK    6  A    between atoms: C_10  and  C_11
REMARK                            x       y       z     vdW  Elec       q    Type
REMARK                         _______ _______ _______ _____ _____    ______ ____
ROOT
ATOM      1  N   UNL     1      -9.314   4.960 130.997  0.00  0.00    +0.000 N 
ATOM      2  C   UNL     1     -10.090   6.138 131.268  0.00  0.00    +0.000 C 
ATOM      3  O   UNL     1     -10.378   6.485 132.403  0.00  0.00    +0.000 OA
ENDROOT
BRANCH   2   4
ATOM      4  C   UNL     1     -10.693   6.899 130.109  0.00  0.00    +0.000 A 
ATOM      5  C   UNL     1     -11.996   6.616 129.656  0.00  0.00    +0.000 A 
ATOM      6  C   UNL     1     -12.524   7.276 128.524  0.00  0.00    +0.000 A 
ATOM      7  C   UNL     1     -13.887   6.960 127.982  0.00  0.00    +0.000 C 
ATOM      8  C   UNL     1     -11.760   8.251 127.873  0.00  0.00    +0.000 A 
ATOM      9  C   UNL     1     -10.473   8.526 128.304  0.00  0.00    +0.000 A 
ATOM     10  C   UNL     1      -9.935   7.801 129.360  0.00  0.00    +0.000 A 
ENDBRANCH   2   4
BRANCH   1  12
ATOM     11  C   UNL     1      -6.746   5.253 130.669  0.00  0.00    +0.000 C 
ATOM     12  C   UNL     1      -8.136   5.074 130.095  0.00  0.00    +0.000 C 
ENDBRANCH   1  12
BRANCH   1  13
ATOM     13  C   UNL     1      -9.474   3.904 132.026  0.00  0.00    +0.000 C 
ATOM     14  C   UNL     1      -9.853   2.494 131.606  0.00  0.00    +0.000 C 
ENDBRANCH   1  13
TORSDOF 3
ENDMDL
MODEL 9
REMARK VINA RESULT:      -5.2      9.402     11.082
REMARK  Name = Diethyltoluamide
REMARK  6 active torsions:
REMARK  status: ('A' for Active; 'I' for Inactive)
REMARK    1  A    between atoms: C_1  and  C_2
REMARK    2  A    between atoms: C_2  and  N_3
REMARK    3  A    between atoms: N_3  and  C_4
REMARK    4  A    between atoms: C_4  and  C_5
REMARK    5  A    between atoms: C_6  and  C_8
REMARK    6  A    between atoms: C_10  and  C_11
REMARK                            x       y       z     vdW  Elec       q    Type
REMARK                         _______ _______ _______ _____ _____    ______ ____
ROOT
ATOM      1  N   UNL     1      -8.137  -2.711 124.381  0.00  0.00    +0.000 N 
ATOM      2  C   UNL     1      -8.913  -2.701 125.589  0.00  0.00    +0.000 C 
ATOM      3  O   UNL     1     -10.091  -3.025 125.613  0.00  0.00    +0.000 OA
ENDROOT
BRANCH   2   4
ATOM      4  C   UNL     1      -8.298  -2.137 126.850  0.00  0.00    +0.000 A 
ATOM      5  C   UNL     1      -8.151  -2.933 128.003  0.00  0.00    +0.000 A 
ATOM      6  C   UNL     1      -7.647  -2.378 129.200  0.00  0.00    +0.000 A 
ATOM      7  C   UNL     1      -7.529  -3.183 130.462  0.00  0.00    +0.000 C 
ATOM      8  C   UNL     1      -7.251  -1.037 129.228  0.00  0.00    +0.000 A 
ATOM      9  C   UNL     1      -7.405  -0.244 128.104  0.00  0.00    +0.000 A 
ATOM     10  C   UNL     1      -7.988  -0.780 126.962  0.00  0.00    +0.000 A 
ENDBRANCH   2   4
BRANCH   1  12
ATOM     11  C   UNL     1      -5.534  -2.610 124.307  0.00  0.00    +0.000 C 
ATOM     12  C   UNL     1      -6.821  -3.406 124.384  0.00  0.00    +0.000 C 
ENDBRANCH   1  12
BRANCH   1  13
ATOM     13  C   UNL     1      -8.948  -2.471 123.163  0.00  0.00    +0.000 C 
ATOM     14  C   UNL     1      -9.319  -1.050 122.773  0.00  0.00    +0.000 C 
ENDBRANCH   1  13
TORSDOF 3
ENDMDL
