MODEL 1
REMARK VINA RESULT:      -6.8      0.000      0.000
REMARK  Name = Diethylamino hydroxybenzoyl hexyl benzoate
REMARK  16 active torsions:
REMARK  status: ('A' for Active; 'I' for Inactive)
REMARK    1  A    between atoms: C_1  and  C_2
REMARK    2  A    between atoms: C_2  and  C_3
REMARK    3  A    between atoms: C_3  and  C_4
REMARK    4  A    between atoms: C_4  and  C_5
REMARK    5  A    between atoms: C_5  and  C_6
REMARK    6  A    between atoms: C_6  and  O_7
REMARK    7  A    between atoms: O_7  and  C_8
REMARK    8  A    between atoms: C_8  and  C_10
REMARK    9  A    between atoms: C_15  and  C_16
REMARK   10  A    between atoms: C_16  and  C_18
REMARK   11  A    between atoms: C_21  and  N_25
REMARK   12  A    between atoms: C_23  and  O_24
REMARK   13  A    between atoms: N_25  and  C_26
REMARK   14  A    between atoms: N_25  and  C_28
REMARK   15  A    between atoms: C_26  and  C_27
REMARK   16  A    between atoms: C_28  and  C_29
REMARK                            x       y       z     vdW  Elec       q    Type
REMARK                         _______ _______ _______ _____ _____    ______ ____
ROOT
ATOM      1  C   UNL     1      -7.363   4.749 130.320  0.00  0.00    +0.000 A 
ATOM      2  C   UNL     1      -6.063   4.504 129.846  0.00  0.00    +0.000 A 
ATOM      3  C   UNL     1      -5.014   5.397 130.104  0.00  0.00    +0.000 A 
ATOM      4  C   UNL     1      -5.250   6.579 130.792  0.00  0.00    +0.000 A 
ATOM      5  C   UNL     1      -6.518   6.824 131.296  0.00  0.00    +0.000 A 
ATOM      6  C   UNL     1      -7.571   5.900 131.100  0.00  0.00    +0.000 A 
ENDROOT
BRANCH   1   7
ATOM      7  C   UNL     1      -8.353   3.652 130.047  0.00  0.00    +0.000 C 
ATOM      8  O   UNL     1      -9.272   3.807 129.273  0.00  0.00    +0.000 OA
BRANCH   7   9
ATOM      9  O   UNL     1      -8.098   2.510 130.762  0.00  0.00    +0.000 OA
BRANCH   9  10
ATOM     10  C   UNL     1      -8.646   2.487 132.112  0.00  0.00    +0.000 C 
BRANCH  10  11
ATOM     11  C   UNL     1      -7.548   2.169 133.152  0.00  0.00    +0.000 C 
BRANCH  11  12
ATOM     12  C   UNL     1      -7.299   3.327 134.136  0.00  0.00    +0.000 C 
BRANCH  12  13
ATOM     13  C   UNL     1      -6.033   4.160 133.845  0.00  0.00    +0.000 C 
BRANCH  13  15
ATOM     14  C   UNL     1      -6.929   5.459 135.798  0.00  0.00    +0.000 C 
ATOM     15  C   UNL     1      -5.819   5.383 134.753  0.00  0.00    +0.000 C 
ENDBRANCH  13  15
ENDBRANCH  12  13
ENDBRANCH  11  12
ENDBRANCH  10  11
ENDBRANCH   9  10
ENDBRANCH   7   9
ENDBRANCH   1   7
BRANCH   6  16
ATOM     16  C   UNL     1      -8.811   6.271 131.804  0.00  0.00    +0.000 C 
ATOM     17  O   UNL     1      -8.867   6.230 133.034  0.00  0.00    +0.000 OA
BRANCH  16  18
ATOM     18  C   UNL     1      -9.989   6.774 131.126  0.00  0.00    +0.000 A 
ATOM     19  C   UNL     1      -9.708   7.420 129.960  0.00  0.00    +0.000 A 
ATOM     20  C   UNL     1     -10.751   8.040 129.302  0.00  0.00    +0.000 A 
ATOM     21  C   UNL     1     -12.123   7.798 129.520  0.00  0.00    +0.000 A 
ATOM     22  C   UNL     1     -12.369   7.060 130.691  0.00  0.00    +0.000 A 
ATOM     23  C   UNL     1     -11.314   6.606 131.512  0.00  0.00    +0.000 A 
BRANCH  23  24
ATOM     24  O   UNL     1     -11.581   5.868 132.630  0.00  0.00    +0.000 OA
ATOM     25  H   UNL     1     -11.430   6.436 133.408  0.00  0.00    +0.000 HD
ENDBRANCH  23  24
BRANCH  21  26
ATOM     26  N   UNL     1     -13.137   8.168 128.619  0.00  0.00    +0.000 N 
BRANCH  26  27
ATOM     27  C   UNL     1     -13.611   9.562 128.415  0.00  0.00    +0.000 C 
ATOM     28  C   UNL     1     -13.496  10.603 129.504  0.00  0.00    +0.000 C 
ENDBRANCH  26  27
BRANCH  26  29
ATOM     29  C   UNL     1     -13.527   7.205 127.513  0.00  0.00    +0.000 C 
ATOM     30  C   UNL     1     -12.510   7.038 126.365  0.00  0.00    +0.000 C 
ENDBRANCH  26  29
ENDBRANCH  21  26
ENDBRANCH  16  18
ENDBRANCH   6  16
TORSDOF 13
ENDMDL
MODEL 2
REMARK VINA RESULT:      -6.7      7.381     10.972
REMARK  Name = Diethylamino hydroxybenzoyl hexyl benzoate
REMARK  16 active torsions:
REMARK  status: ('A' for Active; 'I' for Inactive)
REMARK    1  A    between atoms: C_1  and  C_2
REMARK    2  A    between atoms: C_2  and  C_3
REMARK    3  A    between atoms: C_3  and  C_4
REMARK    4  A    between atoms: C_4  and  C_5
REMARK    5  A    between atoms: C_5  and  C_6
REMARK    6  A    between atoms: C_6  and  O_7
REMARK    7  A    between atoms: O_7  and  C_8
REMARK    8  A    between atoms: C_8  and  C_10
REMARK    9  A    between atoms: C_15  and  C_16
REMARK   10  A    between atoms: C_16  and  C_18
REMARK   11  A    between atoms: C_21  and  N_25
REMARK   12  A    between atoms: C_23  and  O_24
REMARK   13  A    between atoms: N_25  and  C_26
REMARK   14  A    between atoms: N_25  and  C_28
REMARK   15  A    between atoms: C_26  and  C_27
REMARK   16  A    between atoms: C_28  and  C_29
REMARK                            x       y       z     vdW  Elec       q    Type
REMARK                         _______ _______ _______ _____ _____    ______ ____
ROOT
ATOM      1  C   UNL     1      -7.705  -1.263 123.752  0.00  0.00    +0.000 A 
ATOM      2  C   UNL     1      -6.749  -1.327 122.724  0.00  0.00    +0.000 A 
ATOM      3  C   UNL     1      -5.747  -2.307 122.721  0.00  0.00    +0.000 A 
ATOM      4  C   UNL     1      -5.644  -3.209 123.771  0.00  0.00    +0.000 A 
ATOM      5  C   UNL     1      -6.597  -3.185 124.778  0.00  0.00    +0.000 A 
ATOM      6  C   UNL     1      -7.652  -2.244 124.759  0.00  0.00    +0.000 A 
ENDROOT
BRANCH   1   7
ATOM      7  C   UNL     1      -8.771  -0.222 123.561  0.00  0.00    +0.000 C 
ATOM      8  O   UNL     1      -9.791  -0.464 122.956  0.00  0.00    +0.000 OA
BRANCH   7   9
ATOM      9  O   UNL     1      -8.448   0.984 124.128  0.00  0.00    +0.000 OA
BRANCH   9  10
ATOM     10  C   UNL     1      -9.151   2.136 123.579  0.00  0.00    +0.000 C 
BRANCH  10  11
ATOM     11  C   UNL     1      -8.334   2.798 122.447  0.00  0.00    +0.000 C 
BRANCH  11  12
ATOM     12  C   UNL     1      -6.816   2.591 122.601  0.00  0.00    +0.000 C 
BRANCH  12  13
ATOM     13  C   UNL     1      -5.966   3.858 122.365  0.00  0.00    +0.000 C 
BRANCH  13  15
ATOM     14  C   UNL     1      -5.966   4.608 119.968  0.00  0.00    +0.000 C 
ATOM     15  C   UNL     1      -5.167   3.886 121.051  0.00  0.00    +0.000 C 
ENDBRANCH  13  15
ENDBRANCH  12  13
ENDBRANCH  11  12
ENDBRANCH  10  11
ENDBRANCH   9  10
ENDBRANCH   7   9
ENDBRANCH   1   7
BRANCH   6  16
ATOM     16  C   UNL     1      -8.631  -2.442 125.843  0.00  0.00    +0.000 C 
ATOM     17  O   UNL     1      -9.796  -2.750 125.583  0.00  0.00    +0.000 OA
BRANCH  16  18
ATOM     18  C   UNL     1      -8.284  -2.374 127.248  0.00  0.00    +0.000 A 
ATOM     19  C   UNL     1      -7.789  -1.163 127.625  0.00  0.00    +0.000 A 
ATOM     20  C   UNL     1      -7.317  -1.036 128.916  0.00  0.00    +0.000 A 
ATOM     21  C   UNL     1      -7.596  -1.912 129.986  0.00  0.00    +0.000 A 
ATOM     22  C   UNL     1      -8.180  -3.120 129.565  0.00  0.00    +0.000 A 
ATOM     23  C   UNL     1      -8.465  -3.368 128.204  0.00  0.00    +0.000 A 
BRANCH  23  24
ATOM     24  O   UNL     1      -9.057  -4.539 127.827  0.00  0.00    +0.000 OA
ATOM     25  H   UNL     1      -9.836  -4.679 128.398  0.00  0.00    +0.000 HD
ENDBRANCH  23  24
BRANCH  21  26
ATOM     26  N   UNL     1      -7.404  -1.584 131.339  0.00  0.00    +0.000 N 
BRANCH  26  27
ATOM     27  C   UNL     1      -7.791  -0.285 131.950  0.00  0.00    +0.000 C 
ATOM     28  C   UNL     1      -9.158   0.318 131.725  0.00  0.00    +0.000 C 
ENDBRANCH  26  27
BRANCH  26  29
ATOM     29  C   UNL     1      -7.148  -2.696 132.338  0.00  0.00    +0.000 C 
ATOM     30  C   UNL     1      -8.017  -2.679 133.613  0.00  0.00    +0.000 C 
ENDBRANCH  26  29
ENDBRANCH  21  26
ENDBRANCH  16  18
ENDBRANCH   6  16
TORSDOF 13
ENDMDL
MODEL 3
REMARK VINA RESULT:      -6.6      7.832     11.386
REMARK  Name = Diethylamino hydroxybenzoyl hexyl benzoate
REMARK  16 active torsions:
REMARK  status: ('A' for Active; 'I' for Inactive)
REMARK    1  A    between atoms: C_1  and  C_2
REMARK    2  A    between atoms: C_2  and  C_3
REMARK    3  A    between atoms: C_3  and  C_4
REMARK    4  A    between atoms: C_4  and  C_5
REMARK    5  A    between atoms: C_5  and  C_6
REMARK    6  A    between atoms: C_6  and  O_7
REMARK    7  A    between atoms: O_7  and  C_8
REMARK    8  A    between atoms: C_8  and  C_10
REMARK    9  A    between atoms: C_15  and  C_16
REMARK   10  A    between atoms: C_16  and  C_18
REMARK   11  A    between atoms: C_21  and  N_25
REMARK   12  A    between atoms: C_23  and  O_24
REMARK   13  A    between atoms: N_25  and  C_26
REMARK   14  A    between atoms: N_25  and  C_28
REMARK   15  A    between atoms: C_26  and  C_27
REMARK   16  A    between atoms: C_28  and  C_29
REMARK                            x       y       z     vdW  Elec       q    Type
REMARK                         _______ _______ _______ _____ _____    ______ ____
ROOT
ATOM      1  C   UNL     1      -7.924  -1.171 123.724  0.00  0.00    +0.000 A 
ATOM      2  C   UNL     1      -7.001  -1.164 122.664  0.00  0.00    +0.000 A 
ATOM      3  C   UNL     1      -5.968  -2.108 122.593  0.00  0.00    +0.000 A 
ATOM      4  C   UNL     1      -5.799  -3.043 123.605  0.00  0.00    +0.000 A 
ATOM      5  C   UNL     1      -6.718  -3.088 124.643  0.00  0.00    +0.000 A 
ATOM      6  C   UNL     1      -7.805  -2.184 124.692  0.00  0.00    +0.000 A 
ENDROOT
BRANCH   1   7
ATOM      7  C   UNL     1      -9.031  -0.162 123.606  0.00  0.00    +0.000 C 
ATOM      8  O   UNL     1      -9.937  -0.305 122.815  0.00  0.00    +0.000 OA
BRANCH   7   9
ATOM      9  O   UNL     1      -8.883   0.898 124.464  0.00  0.00    +0.000 OA
BRANCH   9  10
ATOM     10  C   UNL     1      -9.102   2.211 123.872  0.00  0.00    +0.000 C 
BRANCH  10  11
ATOM     11  C   UNL     1      -7.930   2.606 122.946  0.00  0.00    +0.000 C 
BRANCH  11  12
ATOM     12  C   UNL     1      -8.396   3.265 121.634  0.00  0.00    +0.000 C 
BRANCH  12  13
ATOM     13  C   UNL     1      -7.258   3.831 120.758  0.00  0.00    +0.000 C 
BRANCH  13  15
ATOM     14  C   UNL     1      -4.923   4.449 121.446  0.00  0.00    +0.000 C 
ATOM     15  C   UNL     1      -5.850   3.296 121.071  0.00  0.00    +0.000 C 
ENDBRANCH  13  15
ENDBRANCH  12  13
ENDBRANCH  11  12
ENDBRANCH  10  11
ENDBRANCH   9  10
ENDBRANCH   7   9
ENDBRANCH   1   7
BRANCH   6  16
ATOM     16  C   UNL     1      -8.739  -2.455 125.799  0.00  0.00    +0.000 C 
ATOM     17  O   UNL     1      -9.885  -2.845 125.567  0.00  0.00    +0.000 OA
BRANCH  16  18
ATOM     18  C   UNL     1      -8.363  -2.364 127.195  0.00  0.00    +0.000 A 
ATOM     19  C   UNL     1      -8.518  -3.535 127.874  0.00  0.00    +0.000 A 
ATOM     20  C   UNL     1      -8.302  -3.520 129.237  0.00  0.00    +0.000 A 
ATOM     21  C   UNL     1      -7.616  -2.516 129.952  0.00  0.00    +0.000 A 
ATOM     22  C   UNL     1      -7.404  -1.352 129.193  0.00  0.00    +0.000 A 
ATOM     23  C   UNL     1      -7.826  -1.260 127.849  0.00  0.00    +0.000 A 
BRANCH  23  24
ATOM     24  O   UNL     1      -7.583  -0.126 127.126  0.00  0.00    +0.000 OA
ATOM     25  H   UNL     1      -6.640  -0.126 126.877  0.00  0.00    +0.000 HD
ENDBRANCH  23  24
BRANCH  21  26
ATOM     26  N   UNL     1      -7.110  -2.687 131.253  0.00  0.00    +0.000 N 
BRANCH  26  27
ATOM     27  C   UNL     1      -5.771  -3.252 131.564  0.00  0.00    +0.000 C 
ATOM     28  C   UNL     1      -5.504  -4.737 131.496  0.00  0.00    +0.000 C 
ENDBRANCH  26  27
BRANCH  26  29
ATOM     29  C   UNL     1      -7.753  -1.930 132.399  0.00  0.00    +0.000 C 
ATOM     30  C   UNL     1      -7.591  -2.552 133.802  0.00  0.00    +0.000 C 
ENDBRANCH  26  29
ENDBRANCH  21  26
ENDBRANCH  16  18
ENDBRANCH   6  16
TORSDOF 13
ENDMDL
MODEL 4
REMARK VINA RESULT:      -6.6      7.326      9.510
REMARK  Name = Diethylamino hydroxybenzoyl hexyl benzoate
REMARK  16 active torsions:
REMARK  status: ('A' for Active; 'I' for Inactive)
REMARK    1  A    between atoms: C_1  and  C_2
REMARK    2  A    between atoms: C_2  and  C_3
REMARK    3  A    between atoms: C_3  and  C_4
REMARK    4  A    between atoms: C_4  and  C_5
REMARK    5  A    between atoms: C_5  and  C_6
REMARK    6  A    between atoms: C_6  and  O_7
REMARK    7  A    between atoms: O_7  and  C_8
REMARK    8  A    between atoms: C_8  and  C_10
REMARK    9  A    between atoms: C_15  and  C_16
REMARK   10  A    between atoms: C_16  and  C_18
REMARK   11  A    between atoms: C_21  and  N_25
REMARK   12  A    between atoms: C_23  and  O_24
REMARK   13  A    between atoms: N_25  and  C_26
REMARK   14  A    between atoms: N_25  and  C_28
REMARK   15  A    between atoms: C_26  and  C_27
REMARK   16  A    between atoms: C_28  and  C_29
REMARK                            x       y       z     vdW  Elec       q    Type
REMARK                         _______ _______ _______ _____ _____    ______ ____
ROOT
ATOM      1  C   UNL     1      -5.800   3.937 123.369  0.00  0.00    +0.000 A 
ATOM      2  C   UNL     1      -4.696   4.675 122.910  0.00  0.00    +0.000 A 
ATOM      3  C   UNL     1      -4.462   4.859 121.540  0.00  0.00    +0.000 A 
ATOM      4  C   UNL     1      -5.290   4.262 120.600  0.00  0.00    +0.000 A 
ATOM      5  C   UNL     1      -6.403   3.557 121.031  0.00  0.00    +0.000 A 
ATOM      6  C   UNL     1      -6.689   3.421 122.409  0.00  0.00    +0.000 A 
ENDROOT
BRANCH   1   7
ATOM      7  C   UNL     1      -5.971   3.916 124.861  0.00  0.00    +0.000 C 
ATOM      8  O   UNL     1      -6.540   4.811 125.446  0.00  0.00    +0.000 OA
BRANCH   7   9
ATOM      9  O   UNL     1      -5.417   2.807 125.448  0.00  0.00    +0.000 OA
BRANCH   9  10
ATOM     10  C   UNL     1      -4.799   3.035 126.747  0.00  0.00    +0.000 C 
BRANCH  10  11
ATOM     11  C   UNL     1      -3.258   2.980 126.647  0.00  0.00    +0.000 C 
BRANCH  11  12
ATOM     12  C   UNL     1      -2.571   4.222 127.243  0.00  0.00    +0.000 C 
BRANCH  12  13
ATOM     13  C   UNL     1      -3.529   5.378 127.602  0.00  0.00    +0.000 C 
BRANCH  13  15
ATOM     14  C   UNL     1      -2.040   6.374 129.362  0.00  0.00    +0.000 C 
ATOM     15  C   UNL     1      -2.856   6.667 128.105  0.00  0.00    +0.000 C 
ENDBRANCH  13  15
ENDBRANCH  12  13
ENDBRANCH  11  12
ENDBRANCH  10  11
ENDBRANCH   9  10
ENDBRANCH   7   9
ENDBRANCH   1   7
BRANCH   6  16
ATOM     16  C   UNL     1      -7.969   2.741 122.674  0.00  0.00    +0.000 C 
ATOM     17  O   UNL     1      -9.005   3.128 122.129  0.00  0.00    +0.000 OA
BRANCH  16  18
ATOM     18  C   UNL     1      -8.084   1.558 123.503  0.00  0.00    +0.000 A 
ATOM     19  C   UNL     1      -7.111   0.635 123.266  0.00  0.00    +0.000 A 
ATOM     20  C   UNL     1      -7.204  -0.577 123.919  0.00  0.00    +0.000 A 
ATOM     21  C   UNL     1      -8.000  -0.845 125.052  0.00  0.00    +0.000 A 
ATOM     22  C   UNL     1      -8.940   0.168 125.311  0.00  0.00    +0.000 A 
ATOM     23  C   UNL     1      -9.016   1.327 124.508  0.00  0.00    +0.000 A 
BRANCH  23  24
ATOM     24  O   UNL     1      -9.922   2.308 124.800  0.00  0.00    +0.000 OA
ATOM     25  H   UNL     1     -10.303   2.624 123.959  0.00  0.00    +0.000 HD
ENDBRANCH  23  24
BRANCH  21  26
ATOM     26  N   UNL     1      -7.816  -1.956 125.894  0.00  0.00    +0.000 N 
BRANCH  26  27
ATOM     27  C   UNL     1      -8.864  -2.968 126.187  0.00  0.00    +0.000 C 
ATOM     28  C   UNL     1      -8.880  -3.737 127.488  0.00  0.00    +0.000 C 
ENDBRANCH  26  27
BRANCH  26  29
ATOM     29  C   UNL     1      -6.405  -2.396 126.236  0.00  0.00    +0.000 C 
ATOM     30  C   UNL     1      -5.598  -1.448 127.148  0.00  0.00    +0.000 C 
ENDBRANCH  26  29
ENDBRANCH  21  26
ENDBRANCH  16  18
ENDBRANCH   6  16
TORSDOF 13
ENDMDL
MODEL 5
REMARK VINA RESULT:      -6.5      6.018      8.882
REMARK  Name = Diethylamino hydroxybenzoyl hexyl benzoate
REMARK  16 active torsions:
REMARK  status: ('A' for Active; 'I' for Inactive)
REMARK    1  A    between atoms: C_1  and  C_2
REMARK    2  A    between atoms: C_2  and  C_3
REMARK    3  A    between atoms: C_3  and  C_4
REMARK    4  A    between atoms: C_4  and  C_5
REMARK    5  A    between atoms: C_5  and  C_6
REMARK    6  A    between atoms: C_6  and  O_7
REMARK    7  A    between atoms: O_7  and  C_8
REMARK    8  A    between atoms: C_8  and  C_10
REMARK    9  A    between atoms: C_15  and  C_16
REMARK   10  A    between atoms: C_16  and  C_18
REMARK   11  A    between atoms: C_21  and  N_25
REMARK   12  A    between atoms: C_23  and  O_24
REMARK   13  A    between atoms: N_25  and  C_26
REMARK   14  A    between atoms: N_25  and  C_28
REMARK   15  A    between atoms: C_26  and  C_27
REMARK   16  A    between atoms: C_28  and  C_29
REMARK                            x       y       z     vdW  Elec       q    Type
REMARK                         _______ _______ _______ _____ _____    ______ ____
ROOT
ATOM      1  C   UNL     1      -8.587  -1.335 126.339  0.00  0.00    +0.000 A 
ATOM      2  C   UNL     1      -9.301  -2.517 126.079  0.00  0.00    +0.000 A 
ATOM      3  C   UNL     1      -9.131  -3.660 126.872  0.00  0.00    +0.000 A 
ATOM      4  C   UNL     1      -8.206  -3.667 127.906  0.00  0.00    +0.000 A 
ATOM      5  C   UNL     1      -7.515  -2.501 128.201  0.00  0.00    +0.000 A 
ATOM      6  C   UNL     1      -7.725  -1.321 127.451  0.00  0.00    +0.000 A 
ENDROOT
BRANCH   1   7
ATOM      7  C   UNL     1      -8.952  -0.169 125.466  0.00  0.00    +0.000 C 
ATOM      8  O   UNL     1     -10.096   0.217 125.370  0.00  0.00    +0.000 OA
BRANCH   7   9
ATOM      9  O   UNL     1      -7.873   0.370 124.813  0.00  0.00    +0.000 OA
BRANCH   9  10
ATOM     10  C   UNL     1      -7.808   0.091 123.385  0.00  0.00    +0.000 C 
BRANCH  10  11
ATOM     11  C   UNL     1      -6.660  -0.892 123.062  0.00  0.00    +0.000 C 
BRANCH  11  12
ATOM     12  C   UNL     1      -7.049  -2.365 123.287  0.00  0.00    +0.000 C 
BRANCH  12  13
ATOM     13  C   UNL     1      -6.047  -3.173 124.139  0.00  0.00    +0.000 C 
BRANCH  13  15
ATOM     14  C   UNL     1      -4.241  -4.801 123.511  0.00  0.00    +0.000 C 
ATOM     15  C   UNL     1      -4.639  -3.328 123.539  0.00  0.00    +0.000 C 
ENDBRANCH  13  15
ENDBRANCH  12  13
ENDBRANCH  11  12
ENDBRANCH  10  11
ENDBRANCH   9  10
ENDBRANCH   7   9
ENDBRANCH   1   7
BRANCH   6  16
ATOM     16  C   UNL     1      -6.993  -0.156 127.979  0.00  0.00    +0.000 C 
ATOM     17  O   UNL     1      -5.786  -0.029 127.764  0.00  0.00    +0.000 OA
BRANCH  16  18
ATOM     18  C   UNL     1      -7.635   0.929 128.692  0.00  0.00    +0.000 A 
ATOM     19  C   UNL     1      -7.964   0.613 129.976  0.00  0.00    +0.000 A 
ATOM     20  C   UNL     1      -8.687   1.539 130.700  0.00  0.00    +0.000 A 
ATOM     21  C   UNL     1      -8.835   2.904 130.378  0.00  0.00    +0.000 A 
ATOM     22  C   UNL     1      -8.412   3.207 129.072  0.00  0.00    +0.000 A 
ATOM     23  C   UNL     1      -7.873   2.216 128.222  0.00  0.00    +0.000 A 
BRANCH  23  24
ATOM     24  O   UNL     1      -7.445   2.544 126.967  0.00  0.00    +0.000 OA
ATOM     25  H   UNL     1      -6.512   2.821 127.032  0.00  0.00    +0.000 HD
ENDBRANCH  23  24
BRANCH  21  26
ATOM     26  N   UNL     1      -9.269   3.882 131.290  0.00  0.00    +0.000 N 
BRANCH  26  27
ATOM     27  C   UNL     1      -8.588   4.191 132.575  0.00  0.00    +0.000 C 
ATOM     28  C   UNL     1      -9.212   3.839 133.905  0.00  0.00    +0.000 C 
ENDBRANCH  26  27
BRANCH  26  29
ATOM     29  C   UNL     1     -10.235   4.952 130.819  0.00  0.00    +0.000 C 
ATOM     30  C   UNL     1      -9.752   6.412 130.951  0.00  0.00    +0.000 C 
ENDBRANCH  26  29
ENDBRANCH  21  26
ENDBRANCH  16  18
ENDBRANCH   6  16
TORSDOF 13
ENDMDL
MODEL 6
REMARK VINA RESULT:      -6.5      7.185     10.131
REMARK  Name = Diethylamino hydroxybenzoyl hexyl benzoate
REMARK  16 active torsions:
REMARK  status: ('A' for Active; 'I' for Inactive)
REMARK    1  A    between atoms: C_1  and  C_2
REMARK    2  A    between atoms: C_2  and  C_3
REMARK    3  A    between atoms: C_3  and  C_4
REMARK    4  A    between atoms: C_4  and  C_5
REMARK    5  A    between atoms: C_5  and  C_6
REMARK    6  A    between atoms: C_6  and  O_7
REMARK    7  A    between atoms: O_7  and  C_8
REMARK    8  A    between atoms: C_8  and  C_10
REMARK    9  A    between atoms: C_15  and  C_16
REMARK   10  A    between atoms: C_16  and  C_18
REMARK   11  A    between atoms: C_21  and  N_25
REMARK   12  A    between atoms: C_23  and  O_24
REMARK   13  A    between atoms: N_25  and  C_26
REMARK   14  A    between atoms: N_25  and  C_28
REMARK   15  A    between atoms: C_26  and  C_27
REMARK   16  A    between atoms: C_28  and  C_29
REMARK                            x       y       z     vdW  Elec       q    Type
REMARK                         _______ _______ _______ _____ _____    ______ ____
ROOT
ATOM      1  C   UNL     1      -7.574   2.966 123.434  0.00  0.00    +0.000 A 
ATOM      2  C   UNL     1      -7.430   3.185 122.053  0.00  0.00    +0.000 A 
ATOM      3  C   UNL     1      -6.310   3.848 121.534  0.00  0.00    +0.000 A 
ATOM      4  C   UNL     1      -5.338   4.356 122.384  0.00  0.00    +0.000 A 
ATOM      5  C   UNL     1      -5.444   4.123 123.747  0.00  0.00    +0.000 A 
ATOM      6  C   UNL     1      -6.535   3.397 124.278  0.00  0.00    +0.000 A 
ENDROOT
BRANCH   1   7
ATOM      7  C   UNL     1      -8.776   2.154 123.824  0.00  0.00    +0.000 C 
ATOM      8  O   UNL     1      -9.586   2.566 124.625  0.00  0.00    +0.000 OA
BRANCH   7   9
ATOM      9  O   UNL     1      -8.830   0.938 123.192  0.00  0.00    +0.000 OA
BRANCH   9  10
ATOM     10  C   UNL     1      -8.668  -0.221 124.060  0.00  0.00    +0.000 C 
BRANCH  10  11
ATOM     11  C   UNL     1      -8.359  -1.492 123.238  0.00  0.00    +0.000 C 
BRANCH  11  12
ATOM     12  C   UNL     1      -6.859  -1.838 123.207  0.00  0.00    +0.000 C 
BRANCH  12  13
ATOM     13  C   UNL     1      -6.466  -3.077 124.040  0.00  0.00    +0.000 C 
BRANCH  13  15
ATOM     14  C   UNL     1      -4.526  -4.612 123.611  0.00  0.00    +0.000 C 
ATOM     15  C   UNL     1      -4.956  -3.290 124.240  0.00  0.00    +0.000 C 
ENDBRANCH  13  15
ENDBRANCH  12  13
ENDBRANCH  11  12
ENDBRANCH  10  11
ENDBRANCH   9  10
ENDBRANCH   7   9
ENDBRANCH   1   7
BRANCH   6  16
ATOM     16  C   UNL     1      -6.421   3.148 125.726  0.00  0.00    +0.000 C 
ATOM     17  O   UNL     1      -6.230   4.083 126.506  0.00  0.00    +0.000 OA
BRANCH  16  18
ATOM     18  C   UNL     1      -6.601   1.841 126.324  0.00  0.00    +0.000 A 
ATOM     19  C   UNL     1      -5.607   0.962 126.017  0.00  0.00    +0.000 A 
ATOM     20  C   UNL     1      -5.751  -0.344 126.440  0.00  0.00    +0.000 A 
ATOM     21  C   UNL     1      -6.640  -0.794 127.437  0.00  0.00    +0.000 A 
ATOM     22  C   UNL     1      -7.604   0.169 127.786  0.00  0.00    +0.000 A 
ATOM     23  C   UNL     1      -7.616   1.450 127.191  0.00  0.00    +0.000 A 
BRANCH  23  24
ATOM     24  O   UNL     1      -8.547   2.375 127.569  0.00  0.00    +0.000 OA
ATOM     25  H   UNL     1      -8.087   3.222 127.714  0.00  0.00    +0.000 HD
ENDBRANCH  23  24
BRANCH  21  26
ATOM     26  N   UNL     1      -6.526  -2.035 128.087  0.00  0.00    +0.000 N 
BRANCH  26  27
ATOM     27  C   UNL     1      -7.607  -3.053 128.149  0.00  0.00    +0.000 C 
ATOM     28  C   UNL     1      -8.606  -3.214 127.027  0.00  0.00    +0.000 C 
ENDBRANCH  26  27
BRANCH  26  29
ATOM     29  C   UNL     1      -5.145  -2.566 128.423  0.00  0.00    +0.000 C 
ATOM     30  C   UNL     1      -5.026  -3.374 129.732  0.00  0.00    +0.000 C 
ENDBRANCH  26  29
ENDBRANCH  21  26
ENDBRANCH  16  18
ENDBRANCH   6  16
TORSDOF 13
ENDMDL
MODEL 7
REMARK VINA RESULT:      -6.4      6.289      9.089
REMARK  Name = Diethylamino hydroxybenzoyl hexyl benzoate
REMARK  16 active torsions:
REMARK  status: ('A' for Active; 'I' for Inactive)
REMARK    1  A    between atoms: C_1  and  C_2
REMARK    2  A    between atoms: C_2  and  C_3
REMARK    3  A    between atoms: C_3  and  C_4
REMARK    4  A    between atoms: C_4  and  C_5
REMARK    5  A    between atoms: C_5  and  C_6
REMARK    6  A    between atoms: C_6  and  O_7
REMARK    7  A    between atoms: O_7  and  C_8
REMARK    8  A    between atoms: C_8  and  C_10
REMARK    9  A    between atoms: C_15  and  C_16
REMARK   10  A    between atoms: C_16  and  C_18
REMARK   11  A    between atoms: C_21  and  N_25
REMARK   12  A    between atoms: C_23  and  O_24
REMARK   13  A    between atoms: N_25  and  C_26
REMARK   14  A    between atoms: N_25  and  C_28
REMARK   15  A    between atoms: C_26  and  C_27
REMARK   16  A    between atoms: C_28  and  C_29
REMARK                            x       y       z     vdW  Elec       q    Type
REMARK                         _______ _______ _______ _____ _____    ______ ____
ROOT
ATOM      1  C   UNL     1      -5.715   4.179 123.745  0.00  0.00    +0.000 A 
ATOM      2  C   UNL     1      -4.922   4.595 122.663  0.00  0.00    +0.000 A 
ATOM      3  C   UNL     1      -5.298   4.327 121.340  0.00  0.00    +0.000 A 
ATOM      4  C   UNL     1      -6.442   3.589 121.070  0.00  0.00    +0.000 A 
ATOM      5  C   UNL     1      -7.255   3.197 122.122  0.00  0.00    +0.000 A 
ATOM      6  C   UNL     1      -6.923   3.519 123.458  0.00  0.00    +0.000 A 
ENDROOT
BRANCH   1   7
ATOM      7  C   UNL     1      -5.231   4.629 125.094  0.00  0.00    +0.000 C 
ATOM      8  O   UNL     1      -5.726   5.578 125.661  0.00  0.00    +0.000 OA
BRANCH   7   9
ATOM      9  O   UNL     1      -4.198   3.866 125.575  0.00  0.00    +0.000 OA
BRANCH   9  10
ATOM     10  C   UNL     1      -3.725   4.227 126.905  0.00  0.00    +0.000 C 
BRANCH  10  11
ATOM     11  C   UNL     1      -4.003   3.094 127.919  0.00  0.00    +0.000 C 
BRANCH  11  12
ATOM     12  C   UNL     1      -5.220   3.379 128.820  0.00  0.00    +0.000 C 
BRANCH  12  13
ATOM     13  C   UNL     1      -6.589   3.146 128.146  0.00  0.00    +0.000 C 
BRANCH  13  15
ATOM     14  C   UNL     1      -8.413   1.489 128.635  0.00  0.00    +0.000 C 
ATOM     15  C   UNL     1      -7.742   2.781 129.097  0.00  0.00    +0.000 C 
ENDBRANCH  13  15
ENDBRANCH  12  13
ENDBRANCH  11  12
ENDBRANCH  10  11
ENDBRANCH   9  10
ENDBRANCH   7   9
ENDBRANCH   1   7
BRANCH   6  16
ATOM     16  C   UNL     1      -7.959   3.123 124.429  0.00  0.00    +0.000 C 
ATOM     17  O   UNL     1      -8.731   3.963 124.895  0.00  0.00    +0.000 OA
BRANCH  16  18
ATOM     18  C   UNL     1      -8.191   1.749 124.827  0.00  0.00    +0.000 A 
ATOM     19  C   UNL     1      -7.059   1.100 125.216  0.00  0.00    +0.000 A 
ATOM     20  C   UNL     1      -7.156  -0.247 125.499  0.00  0.00    +0.000 A 
ATOM     21  C   UNL     1      -8.350  -0.952 125.755  0.00  0.00    +0.000 A 
ATOM     22  C   UNL     1      -9.501  -0.218 125.415  0.00  0.00    +0.000 A 
ATOM     23  C   UNL     1      -9.415   1.094 124.902  0.00  0.00    +0.000 A 
BRANCH  23  24
ATOM     24  O   UNL     1     -10.551   1.793 124.605  0.00  0.00    +0.000 OA
ATOM     25  H   UNL     1     -10.978   1.360 123.843  0.00  0.00    +0.000 HD
ENDBRANCH  23  24
BRANCH  21  26
ATOM     26  N   UNL     1      -8.399  -2.213 126.374  0.00  0.00    +0.000 N 
BRANCH  26  27
ATOM     27  C   UNL     1      -8.508  -3.503 125.643  0.00  0.00    +0.000 C 
ATOM     28  C   UNL     1      -8.789  -3.549 124.159  0.00  0.00    +0.000 C 
ENDBRANCH  26  27
BRANCH  26  29
ATOM     29  C   UNL     1      -7.941  -2.346 127.814  0.00  0.00    +0.000 C 
ATOM     30  C   UNL     1      -8.513  -3.542 128.604  0.00  0.00    +0.000 C 
ENDBRANCH  26  29
ENDBRANCH  21  26
ENDBRANCH  16  18
ENDBRANCH   6  16
TORSDOF 13
ENDMDL
MODEL 8
REMARK VINA RESULT:      -6.3      7.009     10.534
REMARK  Name = Diethylamino hydroxybenzoyl hexyl benzoate
REMARK  16 active torsions:
REMARK  status: ('A' for Active; 'I' for Inactive)
REMARK    1  A    between atoms: C_1  and  C_2
REMARK    2  A    between atoms: C_2  and  C_3
REMARK    3  A    between atoms: C_3  and  C_4
REMARK    4  A    between atoms: C_4  and  C_5
REMARK    5  A    between atoms: C_5  and  C_6
REMARK    6  A    between atoms: C_6  and  O_7
REMARK    7  A    between atoms: O_7  and  C_8
REMARK    8  A    between atoms: C_8  and  C_10
REMARK    9  A    between atoms: C_15  and  C_16
REMARK   10  A    between atoms: C_16  and  C_18
REMARK   11  A    between atoms: C_21  and  N_25
REMARK   12  A    between atoms: C_23  and  O_24
REMARK   13  A    between atoms: N_25  and  C_26
REMARK   14  A    between atoms: N_25  and  C_28
REMARK   15  A    between atoms: C_26  and  C_27
REMARK   16  A    between atoms: C_28  and  C_29
REMARK                            x       y       z     vdW  Elec       q    Type
REMARK                         _______ _______ _______ _____ _____    ______ ____
ROOT
ATOM      1  C   UNL     1      -8.078  -1.412 123.631  0.00  0.00    +0.000 A 
ATOM      2  C   UNL     1      -7.154  -1.374 122.573  0.00  0.00    +0.000 A 
ATOM      3  C   UNL     1      -5.969  -2.120 122.615  0.00  0.00    +0.000 A 
ATOM      4  C   UNL     1      -5.653  -2.876 123.735  0.00  0.00    +0.000 A 
ATOM      5  C   UNL     1      -6.566  -2.954 124.776  0.00  0.00    +0.000 A 
ATOM      6  C   UNL     1      -7.796  -2.259 124.718  0.00  0.00    +0.000 A 
ENDROOT
BRANCH   1   7
ATOM      7  C   UNL     1      -9.344  -0.638 123.395  0.00  0.00    +0.000 C 
ATOM      8  O   UNL     1     -10.052  -0.859 122.438  0.00  0.00    +0.000 OA
BRANCH   7   9
ATOM      9  O   UNL     1      -9.577   0.313 124.355  0.00  0.00    +0.000 OA
BRANCH   9  10
ATOM     10  C   UNL     1     -10.086   1.585 123.858  0.00  0.00    +0.000 C 
BRANCH  10  11
ATOM     11  C   UNL     1      -9.030   2.306 122.991  0.00  0.00    +0.000 C 
BRANCH  11  12
ATOM     12  C   UNL     1      -7.895   2.933 123.823  0.00  0.00    +0.000 C 
BRANCH  12  13
ATOM     13  C   UNL     1      -6.668   2.020 124.030  0.00  0.00    +0.000 C 
BRANCH  13  15
ATOM     14  C   UNL     1      -7.360   2.292 126.429  0.00  0.00    +0.000 C 
ATOM     15  C   UNL     1      -6.279   1.755 125.495  0.00  0.00    +0.000 C 
ENDBRANCH  13  15
ENDBRANCH  12  13
ENDBRANCH  11  12
ENDBRANCH  10  11
ENDBRANCH   9  10
ENDBRANCH   7   9
ENDBRANCH   1   7
BRANCH   6  16
ATOM     16  C   UNL     1      -8.685  -2.551 125.857  0.00  0.00    +0.000 C 
ATOM     17  O   UNL     1      -9.807  -3.025 125.666  0.00  0.00    +0.000 OA
BRANCH  16  18
ATOM     18  C   UNL     1      -8.285  -2.385 127.239  0.00  0.00    +0.000 A 
ATOM     19  C   UNL     1      -7.822  -1.137 127.523  0.00  0.00    +0.000 A 
ATOM     20  C   UNL     1      -7.304  -0.915 128.783  0.00  0.00    +0.000 A 
ATOM     21  C   UNL     1      -7.506  -1.733 129.914  0.00  0.00    +0.000 A 
ATOM     22  C   UNL     1      -8.060  -2.985 129.590  0.00  0.00    +0.000 A 
ATOM     23  C   UNL     1      -8.390  -3.324 128.260  0.00  0.00    +0.000 A 
BRANCH  23  24
ATOM     24  O   UNL     1      -8.952  -4.537 127.978  0.00  0.00    +0.000 OA
ATOM     25  H   UNL     1      -9.235  -4.527 127.045  0.00  0.00    +0.000 HD
ENDBRANCH  23  24
BRANCH  21  26
ATOM     26  N   UNL     1      -7.273  -1.316 131.236  0.00  0.00    +0.000 N 
BRANCH  26  27
ATOM     27  C   UNL     1      -6.323  -1.977 132.168  0.00  0.00    +0.000 C 
ATOM     28  C   UNL     1      -4.980  -2.488 131.700  0.00  0.00    +0.000 C 
ENDBRANCH  26  27
BRANCH  26  29
ATOM     29  C   UNL     1      -7.689   0.082 131.652  0.00  0.00    +0.000 C 
ATOM     30  C   UNL     1      -9.208   0.350 131.713  0.00  0.00    +0.000 C 
ENDBRANCH  26  29
ENDBRANCH  21  26
ENDBRANCH  16  18
ENDBRANCH   6  16
TORSDOF 13
ENDMDL
MODEL 9
REMARK VINA RESULT:      -6.1      2.179      3.995
REMARK  Name = Diethylamino hydroxybenzoyl hexyl benzoate
REMARK  16 active torsions:
REMARK  status: ('A' for Active; 'I' for Inactive)
REMARK    1  A    between atoms: C_1  and  C_2
REMARK    2  A    between atoms: C_2  and  C_3
REMARK    3  A    between atoms: C_3  and  C_4
REMARK    4  A    between atoms: C_4  and  C_5
REMARK    5  A    between atoms: C_5  and  C_6
REMARK    6  A    between atoms: C_6  and  O_7
REMARK    7  A    between atoms: O_7  and  C_8
REMARK    8  A    between atoms: C_8  and  C_10
REMARK    9  A    between atoms: C_15  and  C_16
REMARK   10  A    between atoms: C_16  and  C_18
REMARK   11  A    between atoms: C_21  and  N_25
REMARK   12  A    between atoms: C_23  and  O_24
REMARK   13  A    between atoms: N_25  and  C_26
REMARK   14  A    between atoms: N_25  and  C_28
REMARK   15  A    between atoms: C_26  and  C_27
REMARK   16  A    between atoms: C_28  and  C_29
REMARK                            x       y       z     vdW  Elec       q    Type
REMARK                         _______ _______ _______ _____ _____    ______ ____
ROOT
ATOM      1  C   UNL     1      -6.179   6.127 132.302  0.00  0.00    +0.000 A 
ATOM      2  C   UNL     1      -5.317   6.242 133.405  0.00  0.00    +0.000 A 
ATOM      3  C   UNL     1      -5.682   5.757 134.668  0.00  0.00    +0.000 A 
ATOM      4  C   UNL     1      -6.936   5.200 134.872  0.00  0.00    +0.000 A 
ATOM      5  C   UNL     1      -7.790   5.047 133.790  0.00  0.00    +0.000 A 
ATOM      6  C   UNL     1      -7.408   5.471 132.496  0.00  0.00    +0.000 A 
ENDROOT
BRANCH   1   7
ATOM      7  C   UNL     1      -5.606   6.602 130.997  0.00  0.00    +0.000 C 
ATOM      8  O   UNL     1      -6.027   7.593 130.444  0.00  0.00    +0.000 OA
BRANCH   7   9
ATOM      9  O   UNL     1      -4.596   5.798 130.532  0.00  0.00    +0.000 OA
BRANCH   9  10
ATOM     10  C   UNL     1      -3.735   6.404 129.525  0.00  0.00    +0.000 C 
BRANCH  10  11
ATOM     11  C   UNL     1      -2.255   6.377 129.971  0.00  0.00    +0.000 C 
BRANCH  11  12
ATOM     12  C   UNL     1      -2.066   5.818 131.394  0.00  0.00    +0.000 C 
BRANCH  12  13
ATOM     13  C   UNL     1      -1.774   6.884 132.471  0.00  0.00    +0.000 C 
BRANCH  13  15
ATOM     14  C   UNL     1      -1.810   9.313 133.108  0.00  0.00    +0.000 C 
ATOM     15  C   UNL     1      -2.505   8.226 132.292  0.00  0.00    +0.000 C 
ENDBRANCH  13  15
ENDBRANCH  12  13
ENDBRANCH  11  12
ENDBRANCH  10  11
ENDBRANCH   9  10
ENDBRANCH   7   9
ENDBRANCH   1   7
BRANCH   6  16
ATOM     16  C   UNL     1      -8.392   5.124 131.455  0.00  0.00    +0.000 C 
ATOM     17  O   UNL     1      -8.365   4.016 130.916  0.00  0.00    +0.000 OA
BRANCH  16  18
ATOM     18  C   UNL     1      -9.476   6.002 131.062  0.00  0.00    +0.000 A 
ATOM     19  C   UNL     1      -9.277   6.601 129.856  0.00  0.00    +0.000 A 
ATOM     20  C   UNL     1     -10.196   7.548 129.450  0.00  0.00    +0.000 A 
ATOM     21  C   UNL     1     -11.490   7.722 129.982  0.00  0.00    +0.000 A 
ATOM     22  C   UNL     1     -11.683   7.024 131.188  0.00  0.00    +0.000 A 
ATOM     23  C   UNL     1     -10.666   6.221 131.748  0.00  0.00    +0.000 A 
BRANCH  23  24
ATOM     24  O   UNL     1     -10.890   5.533 132.906  0.00  0.00    +0.000 OA
ATOM     25  H   UNL     1     -10.729   6.140 133.652  0.00  0.00    +0.000 HD
ENDBRANCH  23  24
BRANCH  21  26
ATOM     26  N   UNL     1     -12.514   8.437 129.336  0.00  0.00    +0.000 N 
BRANCH  26  27
ATOM     27  C   UNL     1     -13.421   7.859 128.310  0.00  0.00    +0.000 C 
ATOM     28  C   UNL     1     -12.885   7.113 127.111  0.00  0.00    +0.000 C 
ENDBRANCH  26  27
BRANCH  26  29
ATOM     29  C   UNL     1     -13.004   9.736 129.947  0.00  0.00    +0.000 C 
ATOM     30  C   UNL     1     -13.804  10.668 129.014  0.00  0.00    +0.000 C 
ENDBRANCH  26  29
ENDBRANCH  21  26
ENDBRANCH  16  18
ENDBRANCH   6  16
TORSDOF 13
ENDMDL
