MODEL 1
REMARK VINA RESULT:      -6.3      0.000      0.000
REMARK  Name = Diethylstilbestrol
REMARK  8 active torsions:
REMARK  status: ('A' for Active; 'I' for Inactive)
REMARK    1  A    between atoms: C_1  and  C_2
REMARK    2  A    between atoms: C_2  and  C_3
REMARK    3  A    between atoms: C_3  and  C_14
REMARK    4  A    between atoms: C_4  and  C_5
REMARK    5  A    between atoms: C_4  and  C_7
REMARK    6  A    between atoms: C_5  and  C_6
REMARK    7  A    between atoms: C_10  and  O_11
REMARK    8  A    between atoms: C_17  and  O_18
REMARK                            x       y       z     vdW  Elec       q    Type
REMARK                         _______ _______ _______ _____ _____    ______ ____
ROOT
ATOM      1  C   UNL     1      -7.754  -1.024 125.080  0.00  0.00    +0.000 C 
ATOM      2  C   UNL     1      -7.714  -0.808 126.446  0.00  0.00    +0.000 C 
ENDROOT
BRANCH   2   3
ATOM      3  C   UNL     1      -7.290  -1.873 127.446  0.00  0.00    +0.000 A 
ATOM      4  C   UNL     1      -8.224  -2.750 128.018  0.00  0.00    +0.000 A 
ATOM      5  C   UNL     1      -7.918  -3.483 129.183  0.00  0.00    +0.000 A 
ATOM      6  C   UNL     1      -6.607  -3.530 129.637  0.00  0.00    +0.000 A 
ATOM      7  C   UNL     1      -5.617  -2.843 128.957  0.00  0.00    +0.000 A 
ATOM      8  C   UNL     1      -5.958  -1.994 127.892  0.00  0.00    +0.000 A 
BRANCH   6   9
ATOM      9  O   UNL     1      -6.256  -4.224 130.757  0.00  0.00    +0.000 OA
ATOM     10  H   UNL     1      -6.658  -5.107 130.723  0.00  0.00    +0.000 HD
ENDBRANCH   6   9
ENDBRANCH   2   3
BRANCH   1  11
ATOM     11  C   UNL     1      -8.028   0.084 124.076  0.00  0.00    +0.000 A 
ATOM     12  C   UNL     1      -9.336   0.432 123.661  0.00  0.00    +0.000 A 
ATOM     13  C   UNL     1      -9.579   1.600 122.914  0.00  0.00    +0.000 A 
ATOM     14  C   UNL     1      -8.539   2.466 122.635  0.00  0.00    +0.000 A 
ATOM     15  C   UNL     1      -7.235   2.104 122.959  0.00  0.00    +0.000 A 
ATOM     16  C   UNL     1      -6.984   0.861 123.565  0.00  0.00    +0.000 A 
BRANCH  14  17
ATOM     17  O   UNL     1      -8.726   3.687 122.063  0.00  0.00    +0.000 OA
ATOM     18  H   UNL     1      -8.155   3.762 121.278  0.00  0.00    +0.000 HD
ENDBRANCH  14  17
ENDBRANCH   1  11
BRANCH   1  20
ATOM     19  C   UNL     1      -8.746  -3.334 124.165  0.00  0.00    +0.000 C 
ATOM     20  C   UNL     1      -7.591  -2.361 124.323  0.00  0.00    +0.000 C 
ENDBRANCH   1  20
BRANCH   2  21
ATOM     21  C   UNL     1      -8.126   0.464 127.227  0.00  0.00    +0.000 C 
ATOM     22  C   UNL     1      -7.181   1.641 127.387  0.00  0.00    +0.000 C 
ENDBRANCH   2  21
TORSDOF 6
ENDMDL
MODEL 2
REMARK VINA RESULT:      -6.2      0.804      2.327
REMARK  Name = Diethylstilbestrol
REMARK  8 active torsions:
REMARK  status: ('A' for Active; 'I' for Inactive)
REMARK    1  A    between atoms: C_1  and  C_2
REMARK    2  A    between atoms: C_2  and  C_3
REMARK    3  A    between atoms: C_3  and  C_14
REMARK    4  A    between atoms: C_4  and  C_5
REMARK    5  A    between atoms: C_4  and  C_7
REMARK    6  A    between atoms: C_5  and  C_6
REMARK    7  A    between atoms: C_10  and  O_11
REMARK    8  A    between atoms: C_17  and  O_18
REMARK                            x       y       z     vdW  Elec       q    Type
REMARK                         _______ _______ _______ _____ _____    ______ ____
ROOT
ATOM      1  C   UNL     1      -7.434   0.090 125.707  0.00  0.00    +0.000 C 
ATOM      2  C   UNL     1      -7.203  -1.274 125.682  0.00  0.00    +0.000 C 
ENDROOT
BRANCH   2   3
ATOM      3  C   UNL     1      -7.024  -2.111 126.939  0.00  0.00    +0.000 A 
ATOM      4  C   UNL     1      -8.102  -2.801 127.515  0.00  0.00    +0.000 A 
ATOM      5  C   UNL     1      -8.039  -3.273 128.842  0.00  0.00    +0.000 A 
ATOM      6  C   UNL     1      -6.823  -3.274 129.512  0.00  0.00    +0.000 A 
ATOM      7  C   UNL     1      -5.688  -2.795 128.881  0.00  0.00    +0.000 A 
ATOM      8  C   UNL     1      -5.792  -2.186 127.620  0.00  0.00    +0.000 A 
BRANCH   6   9
ATOM      9  O   UNL     1      -6.706  -3.721 130.794  0.00  0.00    +0.000 OA
ATOM     10  H   UNL     1      -6.127  -4.500 130.808  0.00  0.00    +0.000 HD
ENDBRANCH   6   9
ENDBRANCH   2   3
BRANCH   1  11
ATOM     11  C   UNL     1      -7.766   0.896 124.460  0.00  0.00    +0.000 A 
ATOM     12  C   UNL     1      -9.076   0.982 123.933  0.00  0.00    +0.000 A 
ATOM     13  C   UNL     1      -9.398   1.908 122.924  0.00  0.00    +0.000 A 
ATOM     14  C   UNL     1      -8.442   2.803 122.482  0.00  0.00    +0.000 A 
ATOM     15  C   UNL     1      -7.129   2.682 122.924  0.00  0.00    +0.000 A 
ATOM     16  C   UNL     1      -6.783   1.652 123.814  0.00  0.00    +0.000 A 
BRANCH  14  17
ATOM     17  O   UNL     1      -8.725   3.828 121.632  0.00  0.00    +0.000 OA
ATOM     18  H   UNL     1      -8.676   3.505 120.715  0.00  0.00    +0.000 HD
ENDBRANCH  14  17
ENDBRANCH   1  11
BRANCH   1  20
ATOM     19  C   UNL     1      -8.596   1.423 127.714  0.00  0.00    +0.000 C 
ATOM     20  C   UNL     1      -7.359   1.046 126.918  0.00  0.00    +0.000 C 
ENDBRANCH   1  20
BRANCH   2  21
ATOM     21  C   UNL     1      -7.025  -2.192 124.449  0.00  0.00    +0.000 C 
ATOM     22  C   UNL     1      -5.670  -2.395 123.795  0.00  0.00    +0.000 C 
ENDBRANCH   2  21
TORSDOF 6
ENDMDL
MODEL 3
REMARK VINA RESULT:      -6.2      1.896      3.894
REMARK  Name = Diethylstilbestrol
REMARK  8 active torsions:
REMARK  status: ('A' for Active; 'I' for Inactive)
REMARK    1  A    between atoms: C_1  and  C_2
REMARK    2  A    between atoms: C_2  and  C_3
REMARK    3  A    between atoms: C_3  and  C_14
REMARK    4  A    between atoms: C_4  and  C_5
REMARK    5  A    between atoms: C_4  and  C_7
REMARK    6  A    between atoms: C_5  and  C_6
REMARK    7  A    between atoms: C_10  and  O_11
REMARK    8  A    between atoms: C_17  and  O_18
REMARK                            x       y       z     vdW  Elec       q    Type
REMARK                         _______ _______ _______ _____ _____    ______ ____
ROOT
ATOM      1  C   UNL     1      -6.765   2.065 124.298  0.00  0.00    +0.000 C 
ATOM      2  C   UNL     1      -6.870   0.686 124.345  0.00  0.00    +0.000 C 
ENDROOT
BRANCH   2   3
ATOM      3  C   UNL     1      -6.730  -0.117 125.629  0.00  0.00    +0.000 A 
ATOM      4  C   UNL     1      -5.569  -0.857 125.903  0.00  0.00    +0.000 A 
ATOM      5  C   UNL     1      -5.565  -1.867 126.887  0.00  0.00    +0.000 A 
ATOM      6  C   UNL     1      -6.636  -1.975 127.762  0.00  0.00    +0.000 A 
ATOM      7  C   UNL     1      -7.708  -1.106 127.650  0.00  0.00    +0.000 A 
ATOM      8  C   UNL     1      -7.773  -0.208 126.573  0.00  0.00    +0.000 A 
BRANCH   6   9
ATOM      9  O   UNL     1      -6.682  -2.932 128.732  0.00  0.00    +0.000 OA
ATOM     10  H   UNL     1      -7.304  -3.628 128.464  0.00  0.00    +0.000 HD
ENDBRANCH   6   9
ENDBRANCH   2   3
BRANCH   1  11
ATOM     11  C   UNL     1      -7.058   2.874 123.045  0.00  0.00    +0.000 A 
ATOM     12  C   UNL     1      -6.036   3.418 122.230  0.00  0.00    +0.000 A 
ATOM     13  C   UNL     1      -6.323   3.962 120.964  0.00  0.00    +0.000 A 
ATOM     14  C   UNL     1      -7.611   3.905 120.467  0.00  0.00    +0.000 A 
ATOM     15  C   UNL     1      -8.644   3.453 121.282  0.00  0.00    +0.000 A 
ATOM     16  C   UNL     1      -8.371   3.059 122.603  0.00  0.00    +0.000 A 
BRANCH  14  17
ATOM     17  O   UNL     1      -7.929   4.260 119.192  0.00  0.00    +0.000 OA
ATOM     18  H   UNL     1      -7.344   4.984 118.907  0.00  0.00    +0.000 HD
ENDBRANCH  14  17
ENDBRANCH   1  11
BRANCH   1  20
ATOM     19  C   UNL     1      -4.846   3.131 125.827  0.00  0.00    +0.000 C 
ATOM     20  C   UNL     1      -6.305   3.022 125.419  0.00  0.00    +0.000 C 
ENDBRANCH   1  20
BRANCH   2  21
ATOM     21  C   UNL     1      -7.080  -0.298 123.169  0.00  0.00    +0.000 C 
ATOM     22  C   UNL     1      -8.339  -1.137 123.046  0.00  0.00    +0.000 C 
ENDBRANCH   2  21
TORSDOF 6
ENDMDL
MODEL 4
REMARK VINA RESULT:      -6.0      1.038      6.853
REMARK  Name = Diethylstilbestrol
REMARK  8 active torsions:
REMARK  status: ('A' for Active; 'I' for Inactive)
REMARK    1  A    between atoms: C_1  and  C_2
REMARK    2  A    between atoms: C_2  and  C_3
REMARK    3  A    between atoms: C_3  and  C_14
REMARK    4  A    between atoms: C_4  and  C_5
REMARK    5  A    between atoms: C_4  and  C_7
REMARK    6  A    between atoms: C_5  and  C_6
REMARK    7  A    between atoms: C_10  and  O_11
REMARK    8  A    between atoms: C_17  and  O_18
REMARK                            x       y       z     vdW  Elec       q    Type
REMARK                         _______ _______ _______ _____ _____    ______ ____
ROOT
ATOM      1  C   UNL     1      -6.928  -0.907 125.556  0.00  0.00    +0.000 C 
ATOM      2  C   UNL     1      -7.706   0.237 125.538  0.00  0.00    +0.000 C 
ENDROOT
BRANCH   2   3
ATOM      3  C   UNL     1      -7.906   1.088 124.293  0.00  0.00    +0.000 A 
ATOM      4  C   UNL     1      -6.911   1.972 123.847  0.00  0.00    +0.000 A 
ATOM      5  C   UNL     1      -7.210   3.003 122.933  0.00  0.00    +0.000 A 
ATOM      6  C   UNL     1      -8.434   3.006 122.279  0.00  0.00    +0.000 A 
ATOM      7  C   UNL     1      -9.358   2.010 122.543  0.00  0.00    +0.000 A 
ATOM      8  C   UNL     1      -9.113   1.079 123.566  0.00  0.00    +0.000 A 
BRANCH   6   9
ATOM      9  O   UNL     1      -8.773   3.978 121.385  0.00  0.00    +0.000 OA
ATOM     10  H   UNL     1      -8.717   4.843 121.821  0.00  0.00    +0.000 HD
ENDBRANCH   6   9
ENDBRANCH   2   3
BRANCH   1  11
ATOM     11  C   UNL     1      -6.855  -1.838 126.757  0.00  0.00    +0.000 A 
ATOM     12  C   UNL     1      -5.709  -1.931 127.581  0.00  0.00    +0.000 A 
ATOM     13  C   UNL     1      -5.746  -2.621 128.808  0.00  0.00    +0.000 A 
ATOM     14  C   UNL     1      -6.936  -3.160 129.258  0.00  0.00    +0.000 A 
ATOM     15  C   UNL     1      -8.053  -3.154 128.427  0.00  0.00    +0.000 A 
ATOM     16  C   UNL     1      -7.962  -2.601 127.139  0.00  0.00    +0.000 A 
BRANCH  14  17
ATOM     17  O   UNL     1      -7.083  -3.694 130.501  0.00  0.00    +0.000 OA
ATOM     18  H   UNL     1      -7.918  -4.194 130.537  0.00  0.00    +0.000 HD
ENDBRANCH  14  17
ENDBRANCH   1  11
BRANCH   1  20
ATOM     19  C   UNL     1      -6.513  -2.136 123.217  0.00  0.00    +0.000 C 
ATOM     20  C   UNL     1      -5.983  -1.433 124.454  0.00  0.00    +0.000 C 
ENDBRANCH   1  20
BRANCH   2  21
ATOM     21  C   UNL     1      -8.452   0.906 126.717  0.00  0.00    +0.000 C 
ATOM     22  C   UNL     1      -7.707   1.621 127.830  0.00  0.00    +0.000 C 
ENDBRANCH   2  21
TORSDOF 6
ENDMDL
MODEL 5
REMARK VINA RESULT:      -6.0      8.086     10.674
REMARK  Name = Diethylstilbestrol
REMARK  8 active torsions:
REMARK  status: ('A' for Active; 'I' for Inactive)
REMARK    1  A    between atoms: C_1  and  C_2
REMARK    2  A    between atoms: C_2  and  C_3
REMARK    3  A    between atoms: C_3  and  C_14
REMARK    4  A    between atoms: C_4  and  C_5
REMARK    5  A    between atoms: C_4  and  C_7
REMARK    6  A    between atoms: C_5  and  C_6
REMARK    7  A    between atoms: C_10  and  O_11
REMARK    8  A    between atoms: C_17  and  O_18
REMARK                            x       y       z     vdW  Elec       q    Type
REMARK                         _______ _______ _______ _____ _____    ______ ____
ROOT
ATOM      1  C   UNL     1      -5.133   6.540 131.648  0.00  0.00    +0.000 C 
ATOM      2  C   UNL     1      -4.071   7.203 131.060  0.00  0.00    +0.000 C 
ENDROOT
BRANCH   2   3
ATOM      3  C   UNL     1      -2.719   7.374 131.737  0.00  0.00    +0.000 A 
ATOM      4  C   UNL     1      -1.716   6.400 131.617  0.00  0.00    +0.000 A 
ATOM      5  C   UNL     1      -0.622   6.369 132.506  0.00  0.00    +0.000 A 
ATOM      6  C   UNL     1      -0.398   7.444 133.355  0.00  0.00    +0.000 A 
ATOM      7  C   UNL     1      -1.260   8.527 133.337  0.00  0.00    +0.000 A 
ATOM      8  C   UNL     1      -2.430   8.479 132.562  0.00  0.00    +0.000 A 
BRANCH   6   9
ATOM      9  O   UNL     1       0.645   7.466 134.232  0.00  0.00    +0.000 OA
ATOM     10  H   UNL     1       0.441   6.886 134.983  0.00  0.00    +0.000 HD
ENDBRANCH   6   9
ENDBRANCH   2   3
BRANCH   1  11
ATOM     11  C   UNL     1      -6.428   6.237 130.910  0.00  0.00    +0.000 A 
ATOM     12  C   UNL     1      -6.593   5.091 130.096  0.00  0.00    +0.000 A 
ATOM     13  C   UNL     1      -7.860   4.714 129.613  0.00  0.00    +0.000 A 
ATOM     14  C   UNL     1      -8.981   5.428 129.993  0.00  0.00    +0.000 A 
ATOM     15  C   UNL     1      -8.834   6.604 130.722  0.00  0.00    +0.000 A 
ATOM     16  C   UNL     1      -7.550   7.058 131.066  0.00  0.00    +0.000 A 
BRANCH  14  17
ATOM     17  O   UNL     1     -10.248   5.027 129.700  0.00  0.00    +0.000 OA
ATOM     18  H   UNL     1     -10.530   5.443 128.867  0.00  0.00    +0.000 HD
ENDBRANCH  14  17
ENDBRANCH   1  11
BRANCH   1  20
ATOM     19  C   UNL     1      -4.647   4.720 133.546  0.00  0.00    +0.000 C 
ATOM     20  C   UNL     1      -5.255   6.040 133.104  0.00  0.00    +0.000 C 
ENDBRANCH   1  20
BRANCH   2  21
ATOM     21  C   UNL     1      -4.034   7.930 129.694  0.00  0.00    +0.000 C 
ATOM     22  C   UNL     1      -3.452   7.272 128.455  0.00  0.00    +0.000 C 
ENDBRANCH   2  21
TORSDOF 6
ENDMDL
MODEL 6
REMARK VINA RESULT:      -6.0      1.090      7.231
REMARK  Name = Diethylstilbestrol
REMARK  8 active torsions:
REMARK  status: ('A' for Active; 'I' for Inactive)
REMARK    1  A    between atoms: C_1  and  C_2
REMARK    2  A    between atoms: C_2  and  C_3
REMARK    3  A    between atoms: C_3  and  C_14
REMARK    4  A    between atoms: C_4  and  C_5
REMARK    5  A    between atoms: C_4  and  C_7
REMARK    6  A    between atoms: C_5  and  C_6
REMARK    7  A    between atoms: C_10  and  O_11
REMARK    8  A    between atoms: C_17  and  O_18
REMARK                            x       y       z     vdW  Elec       q    Type
REMARK                         _______ _______ _______ _____ _____    ______ ____
ROOT
ATOM      1  C   UNL     1      -7.516  -0.860 127.371  0.00  0.00    +0.000 C 
ATOM      2  C   UNL     1      -8.119  -1.114 126.152  0.00  0.00    +0.000 C 
ENDROOT
BRANCH   2   3
ATOM      3  C   UNL     1      -8.364  -0.040 125.104  0.00  0.00    +0.000 A 
ATOM      4  C   UNL     1      -7.406   0.249 124.119  0.00  0.00    +0.000 A 
ATOM      5  C   UNL     1      -7.457   1.451 123.383  0.00  0.00    +0.000 A 
ATOM      6  C   UNL     1      -8.590   2.250 123.454  0.00  0.00    +0.000 A 
ATOM      7  C   UNL     1      -9.650   1.872 124.259  0.00  0.00    +0.000 A 
ATOM      8  C   UNL     1      -9.526   0.757 125.104  0.00  0.00    +0.000 A 
BRANCH   6   9
ATOM      9  O   UNL     1      -8.692   3.420 122.763  0.00  0.00    +0.000 OA
ATOM     10  H   UNL     1      -8.091   4.074 123.156  0.00  0.00    +0.000 HD
ENDBRANCH   6   9
ENDBRANCH   2   3
BRANCH   1  11
ATOM     11  C   UNL     1      -7.134  -1.959 128.350  0.00  0.00    +0.000 A 
ATOM     12  C   UNL     1      -5.826  -2.496 128.423  0.00  0.00    +0.000 A 
ATOM     13  C   UNL     1      -5.442  -3.341 129.481  0.00  0.00    +0.000 A 
ATOM     14  C   UNL     1      -6.327  -3.601 130.510  0.00  0.00    +0.000 A 
ATOM     15  C   UNL     1      -7.642  -3.153 130.417  0.00  0.00    +0.000 A 
ATOM     16  C   UNL     1      -8.059  -2.442 129.279  0.00  0.00    +0.000 A 
BRANCH  14  17
ATOM     17  O   UNL     1      -5.972  -4.270 131.641  0.00  0.00    +0.000 OA
ATOM     18  H   UNL     1      -5.295  -4.934 131.419  0.00  0.00    +0.000 HD
ENDBRANCH  14  17
ENDBRANCH   1  11
BRANCH   1  20
ATOM     19  C   UNL     1      -8.220   1.380 128.652  0.00  0.00    +0.000 C 
ATOM     20  C   UNL     1      -7.165   0.510 127.991  0.00  0.00    +0.000 C 
ENDBRANCH   1  20
BRANCH   2  21
ATOM     21  C   UNL     1      -8.704  -2.451 125.634  0.00  0.00    +0.000 C 
ATOM     22  C   UNL     1      -7.848  -3.461 124.892  0.00  0.00    +0.000 C 
ENDBRANCH   2  21
TORSDOF 6
ENDMDL
MODEL 7
REMARK VINA RESULT:      -6.0      2.607      7.882
REMARK  Name = Diethylstilbestrol
REMARK  8 active torsions:
REMARK  status: ('A' for Active; 'I' for Inactive)
REMARK    1  A    between atoms: C_1  and  C_2
REMARK    2  A    between atoms: C_2  and  C_3
REMARK    3  A    between atoms: C_3  and  C_14
REMARK    4  A    between atoms: C_4  and  C_5
REMARK    5  A    between atoms: C_4  and  C_7
REMARK    6  A    between atoms: C_5  and  C_6
REMARK    7  A    between atoms: C_10  and  O_11
REMARK    8  A    between atoms: C_17  and  O_18
REMARK                            x       y       z     vdW  Elec       q    Type
REMARK                         _______ _______ _______ _____ _____    ______ ____
ROOT
ATOM      1  C   UNL     1      -6.581  -3.030 129.325  0.00  0.00    +0.000 C 
ATOM      2  C   UNL     1      -5.492  -2.651 128.560  0.00  0.00    +0.000 C 
ENDROOT
BRANCH   2   3
ATOM      3  C   UNL     1      -5.618  -1.850 127.273  0.00  0.00    +0.000 A 
ATOM      4  C   UNL     1      -5.681  -0.448 127.290  0.00  0.00    +0.000 A 
ATOM      5  C   UNL     1      -6.149   0.274 126.173  0.00  0.00    +0.000 A 
ATOM      6  C   UNL     1      -6.322  -0.378 124.960  0.00  0.00    +0.000 A 
ATOM      7  C   UNL     1      -6.054  -1.732 124.861  0.00  0.00    +0.000 A 
ATOM      8  C   UNL     1      -5.739  -2.470 126.013  0.00  0.00    +0.000 A 
BRANCH   6   9
ATOM      9  O   UNL     1      -6.770   0.272 123.848  0.00  0.00    +0.000 OA
ATOM     10  H   UNL     1      -7.248   1.073 124.119  0.00  0.00    +0.000 HD
ENDBRANCH   6   9
ENDBRANCH   2   3
BRANCH   1  11
ATOM     11  C   UNL     1      -6.443  -3.694 130.686  0.00  0.00    +0.000 A 
ATOM     12  C   UNL     1      -5.678  -4.867 130.890  0.00  0.00    +0.000 A 
ATOM     13  C   UNL     1      -5.380  -5.329 132.186  0.00  0.00    +0.000 A 
ATOM     14  C   UNL     1      -5.776  -4.593 133.286  0.00  0.00    +0.000 A 
ATOM     15  C   UNL     1      -6.599  -3.485 133.113  0.00  0.00    +0.000 A 
ATOM     16  C   UNL     1      -7.022  -3.123 131.823  0.00  0.00    +0.000 A 
BRANCH  14  17
ATOM     17  O   UNL     1      -5.384  -4.890 134.555  0.00  0.00    +0.000 OA
ATOM     18  H   UNL     1      -4.492  -5.278 134.531  0.00  0.00    +0.000 HD
ENDBRANCH  14  17
ENDBRANCH   1  11
BRANCH   1  20
ATOM     19  C   UNL     1      -8.737  -3.867 127.983  0.00  0.00    +0.000 C 
ATOM     20  C   UNL     1      -8.079  -2.919 128.969  0.00  0.00    +0.000 C 
ENDBRANCH   1  20
BRANCH   2  21
ATOM     21  C   UNL     1      -3.998  -2.986 128.788  0.00  0.00    +0.000 C 
ATOM     22  C   UNL     1      -3.193  -2.329 129.894  0.00  0.00    +0.000 C 
ENDBRANCH   2  21
TORSDOF 6
ENDMDL
MODEL 8
REMARK VINA RESULT:      -6.0      2.601      4.215
REMARK  Name = Diethylstilbestrol
REMARK  8 active torsions:
REMARK  status: ('A' for Active; 'I' for Inactive)
REMARK    1  A    between atoms: C_1  and  C_2
REMARK    2  A    between atoms: C_2  and  C_3
REMARK    3  A    between atoms: C_3  and  C_14
REMARK    4  A    between atoms: C_4  and  C_5
REMARK    5  A    between atoms: C_4  and  C_7
REMARK    6  A    between atoms: C_5  and  C_6
REMARK    7  A    between atoms: C_10  and  O_11
REMARK    8  A    between atoms: C_17  and  O_18
REMARK                            x       y       z     vdW  Elec       q    Type
REMARK                         _______ _______ _______ _____ _____    ______ ____
ROOT
ATOM      1  C   UNL     1      -6.864   2.461 123.815  0.00  0.00    +0.000 C 
ATOM      2  C   UNL     1      -6.934   1.143 124.229  0.00  0.00    +0.000 C 
ENDROOT
BRANCH   2   3
ATOM      3  C   UNL     1      -6.863   0.724 125.690  0.00  0.00    +0.000 A 
ATOM      4  C   UNL     1      -7.983   0.816 126.530  0.00  0.00    +0.000 A 
ATOM      5  C   UNL     1      -7.847   0.777 127.933  0.00  0.00    +0.000 A 
ATOM      6  C   UNL     1      -6.634   0.405 128.493  0.00  0.00    +0.000 A 
ATOM      7  C   UNL     1      -5.563   0.095 127.674  0.00  0.00    +0.000 A 
ATOM      8  C   UNL     1      -5.663   0.286 126.286  0.00  0.00    +0.000 A 
BRANCH   6   9
ATOM      9  O   UNL     1      -6.448   0.349 129.843  0.00  0.00    +0.000 OA
ATOM     10  H   UNL     1      -5.508   0.491 130.041  0.00  0.00    +0.000 HD
ENDBRANCH   6   9
ENDBRANCH   2   3
BRANCH   1  11
ATOM     11  C   UNL     1      -7.090   2.888 122.373  0.00  0.00    +0.000 A 
ATOM     12  C   UNL     1      -8.374   3.182 121.857  0.00  0.00    +0.000 A 
ATOM     13  C   UNL     1      -8.533   3.791 120.597  0.00  0.00    +0.000 A 
ATOM     14  C   UNL     1      -7.419   4.177 119.875  0.00  0.00    +0.000 A 
ATOM     15  C   UNL     1      -6.151   3.823 120.323  0.00  0.00    +0.000 A 
ATOM     16  C   UNL     1      -6.010   3.076 121.505  0.00  0.00    +0.000 A 
BRANCH  14  17
ATOM     17  O   UNL     1      -7.497   4.913 118.733  0.00  0.00    +0.000 OA
ATOM     18  H   UNL     1      -8.044   4.438 118.083  0.00  0.00    +0.000 HD
ENDBRANCH  14  17
ENDBRANCH   1  11
BRANCH   1  20
ATOM     19  C   UNL     1      -5.076   4.045 125.019  0.00  0.00    +0.000 C 
ATOM     20  C   UNL     1      -6.511   3.706 124.659  0.00  0.00    +0.000 C 
ENDBRANCH   1  20
BRANCH   2  21
ATOM     21  C   UNL     1      -7.032  -0.131 123.356  0.00  0.00    +0.000 C 
ATOM     22  C   UNL     1      -8.314  -0.938 123.264  0.00  0.00    +0.000 C 
ENDBRANCH   2  21
TORSDOF 6
ENDMDL
MODEL 9
REMARK VINA RESULT:      -5.8      3.638      6.726
REMARK  Name = Diethylstilbestrol
REMARK  8 active torsions:
REMARK  status: ('A' for Active; 'I' for Inactive)
REMARK    1  A    between atoms: C_1  and  C_2
REMARK    2  A    between atoms: C_2  and  C_3
REMARK    3  A    between atoms: C_3  and  C_14
REMARK    4  A    between atoms: C_4  and  C_5
REMARK    5  A    between atoms: C_4  and  C_7
REMARK    6  A    between atoms: C_5  and  C_6
REMARK    7  A    between atoms: C_10  and  O_11
REMARK    8  A    between atoms: C_17  and  O_18
REMARK                            x       y       z     vdW  Elec       q    Type
REMARK                         _______ _______ _______ _____ _____    ______ ____
ROOT
ATOM      1  C   UNL     1      -5.640   2.224 126.254  0.00  0.00    +0.000 C 
ATOM      2  C   UNL     1      -6.432   2.667 125.209  0.00  0.00    +0.000 C 
ENDROOT
BRANCH   2   3
ATOM      3  C   UNL     1      -7.584   1.856 124.636  0.00  0.00    +0.000 A 
ATOM      4  C   UNL     1      -7.355   0.677 123.909  0.00  0.00    +0.000 A 
ATOM      5  C   UNL     1      -8.357   0.124 123.085  0.00  0.00    +0.000 A 
ATOM      6  C   UNL     1      -9.657   0.601 123.172  0.00  0.00    +0.000 A 
ATOM      7  C   UNL     1      -9.956   1.629 124.049  0.00  0.00    +0.000 A 
ATOM      8  C   UNL     1      -8.925   2.276 124.750  0.00  0.00    +0.000 A 
BRANCH   6   9
ATOM      9  O   UNL     1     -10.662   0.101 122.400  0.00  0.00    +0.000 OA
ATOM     10  H   UNL     1     -10.762   0.656 121.609  0.00  0.00    +0.000 HD
ENDBRANCH   6   9
ENDBRANCH   2   3
BRANCH   1  11
ATOM     11  C   UNL     1      -4.592   3.097 126.925  0.00  0.00    +0.000 A 
ATOM     12  C   UNL     1      -3.209   2.979 126.650  0.00  0.00    +0.000 A 
ATOM     13  C   UNL     1      -2.289   3.942 127.105  0.00  0.00    +0.000 A 
ATOM     14  C   UNL     1      -2.741   5.063 127.774  0.00  0.00    +0.000 A 
ATOM     15  C   UNL     1      -4.083   5.159 128.129  0.00  0.00    +0.000 A 
ATOM     16  C   UNL     1      -4.968   4.116 127.807  0.00  0.00    +0.000 A 
BRANCH  14  17
ATOM     17  O   UNL     1      -1.932   6.109 128.097  0.00  0.00    +0.000 OA
ATOM     18  H   UNL     1      -2.480   6.855 128.400  0.00  0.00    +0.000 HD
ENDBRANCH  14  17
ENDBRANCH   1  11
BRANCH   1  20
ATOM     19  C   UNL     1      -6.649   0.384 127.913  0.00  0.00    +0.000 C 
ATOM     20  C   UNL     1      -5.610   0.819 126.895  0.00  0.00    +0.000 C 
ENDBRANCH   1  20
BRANCH   2  21
ATOM     21  C   UNL     1      -6.298   3.977 124.395  0.00  0.00    +0.000 C 
ATOM     22  C   UNL     1      -5.734   3.986 122.986  0.00  0.00    +0.000 C 
ENDBRANCH   2  21
TORSDOF 6
ENDMDL
