MODEL 1
REMARK VINA RESULT:      -6.0      0.000      0.000
REMARK  Name = Diethylpropion
REMARK  8 active torsions:
REMARK  status: ('A' for Active; 'I' for Inactive)
REMARK    1  A    between atoms: C_1  and  C_2
REMARK    2  A    between atoms: C_2  and  N_3
REMARK    3  A    between atoms: N_3  and  C_4
REMARK    4  A    between atoms: N_3  and  C_6
REMARK    5  A    between atoms: C_4  and  C_5
REMARK    6  A    between atoms: C_6  and  C_7
REMARK    7  A    between atoms: C_6  and  C_8
REMARK    8  A    between atoms: C_8  and  C_10
REMARK                            x       y       z     vdW  Elec       q    Type
REMARK                         _______ _______ _______ _____ _____    ______ ____
ROOT
ATOM      1  C   UNL     1     -11.840   6.369 131.026  0.00  0.00    +0.000 C 
ATOM      2  O   UNL     1     -12.442   6.557 132.077  0.00  0.00    +0.000 OA
ENDROOT
BRANCH   1   3
ATOM      3  C   UNL     1     -12.368   7.130 129.854  0.00  0.00    +0.000 A 
ATOM      4  C   UNL     1     -12.346   8.530 129.873  0.00  0.00    +0.000 A 
ATOM      5  C   UNL     1     -13.042   9.249 128.892  0.00  0.00    +0.000 A 
ATOM      6  C   UNL     1     -13.671   8.581 127.841  0.00  0.00    +0.000 A 
ATOM      7  C   UNL     1     -13.672   7.196 127.804  0.00  0.00    +0.000 A 
ATOM      8  C   UNL     1     -13.074   6.488 128.838  0.00  0.00    +0.000 A 
ENDBRANCH   1   3
BRANCH   1   9
ATOM      9  C   UNL     1     -10.567   5.452 130.856  0.00  0.00    +0.000 C 
ATOM     10  C   UNL     1     -10.983   4.055 130.365  0.00  0.00    +0.000 C 
BRANCH   9  11
ATOM     11  N   UNL     1      -9.772   5.337 132.147  0.00  0.00    +0.000 NA
BRANCH  11  13
ATOM     12  C   UNL     1      -8.916   3.553 133.781  0.00  0.00    +0.000 C 
ATOM     13  C   UNL     1      -9.376   3.926 132.382  0.00  0.00    +0.000 C 
ENDBRANCH  11  13
BRANCH  11  14
ATOM     14  C   UNL     1      -8.596   6.242 132.111  0.00  0.00    +0.000 C 
ATOM     15  C   UNL     1      -8.320   6.916 130.773  0.00  0.00    +0.000 C 
ENDBRANCH  11  14
ENDBRANCH   9  11
ENDBRANCH   1   9
TORSDOF 5
ENDMDL
MODEL 2
REMARK VINA RESULT:      -5.8      9.493     11.405
REMARK  Name = Diethylpropion
REMARK  8 active torsions:
REMARK  status: ('A' for Active; 'I' for Inactive)
REMARK    1  A    between atoms: C_1  and  C_2
REMARK    2  A    between atoms: C_2  and  N_3
REMARK    3  A    between atoms: N_3  and  C_4
REMARK    4  A    between atoms: N_3  and  C_6
REMARK    5  A    between atoms: C_4  and  C_5
REMARK    6  A    between atoms: C_6  and  C_7
REMARK    7  A    between atoms: C_6  and  C_8
REMARK    8  A    between atoms: C_8  and  C_10
REMARK                            x       y       z     vdW  Elec       q    Type
REMARK                         _______ _______ _______ _____ _____    ______ ____
ROOT
ATOM      1  C   UNL     1      -8.519  -1.020 125.692  0.00  0.00    +0.000 C 
ATOM      2  O   UNL     1      -9.602  -0.446 125.667  0.00  0.00    +0.000 OA
ENDROOT
BRANCH   1   3
ATOM      3  C   UNL     1      -8.306  -1.908 126.875  0.00  0.00    +0.000 A 
ATOM      4  C   UNL     1      -8.890  -3.180 126.898  0.00  0.00    +0.000 A 
ATOM      5  C   UNL     1      -8.890  -3.923 128.086  0.00  0.00    +0.000 A 
ATOM      6  C   UNL     1      -8.225  -3.446 129.217  0.00  0.00    +0.000 A 
ATOM      7  C   UNL     1      -7.623  -2.198 129.190  0.00  0.00    +0.000 A 
ATOM      8  C   UNL     1      -7.721  -1.421 128.043  0.00  0.00    +0.000 A 
ENDBRANCH   1   3
BRANCH   1   9
ATOM      9  C   UNL     1      -7.409  -0.922 124.576  0.00  0.00    +0.000 C 
ATOM     10  C   UNL     1      -7.688   0.278 123.655  0.00  0.00    +0.000 C 
BRANCH   9  11
ATOM     11  N   UNL     1      -7.313  -2.199 123.755  0.00  0.00    +0.000 NA
BRANCH  11  13
ATOM     12  C   UNL     1      -9.565  -3.329 123.270  0.00  0.00    +0.000 C 
ATOM     13  C   UNL     1      -8.495  -2.329 122.867  0.00  0.00    +0.000 C 
ENDBRANCH  11  13
BRANCH  11  14
ATOM     14  C   UNL     1      -6.042  -2.225 122.988  0.00  0.00    +0.000 C 
ATOM     15  C   UNL     1      -4.946  -3.119 123.556  0.00  0.00    +0.000 C 
ENDBRANCH  11  14
ENDBRANCH   9  11
ENDBRANCH   1   9
TORSDOF 5
ENDMDL
MODEL 3
REMARK VINA RESULT:      -5.7      9.554     11.312
REMARK  Name = Diethylpropion
REMARK  8 active torsions:
REMARK  status: ('A' for Active; 'I' for Inactive)
REMARK    1  A    between atoms: C_1  and  C_2
REMARK    2  A    between atoms: C_2  and  N_3
REMARK    3  A    between atoms: N_3  and  C_4
REMARK    4  A    between atoms: N_3  and  C_6
REMARK    5  A    between atoms: C_4  and  C_5
REMARK    6  A    between atoms: C_6  and  C_7
REMARK    7  A    between atoms: C_6  and  C_8
REMARK    8  A    between atoms: C_8  and  C_10
REMARK                            x       y       z     vdW  Elec       q    Type
REMARK                         _______ _______ _______ _____ _____    ______ ____
ROOT
ATOM      1  C   UNL     1      -8.825  -1.644 125.625  0.00  0.00    +0.000 C 
ATOM      2  O   UNL     1      -9.800  -0.901 125.625  0.00  0.00    +0.000 OA
ENDROOT
BRANCH   1   3
ATOM      3  C   UNL     1      -8.482  -2.229 126.957  0.00  0.00    +0.000 A 
ATOM      4  C   UNL     1      -8.929  -3.515 127.282  0.00  0.00    +0.000 A 
ATOM      5  C   UNL     1      -8.814  -3.978 128.599  0.00  0.00    +0.000 A 
ATOM      6  C   UNL     1      -8.166  -3.206 129.565  0.00  0.00    +0.000 A 
ATOM      7  C   UNL     1      -7.699  -1.944 129.240  0.00  0.00    +0.000 A 
ATOM      8  C   UNL     1      -7.914  -1.447 127.961  0.00  0.00    +0.000 A 
ENDBRANCH   1   3
BRANCH   1   9
ATOM      9  C   UNL     1      -7.981  -2.042 124.354  0.00  0.00    +0.000 C 
ATOM     10  C   UNL     1      -8.678  -3.181 123.590  0.00  0.00    +0.000 C 
BRANCH   9  11
ATOM     11  N   UNL     1      -6.562  -2.449 124.718  0.00  0.00    +0.000 NA
BRANCH  11  13
ATOM     12  C   UNL     1      -4.657  -3.842 123.710  0.00  0.00    +0.000 C 
ATOM     13  C   UNL     1      -6.146  -3.630 123.921  0.00  0.00    +0.000 C 
ENDBRANCH  11  13
BRANCH  11  14
ATOM     14  C   UNL     1      -5.633  -1.305 124.534  0.00  0.00    +0.000 C 
ATOM     15  C   UNL     1      -5.234  -0.567 125.806  0.00  0.00    +0.000 C 
ENDBRANCH  11  14
ENDBRANCH   9  11
ENDBRANCH   1   9
TORSDOF 5
ENDMDL
MODEL 4
REMARK VINA RESULT:      -5.6      1.498      2.439
REMARK  Name = Diethylpropion
REMARK  8 active torsions:
REMARK  status: ('A' for Active; 'I' for Inactive)
REMARK    1  A    between atoms: C_1  and  C_2
REMARK    2  A    between atoms: C_2  and  N_3
REMARK    3  A    between atoms: N_3  and  C_4
REMARK    4  A    between atoms: N_3  and  C_6
REMARK    5  A    between atoms: C_4  and  C_5
REMARK    6  A    between atoms: C_6  and  C_7
REMARK    7  A    between atoms: C_6  and  C_8
REMARK    8  A    between atoms: C_8  and  C_10
REMARK                            x       y       z     vdW  Elec       q    Type
REMARK                         _______ _______ _______ _____ _____    ______ ____
ROOT
ATOM      1  C   UNL     1     -10.285   5.927 129.585  0.00  0.00    +0.000 C 
ATOM      2  O   UNL     1      -9.352   5.706 128.822  0.00  0.00    +0.000 OA
ENDROOT
BRANCH   1   3
ATOM      3  C   UNL     1     -11.355   6.811 129.029  0.00  0.00    +0.000 A 
ATOM      4  C   UNL     1     -11.128   8.189 128.928  0.00  0.00    +0.000 A 
ATOM      5  C   UNL     1     -12.194   9.048 128.630  0.00  0.00    +0.000 A 
ATOM      6  C   UNL     1     -13.457   8.530 128.335  0.00  0.00    +0.000 A 
ATOM      7  C   UNL     1     -13.678   7.165 128.408  0.00  0.00    +0.000 A 
ATOM      8  C   UNL     1     -12.645   6.329 128.810  0.00  0.00    +0.000 A 
ENDBRANCH   1   3
BRANCH   1   9
ATOM      9  C   UNL     1     -10.443   5.321 131.033  0.00  0.00    +0.000 C 
ATOM     10  C   UNL     1     -11.062   6.364 131.978  0.00  0.00    +0.000 C 
BRANCH   9  11
ATOM     11  N   UNL     1      -9.117   4.830 131.592  0.00  0.00    +0.000 NA
BRANCH  11  13
ATOM     12  C   UNL     1      -7.208   6.544 131.547  0.00  0.00    +0.000 C 
ATOM     13  C   UNL     1      -8.402   5.941 132.267  0.00  0.00    +0.000 C 
ENDBRANCH  11  13
BRANCH  11  14
ATOM     14  C   UNL     1      -9.336   3.680 132.504  0.00  0.00    +0.000 C 
ATOM     15  C   UNL     1      -8.775   3.837 133.912  0.00  0.00    +0.000 C 
ENDBRANCH  11  14
ENDBRANCH   9  11
ENDBRANCH   1   9
TORSDOF 5
ENDMDL
MODEL 5
REMARK VINA RESULT:      -5.6      9.157     10.034
REMARK  Name = Diethylpropion
REMARK  8 active torsions:
REMARK  status: ('A' for Active; 'I' for Inactive)
REMARK    1  A    between atoms: C_1  and  C_2
REMARK    2  A    between atoms: C_2  and  N_3
REMARK    3  A    between atoms: N_3  and  C_4
REMARK    4  A    between atoms: N_3  and  C_6
REMARK    5  A    between atoms: C_4  and  C_5
REMARK    6  A    between atoms: C_6  and  C_7
REMARK    7  A    between atoms: C_6  and  C_8
REMARK    8  A    between atoms: C_8  and  C_10
REMARK                            x       y       z     vdW  Elec       q    Type
REMARK                         _______ _______ _______ _____ _____    ______ ____
ROOT
ATOM      1  C   UNL     1      -8.503   2.787 123.126  0.00  0.00    +0.000 C 
ATOM      2  O   UNL     1      -8.414   3.620 124.021  0.00  0.00    +0.000 OA
ENDROOT
BRANCH   1   3
ATOM      3  C   UNL     1      -7.965   3.225 121.803  0.00  0.00    +0.000 A 
ATOM      4  C   UNL     1      -6.585   3.402 121.644  0.00  0.00    +0.000 A 
ATOM      5  C   UNL     1      -6.095   4.029 120.491  0.00  0.00    +0.000 A 
ATOM      6  C   UNL     1      -6.962   4.387 119.458  0.00  0.00    +0.000 A 
ATOM      7  C   UNL     1      -8.326   4.189 119.602  0.00  0.00    +0.000 A 
ATOM      8  C   UNL     1      -8.816   3.667 120.791  0.00  0.00    +0.000 A 
ENDBRANCH   1   3
BRANCH   1   9
ATOM      9  C   UNL     1      -9.080   1.328 123.293  0.00  0.00    +0.000 C 
ATOM     10  C   UNL     1     -10.457   1.378 123.976  0.00  0.00    +0.000 C 
BRANCH   9  11
ATOM     11  N   UNL     1      -8.138   0.430 124.080  0.00  0.00    +0.000 NA
BRANCH  11  13
ATOM     12  C   UNL     1      -8.763  -1.089 126.051  0.00  0.00    +0.000 C 
ATOM     13  C   UNL     1      -8.861  -0.770 124.569  0.00  0.00    +0.000 C 
ENDBRANCH  11  13
BRANCH  11  14
ATOM     14  C   UNL     1      -6.960   0.066 123.252  0.00  0.00    +0.000 C 
ATOM     15  C   UNL     1      -6.758  -1.425 123.010  0.00  0.00    +0.000 C 
ENDBRANCH  11  14
ENDBRANCH   9  11
ENDBRANCH   1   9
TORSDOF 5
ENDMDL
MODEL 6
REMARK VINA RESULT:      -5.6      9.454     11.457
REMARK  Name = Diethylpropion
REMARK  8 active torsions:
REMARK  status: ('A' for Active; 'I' for Inactive)
REMARK    1  A    between atoms: C_1  and  C_2
REMARK    2  A    between atoms: C_2  and  N_3
REMARK    3  A    between atoms: N_3  and  C_4
REMARK    4  A    between atoms: N_3  and  C_6
REMARK    5  A    between atoms: C_4  and  C_5
REMARK    6  A    between atoms: C_6  and  C_7
REMARK    7  A    between atoms: C_6  and  C_8
REMARK    8  A    between atoms: C_8  and  C_10
REMARK                            x       y       z     vdW  Elec       q    Type
REMARK                         _______ _______ _______ _____ _____    ______ ____
ROOT
ATOM      1  C   UNL     1      -9.036  -0.630 123.246  0.00  0.00    +0.000 C 
ATOM      2  O   UNL     1      -9.984  -0.912 122.523  0.00  0.00    +0.000 OA
ENDROOT
BRANCH   1   3
ATOM      3  C   UNL     1      -8.007  -1.705 123.381  0.00  0.00    +0.000 A 
ATOM      4  C   UNL     1      -8.292  -2.840 124.149  0.00  0.00    +0.000 A 
ATOM      5  C   UNL     1      -7.264  -3.737 124.471  0.00  0.00    +0.000 A 
ATOM      6  C   UNL     1      -5.983  -3.559 123.947  0.00  0.00    +0.000 A 
ATOM      7  C   UNL     1      -5.704  -2.450 123.166  0.00  0.00    +0.000 A 
ATOM      8  C   UNL     1      -6.699  -1.508 122.941  0.00  0.00    +0.000 A 
ENDBRANCH   1   3
BRANCH   1   9
ATOM      9  C   UNL     1      -8.820   0.756 123.968  0.00  0.00    +0.000 C 
ATOM     10  C   UNL     1     -10.178   1.403 124.289  0.00  0.00    +0.000 C 
BRANCH   9  11
ATOM     11  N   UNL     1      -7.972   1.706 123.137  0.00  0.00    +0.000 NA
BRANCH  11  13
ATOM     12  C   UNL     1      -8.351   3.445 121.289  0.00  0.00    +0.000 C 
ATOM     13  C   UNL     1      -8.815   2.793 122.580  0.00  0.00    +0.000 C 
ENDBRANCH  11  13
BRANCH  11  14
ATOM     14  C   UNL     1      -6.848   2.238 123.948  0.00  0.00    +0.000 C 
ATOM     15  C   UNL     1      -6.428   1.384 125.138  0.00  0.00    +0.000 C 
ENDBRANCH  11  14
ENDBRANCH   9  11
ENDBRANCH   1   9
TORSDOF 5
ENDMDL
MODEL 7
REMARK VINA RESULT:      -5.5      9.438     11.194
REMARK  Name = Diethylpropion
REMARK  8 active torsions:
REMARK  status: ('A' for Active; 'I' for Inactive)
REMARK    1  A    between atoms: C_1  and  C_2
REMARK    2  A    between atoms: C_2  and  N_3
REMARK    3  A    between atoms: N_3  and  C_4
REMARK    4  A    between atoms: N_3  and  C_6
REMARK    5  A    between atoms: C_4  and  C_5
REMARK    6  A    between atoms: C_6  and  C_7
REMARK    7  A    between atoms: C_6  and  C_8
REMARK    8  A    between atoms: C_8  and  C_10
REMARK                            x       y       z     vdW  Elec       q    Type
REMARK                         _______ _______ _______ _____ _____    ______ ____
ROOT
ATOM      1  C   UNL     1      -8.614  -0.860 125.616  0.00  0.00    +0.000 C 
ATOM      2  O   UNL     1      -9.708  -0.322 125.491  0.00  0.00    +0.000 OA
ENDROOT
BRANCH   1   3
ATOM      3  C   UNL     1      -8.485  -1.754 126.807  0.00  0.00    +0.000 A 
ATOM      4  C   UNL     1      -7.631  -1.389 127.855  0.00  0.00    +0.000 A 
ATOM      5  C   UNL     1      -7.328  -2.319 128.858  0.00  0.00    +0.000 A 
ATOM      6  C   UNL     1      -7.950  -3.568 128.875  0.00  0.00    +0.000 A 
ATOM      7  C   UNL     1      -8.816  -3.922 127.854  0.00  0.00    +0.000 A 
ATOM      8  C   UNL     1      -9.028  -3.038 126.804  0.00  0.00    +0.000 A 
ENDBRANCH   1   3
BRANCH   1   9
ATOM      9  C   UNL     1      -7.405  -0.712 124.614  0.00  0.00    +0.000 C 
ATOM     10  C   UNL     1      -7.361   0.716 124.045  0.00  0.00    +0.000 C 
BRANCH   9  11
ATOM     11  N   UNL     1      -7.477  -1.724 123.482  0.00  0.00    +0.000 NA
BRANCH  11  13
ATOM     12  C   UNL     1      -5.555  -2.931 124.679  0.00  0.00    +0.000 C 
ATOM     13  C   UNL     1      -6.856  -3.006 123.898  0.00  0.00    +0.000 C 
ENDBRANCH  11  13
BRANCH  11  14
ATOM     14  C   UNL     1      -8.883  -1.909 123.043  0.00  0.00    +0.000 C 
ATOM     15  C   UNL     1      -9.459  -3.305 123.243  0.00  0.00    +0.000 C 
ENDBRANCH  11  14
ENDBRANCH   9  11
ENDBRANCH   1   9
TORSDOF 5
ENDMDL
MODEL 8
REMARK VINA RESULT:      -5.4      9.478     10.455
REMARK  Name = Diethylpropion
REMARK  8 active torsions:
REMARK  status: ('A' for Active; 'I' for Inactive)
REMARK    1  A    between atoms: C_1  and  C_2
REMARK    2  A    between atoms: C_2  and  N_3
REMARK    3  A    between atoms: N_3  and  C_4
REMARK    4  A    between atoms: N_3  and  C_6
REMARK    5  A    between atoms: C_4  and  C_5
REMARK    6  A    between atoms: C_6  and  C_7
REMARK    7  A    between atoms: C_6  and  C_8
REMARK    8  A    between atoms: C_8  and  C_10
REMARK                            x       y       z     vdW  Elec       q    Type
REMARK                         _______ _______ _______ _____ _____    ______ ____
ROOT
ATOM      1  C   UNL     1      -8.925  -0.650 124.186  0.00  0.00    +0.000 C 
ATOM      2  O   UNL     1      -9.732  -0.459 125.088  0.00  0.00    +0.000 OA
ENDROOT
BRANCH   1   3
ATOM      3  C   UNL     1      -8.464   0.585 123.483  0.00  0.00    +0.000 A 
ATOM      4  C   UNL     1      -7.114   0.953 123.549  0.00  0.00    +0.000 A 
ATOM      5  C   UNL     1      -6.717   2.218 123.095  0.00  0.00    +0.000 A 
ATOM      6  C   UNL     1      -7.639   3.071 122.486  0.00  0.00    +0.000 A 
ATOM      7  C   UNL     1      -8.970   2.699 122.396  0.00  0.00    +0.000 A 
ATOM      8  C   UNL     1      -9.377   1.491 122.946  0.00  0.00    +0.000 A 
ENDBRANCH   1   3
BRANCH   1   9
ATOM      9  C   UNL     1      -8.333  -2.054 123.774  0.00  0.00    +0.000 C 
ATOM     10  C   UNL     1      -9.462  -2.989 123.311  0.00  0.00    +0.000 C 
BRANCH   9  11
ATOM     11  N   UNL     1      -7.553  -2.698 124.909  0.00  0.00    +0.000 NA
BRANCH  11  13
ATOM     12  C   UNL     1      -8.757  -3.412 127.059  0.00  0.00    +0.000 C 
ATOM     13  C   UNL     1      -8.398  -3.695 125.611  0.00  0.00    +0.000 C 
ENDBRANCH  11  13
BRANCH  11  14
ATOM     14  C   UNL     1      -6.298  -3.302 124.395  0.00  0.00    +0.000 C 
ATOM     15  C   UNL     1      -5.613  -2.542 123.265  0.00  0.00    +0.000 C 
ENDBRANCH  11  14
ENDBRANCH   9  11
ENDBRANCH   1   9
TORSDOF 5
ENDMDL
MODEL 9
REMARK VINA RESULT:      -5.3      8.928     10.984
REMARK  Name = Diethylpropion
REMARK  8 active torsions:
REMARK  status: ('A' for Active; 'I' for Inactive)
REMARK    1  A    between atoms: C_1  and  C_2
REMARK    2  A    between atoms: C_2  and  N_3
REMARK    3  A    between atoms: N_3  and  C_4
REMARK    4  A    between atoms: N_3  and  C_6
REMARK    5  A    between atoms: C_4  and  C_5
REMARK    6  A    between atoms: C_6  and  C_7
REMARK    7  A    between atoms: C_6  and  C_8
REMARK    8  A    between atoms: C_8  and  C_10
REMARK                            x       y       z     vdW  Elec       q    Type
REMARK                         _______ _______ _______ _____ _____    ______ ____
ROOT
ATOM      1  C   UNL     1      -7.826  -0.529 126.322  0.00  0.00    +0.000 C 
ATOM      2  O   UNL     1      -7.884   0.612 126.766  0.00  0.00    +0.000 OA
ENDROOT
BRANCH   1   3
ATOM      3  C   UNL     1      -7.905  -1.609 127.351  0.00  0.00    +0.000 A 
ATOM      4  C   UNL     1      -8.449  -2.853 127.007  0.00  0.00    +0.000 A 
ATOM      5  C   UNL     1      -8.739  -3.786 128.011  0.00  0.00    +0.000 A 
ATOM      6  C   UNL     1      -8.396  -3.523 129.339  0.00  0.00    +0.000 A 
ATOM      7  C   UNL     1      -7.834  -2.304 129.679  0.00  0.00    +0.000 A 
ATOM      8  C   UNL     1      -7.650  -1.342 128.696  0.00  0.00    +0.000 A 
ENDBRANCH   1   3
BRANCH   1   9
ATOM      9  C   UNL     1      -7.728  -0.909 124.793  0.00  0.00    +0.000 C 
ATOM     10  C   UNL     1      -6.755   0.040 124.073  0.00  0.00    +0.000 C 
BRANCH   9  11
ATOM     11  N   UNL     1      -9.086  -0.881 124.112  0.00  0.00    +0.000 NA
BRANCH  11  13
ATOM     12  C   UNL     1     -10.329   0.593 122.419  0.00  0.00    +0.000 C 
ATOM     13  C   UNL     1      -9.373   0.479 123.593  0.00  0.00    +0.000 C 
ENDBRANCH  11  13
BRANCH  11  14
ATOM     14  C   UNL     1      -9.146  -1.905 123.038  0.00  0.00    +0.000 C 
ATOM     15  C   UNL     1      -9.526  -3.311 123.485  0.00  0.00    +0.000 C 
ENDBRANCH  11  14
ENDBRANCH   9  11
ENDBRANCH   1   9
TORSDOF 5
ENDMDL
