MODEL 1
REMARK VINA RESULT:      -9.3      0.000      0.000
REMARK  Name = Difenoxin
REMARK  9 active torsions:
REMARK  status: ('A' for Active; 'I' for Inactive)
REMARK    1  A    between atoms: O_1  and  C_2
REMARK    2  A    between atoms: C_2  and  C_4
REMARK    3  A    between atoms: C_4  and  C_27
REMARK    4  A    between atoms: N_7  and  C_8
REMARK    5  A    between atoms: C_8  and  C_9
REMARK    6  A    between atoms: C_9  and  C_10
REMARK    7  A    between atoms: C_10  and  C_11
REMARK    8  A    between atoms: C_10  and  C_13
REMARK    9  A    between atoms: C_10  and  C_19
REMARK                            x       y       z     vdW  Elec       q    Type
REMARK                         _______ _______ _______ _____ _____    ______ ____
ROOT
ATOM      1  C   UNL     1      -5.656   0.611 127.062  0.00  0.00    +0.000 C 
ENDROOT
BRANCH   1   5
ATOM      2  C   UNL     1      -7.398   2.634 123.764  0.00  0.00    +0.000 C 
ATOM      3  C   UNL     1      -7.460   1.089 123.847  0.00  0.00    +0.000 C 
ATOM      4  C   UNL     1      -7.179   0.602 125.263  0.00  0.00    +0.000 C 
ATOM      5  N   UNL     1      -5.887   1.137 125.728  0.00  0.00    +0.000 NA
ATOM      6  C   UNL     1      -5.901   2.591 125.791  0.00  0.00    +0.000 C 
ATOM      7  C   UNL     1      -6.093   3.122 124.407  0.00  0.00    +0.000 C 
BRANCH   2   8
ATOM      8  C   UNL     1      -7.430   3.087 122.304  0.00  0.00    +0.000 A 
ATOM      9  C   UNL     1      -6.255   3.402 121.592  0.00  0.00    +0.000 A 
ATOM     10  C   UNL     1      -6.316   4.038 120.364  0.00  0.00    +0.000 A 
ATOM     11  C   UNL     1      -7.549   4.240 119.763  0.00  0.00    +0.000 A 
ATOM     12  C   UNL     1      -8.720   3.862 120.417  0.00  0.00    +0.000 A 
ATOM     13  C   UNL     1      -8.665   3.291 121.682  0.00  0.00    +0.000 A 
ENDBRANCH   2   8
BRANCH   2  14
ATOM     14  C   UNL     1      -8.612   3.213 124.558  0.00  0.00    +0.000 C 
ATOM     15  O   UNL     1      -8.631   4.314 125.092  0.00  0.00    +0.000 OA
BRANCH  14  16
ATOM     16  O   UNL     1      -9.713   2.432 124.621  0.00  0.00    +0.000 OA
ATOM     17  H   UNL     1      -9.893   1.897 123.827  0.00  0.00    +0.000 HD
ENDBRANCH  14  16
ENDBRANCH   2  14
ENDBRANCH   1   5
BRANCH   1  18
ATOM     18  C   UNL     1      -5.388  -0.891 127.116  0.00  0.00    +0.000 C 
BRANCH  18  19
ATOM     19  C   UNL     1      -6.537  -1.729 127.769  0.00  0.00    +0.000 C 
BRANCH  19  20
ATOM     20  C   UNL     1      -7.361  -2.479 126.685  0.00  0.00    +0.000 A 
ATOM     21  C   UNL     1      -6.811  -2.921 125.474  0.00  0.00    +0.000 A 
ATOM     22  C   UNL     1      -7.600  -3.204 124.373  0.00  0.00    +0.000 A 
ATOM     23  C   UNL     1      -8.968  -3.319 124.536  0.00  0.00    +0.000 A 
ATOM     24  C   UNL     1      -9.540  -3.061 125.772  0.00  0.00    +0.000 A 
ATOM     25  C   UNL     1      -8.739  -2.674 126.841  0.00  0.00    +0.000 A 
ENDBRANCH  19  20
BRANCH  19  26
ATOM     26  C   UNL     1      -5.770  -2.674 128.731  0.00  0.00    +0.000 A 
ATOM     27  C   UNL     1      -4.380  -2.828 128.697  0.00  0.00    +0.000 A 
ATOM     28  C   UNL     1      -3.759  -3.697 129.594  0.00  0.00    +0.000 A 
ATOM     29  C   UNL     1      -4.484  -4.286 130.629  0.00  0.00    +0.000 A 
ATOM     30  C   UNL     1      -5.859  -4.160 130.668  0.00  0.00    +0.000 A 
ATOM     31  C   UNL     1      -6.491  -3.470 129.650  0.00  0.00    +0.000 A 
ENDBRANCH  19  26
BRANCH  19  32
ATOM     32  C   UNL     1      -7.447  -0.805 128.503  0.00  0.00    +0.000 C 
ATOM     33  N   UNL     1      -8.158  -0.050 129.048  0.00  0.00    +0.000 NA
ENDBRANCH  19  32
ENDBRANCH  18  19
ENDBRANCH   1  18
TORSDOF 9
ENDMDL
MODEL 2
REMARK VINA RESULT:      -8.8      7.648     10.070
REMARK  Name = Difenoxin
REMARK  9 active torsions:
REMARK  status: ('A' for Active; 'I' for Inactive)
REMARK    1  A    between atoms: O_1  and  C_2
REMARK    2  A    between atoms: C_2  and  C_4
REMARK    3  A    between atoms: C_4  and  C_27
REMARK    4  A    between atoms: N_7  and  C_8
REMARK    5  A    between atoms: C_8  and  C_9
REMARK    6  A    between atoms: C_9  and  C_10
REMARK    7  A    between atoms: C_10  and  C_11
REMARK    8  A    between atoms: C_10  and  C_13
REMARK    9  A    between atoms: C_10  and  C_19
REMARK                            x       y       z     vdW  Elec       q    Type
REMARK                         _______ _______ _______ _____ _____    ______ ____
ROOT
ATOM      1  C   UNL     1      -5.605   5.500 132.798  0.00  0.00    +0.000 C 
ENDROOT
BRANCH   1   5
ATOM      2  C   UNL     1      -9.235   6.154 130.701  0.00  0.00    +0.000 C 
ATOM      3  C   UNL     1      -8.099   7.203 130.630  0.00  0.00    +0.000 C 
ATOM      4  C   UNL     1      -6.770   6.605 131.071  0.00  0.00    +0.000 C 
ATOM      5  N   UNL     1      -6.907   6.019 132.416  0.00  0.00    +0.000 NA
ATOM      6  C   UNL     1      -7.870   4.928 132.428  0.00  0.00    +0.000 C 
ATOM      7  C   UNL     1      -9.215   5.480 132.080  0.00  0.00    +0.000 C 
BRANCH   2   8
ATOM      8  C   UNL     1     -10.592   6.829 130.501  0.00  0.00    +0.000 A 
ATOM      9  C   UNL     1     -10.840   7.710 129.429  0.00  0.00    +0.000 A 
ATOM     10  C   UNL     1     -11.981   8.494 129.400  0.00  0.00    +0.000 A 
ATOM     11  C   UNL     1     -12.959   8.306 130.364  0.00  0.00    +0.000 A 
ATOM     12  C   UNL     1     -12.768   7.380 131.388  0.00  0.00    +0.000 A 
ATOM     13  C   UNL     1     -11.591   6.646 131.461  0.00  0.00    +0.000 A 
ENDBRANCH   2   8
BRANCH   2  14
ATOM     14  C   UNL     1      -8.976   5.079 129.598  0.00  0.00    +0.000 C 
ATOM     15  O   UNL     1      -8.163   5.197 128.690  0.00  0.00    +0.000 OA
BRANCH  14  16
ATOM     16  O   UNL     1      -9.695   3.939 129.693  0.00  0.00    +0.000 OA
ATOM     17  H   UNL     1     -10.605   4.045 130.025  0.00  0.00    +0.000 HD
ENDBRANCH  14  16
ENDBRANCH   2  14
ENDBRANCH   1   5
BRANCH   1  18
ATOM     18  C   UNL     1      -4.459   6.501 132.668  0.00  0.00    +0.000 C 
BRANCH  18  19
ATOM     19  C   UNL     1      -3.105   5.874 132.200  0.00  0.00    +0.000 C 
BRANCH  19  20
ATOM     20  C   UNL     1      -3.104   5.637 130.664  0.00  0.00    +0.000 A 
ATOM     21  C   UNL     1      -3.478   4.420 130.077  0.00  0.00    +0.000 A 
ATOM     22  C   UNL     1      -3.094   4.082 128.790  0.00  0.00    +0.000 A 
ATOM     23  C   UNL     1      -2.567   5.057 127.965  0.00  0.00    +0.000 A 
ATOM     24  C   UNL     1      -2.345   6.333 128.460  0.00  0.00    +0.000 A 
ATOM     25  C   UNL     1      -2.639   6.625 129.786  0.00  0.00    +0.000 A 
ENDBRANCH  19  20
BRANCH  19  26
ATOM     26  C   UNL     1      -2.060   6.924 132.666  0.00  0.00    +0.000 A 
ATOM     27  C   UNL     1      -0.709   6.616 132.860  0.00  0.00    +0.000 A 
ATOM     28  C   UNL     1       0.172   7.611 133.281  0.00  0.00    +0.000 A 
ATOM     29  C   UNL     1      -0.240   8.942 133.351  0.00  0.00    +0.000 A 
ATOM     30  C   UNL     1      -1.573   9.262 133.180  0.00  0.00    +0.000 A 
ATOM     31  C   UNL     1      -2.479   8.238 132.972  0.00  0.00    +0.000 A 
ENDBRANCH  19  26
BRANCH  19  32
ATOM     32  C   UNL     1      -2.921   4.563 132.884  0.00  0.00    +0.000 C 
ATOM     33  N   UNL     1      -2.754   3.519 133.388  0.00  0.00    +0.000 NA
ENDBRANCH  19  32
ENDBRANCH  18  19
ENDBRANCH   1  18
TORSDOF 9
ENDMDL
MODEL 3
REMARK VINA RESULT:      -8.7      3.770      5.996
REMARK  Name = Difenoxin
REMARK  9 active torsions:
REMARK  status: ('A' for Active; 'I' for Inactive)
REMARK    1  A    between atoms: O_1  and  C_2
REMARK    2  A    between atoms: C_2  and  C_4
REMARK    3  A    between atoms: C_4  and  C_27
REMARK    4  A    between atoms: N_7  and  C_8
REMARK    5  A    between atoms: C_8  and  C_9
REMARK    6  A    between atoms: C_9  and  C_10
REMARK    7  A    between atoms: C_10  and  C_11
REMARK    8  A    between atoms: C_10  and  C_13
REMARK    9  A    between atoms: C_10  and  C_19
REMARK                            x       y       z     vdW  Elec       q    Type
REMARK                         _______ _______ _______ _____ _____    ______ ____
ROOT
ATOM      1  C   UNL     1      -6.681   1.469 126.149  0.00  0.00    +0.000 C 
ENDROOT
BRANCH   1   5
ATOM      2  C   UNL     1      -3.583   3.787 127.889  0.00  0.00    +0.000 C 
ATOM      3  C   UNL     1      -4.138   2.549 128.636  0.00  0.00    +0.000 C 
ATOM      4  C   UNL     1      -4.904   1.634 127.690  0.00  0.00    +0.000 C 
ATOM      5  N   UNL     1      -5.964   2.397 127.005  0.00  0.00    +0.000 NA
ATOM      6  C   UNL     1      -5.410   3.463 126.184  0.00  0.00    +0.000 C 
ATOM      7  C   UNL     1      -4.713   4.436 127.079  0.00  0.00    +0.000 C 
BRANCH   2   8
ATOM      8  C   UNL     1      -3.041   4.809 128.889  0.00  0.00    +0.000 A 
ATOM      9  C   UNL     1      -2.424   6.007 128.476  0.00  0.00    +0.000 A 
ATOM     10  C   UNL     1      -1.729   6.797 129.375  0.00  0.00    +0.000 A 
ATOM     11  C   UNL     1      -1.759   6.479 130.724  0.00  0.00    +0.000 A 
ATOM     12  C   UNL     1      -2.432   5.341 131.164  0.00  0.00    +0.000 A 
ATOM     13  C   UNL     1      -3.068   4.506 130.253  0.00  0.00    +0.000 A 
ENDBRANCH   2   8
BRANCH   2  14
ATOM     14  C   UNL     1      -2.461   3.306 126.916  0.00  0.00    +0.000 C 
ATOM     15  O   UNL     1      -2.260   3.772 125.802  0.00  0.00    +0.000 OA
BRANCH  14  16
ATOM     16  O   UNL     1      -1.655   2.322 127.372  0.00  0.00    +0.000 OA
ATOM     17  H   UNL     1      -0.736   2.586 127.558  0.00  0.00    +0.000 HD
ENDBRANCH  14  16
ENDBRANCH   2  14
ENDBRANCH   1   5
BRANCH   1  18
ATOM     18  C   UNL     1      -7.041   0.141 126.812  0.00  0.00    +0.000 C 
BRANCH  18  19
ATOM     19  C   UNL     1      -7.761  -0.878 125.867  0.00  0.00    +0.000 C 
BRANCH  19  20
ATOM     20  C   UNL     1      -6.799  -1.375 124.752  0.00  0.00    +0.000 A 
ATOM     21  C   UNL     1      -7.004  -1.112 123.391  0.00  0.00    +0.000 A 
ATOM     22  C   UNL     1      -6.408  -1.876 122.401  0.00  0.00    +0.000 A 
ATOM     23  C   UNL     1      -5.382  -2.737 122.741  0.00  0.00    +0.000 A 
ATOM     24  C   UNL     1      -5.025  -2.894 124.072  0.00  0.00    +0.000 A 
ATOM     25  C   UNL     1      -5.708  -2.197 125.061  0.00  0.00    +0.000 A 
ENDBRANCH  19  20
BRANCH  19  26
ATOM     26  C   UNL     1      -8.209  -1.997 126.845  0.00  0.00    +0.000 A 
ATOM     27  C   UNL     1      -9.058  -3.042 126.465  0.00  0.00    +0.000 A 
ATOM     28  C   UNL     1      -9.418  -4.013 127.399  0.00  0.00    +0.000 A 
ATOM     29  C   UNL     1      -8.816  -4.048 128.656  0.00  0.00    +0.000 A 
ATOM     30  C   UNL     1      -7.989  -3.015 129.054  0.00  0.00    +0.000 A 
ATOM     31  C   UNL     1      -7.804  -1.946 128.198  0.00  0.00    +0.000 A 
ENDBRANCH  19  26
BRANCH  19  32
ATOM     32  C   UNL     1      -8.922  -0.199 125.226  0.00  0.00    +0.000 C 
ATOM     33  N   UNL     1      -9.840   0.358 124.757  0.00  0.00    +0.000 NA
ENDBRANCH  19  32
ENDBRANCH  18  19
ENDBRANCH   1  18
TORSDOF 9
ENDMDL
MODEL 4
REMARK VINA RESULT:      -8.6      4.087      7.910
REMARK  Name = Difenoxin
REMARK  9 active torsions:
REMARK  status: ('A' for Active; 'I' for Inactive)
REMARK    1  A    between atoms: O_1  and  C_2
REMARK    2  A    between atoms: C_2  and  C_4
REMARK    3  A    between atoms: C_4  and  C_27
REMARK    4  A    between atoms: N_7  and  C_8
REMARK    5  A    between atoms: C_8  and  C_9
REMARK    6  A    between atoms: C_9  and  C_10
REMARK    7  A    between atoms: C_10  and  C_11
REMARK    8  A    between atoms: C_10  and  C_13
REMARK    9  A    between atoms: C_10  and  C_19
REMARK                            x       y       z     vdW  Elec       q    Type
REMARK                         _______ _______ _______ _____ _____    ______ ____
ROOT
ATOM      1  C   UNL     1      -5.282   3.882 125.265  0.00  0.00    +0.000 C 
ENDROOT
BRANCH   1   5
ATOM      2  C   UNL     1      -3.533   5.130 128.923  0.00  0.00    +0.000 C 
ATOM      3  C   UNL     1      -2.742   4.212 127.959  0.00  0.00    +0.000 C 
ATOM      4  C   UNL     1      -3.344   4.235 126.560  0.00  0.00    +0.000 C 
ATOM      5  N   UNL     1      -4.773   3.880 126.625  0.00  0.00    +0.000 NA
ATOM      6  C   UNL     1      -5.528   4.844 127.411  0.00  0.00    +0.000 C 
ATOM      7  C   UNL     1      -5.029   4.802 128.819  0.00  0.00    +0.000 C 
BRANCH   2   8
ATOM      8  C   UNL     1      -3.076   4.901 130.365  0.00  0.00    +0.000 A 
ATOM      9  C   UNL     1      -2.115   5.725 130.986  0.00  0.00    +0.000 A 
ATOM     10  C   UNL     1      -1.539   5.363 132.191  0.00  0.00    +0.000 A 
ATOM     11  C   UNL     1      -2.016   4.249 132.865  0.00  0.00    +0.000 A 
ATOM     12  C   UNL     1      -3.023   3.466 132.305  0.00  0.00    +0.000 A 
ATOM     13  C   UNL     1      -3.551   3.786 131.060  0.00  0.00    +0.000 A 
ENDBRANCH   2   8
BRANCH   2  14
ATOM     14  C   UNL     1      -3.298   6.611 128.489  0.00  0.00    +0.000 C 
ATOM     15  O   UNL     1      -2.326   7.004 127.856  0.00  0.00    +0.000 OA
BRANCH  14  16
ATOM     16  O   UNL     1      -4.264   7.493 128.827  0.00  0.00    +0.000 OA
ATOM     17  H   UNL     1      -3.975   8.235 129.388  0.00  0.00    +0.000 HD
ENDBRANCH  14  16
ENDBRANCH   2  14
ENDBRANCH   1   5
BRANCH   1  18
ATOM     18  C   UNL     1      -5.818   2.535 124.785  0.00  0.00    +0.000 C 
BRANCH  18  19
ATOM     19  C   UNL     1      -7.271   2.588 124.207  0.00  0.00    +0.000 C 
BRANCH  19  20
ATOM     20  C   UNL     1      -7.254   2.935 122.692  0.00  0.00    +0.000 A 
ATOM     21  C   UNL     1      -6.072   3.120 121.962  0.00  0.00    +0.000 A 
ATOM     22  C   UNL     1      -6.054   3.813 120.764  0.00  0.00    +0.000 A 
ATOM     23  C   UNL     1      -7.249   4.098 120.131  0.00  0.00    +0.000 A 
ATOM     24  C   UNL     1      -8.449   3.770 120.744  0.00  0.00    +0.000 A 
ATOM     25  C   UNL     1      -8.448   3.168 121.997  0.00  0.00    +0.000 A 
ENDBRANCH  19  20
BRANCH  19  26
ATOM     26  C   UNL     1      -7.814   1.166 124.512  0.00  0.00    +0.000 A 
ATOM     27  C   UNL     1      -8.653   0.891 125.597  0.00  0.00    +0.000 A 
ATOM     28  C   UNL     1      -9.102  -0.412 125.809  0.00  0.00    +0.000 A 
ATOM     29  C   UNL     1      -8.863  -1.409 124.863  0.00  0.00    +0.000 A 
ATOM     30  C   UNL     1      -8.023  -1.160 123.795  0.00  0.00    +0.000 A 
ATOM     31  C   UNL     1      -7.410   0.077 123.708  0.00  0.00    +0.000 A 
ENDBRANCH  19  26
BRANCH  19  32
ATOM     32  C   UNL     1      -8.036   3.643 124.929  0.00  0.00    +0.000 C 
ATOM     33  N   UNL     1      -8.652   4.443 125.522  0.00  0.00    +0.000 NA
ENDBRANCH  19  32
ENDBRANCH  18  19
ENDBRANCH   1  18
TORSDOF 9
ENDMDL
MODEL 5
REMARK VINA RESULT:      -8.6      7.051      9.280
REMARK  Name = Difenoxin
REMARK  9 active torsions:
REMARK  status: ('A' for Active; 'I' for Inactive)
REMARK    1  A    between atoms: O_1  and  C_2
REMARK    2  A    between atoms: C_2  and  C_4
REMARK    3  A    between atoms: C_4  and  C_27
REMARK    4  A    between atoms: N_7  and  C_8
REMARK    5  A    between atoms: C_8  and  C_9
REMARK    6  A    between atoms: C_9  and  C_10
REMARK    7  A    between atoms: C_10  and  C_11
REMARK    8  A    between atoms: C_10  and  C_13
REMARK    9  A    between atoms: C_10  and  C_19
REMARK                            x       y       z     vdW  Elec       q    Type
REMARK                         _______ _______ _______ _____ _____    ______ ____
ROOT
ATOM      1  C   UNL     1      -5.946   4.665 131.336  0.00  0.00    +0.000 C 
ENDROOT
BRANCH   1   5
ATOM      2  C   UNL     1      -9.676   6.398 130.297  0.00  0.00    +0.000 C 
ATOM      3  C   UNL     1      -9.169   5.142 129.547  0.00  0.00    +0.000 C 
ATOM      4  C   UNL     1      -8.066   4.442 130.330  0.00  0.00    +0.000 C 
ATOM      5  N   UNL     1      -6.981   5.395 130.625  0.00  0.00    +0.000 NA
ATOM      6  C   UNL     1      -7.444   6.490 131.463  0.00  0.00    +0.000 C 
ATOM      7  C   UNL     1      -8.475   7.262 130.705  0.00  0.00    +0.000 C 
BRANCH   2   8
ATOM      8  C   UNL     1     -10.593   7.221 129.392  0.00  0.00    +0.000 A 
ATOM      9  C   UNL     1     -11.690   7.948 129.898  0.00  0.00    +0.000 A 
ATOM     10  C   UNL     1     -12.643   8.483 129.049  0.00  0.00    +0.000 A 
ATOM     11  C   UNL     1     -12.442   8.424 127.678  0.00  0.00    +0.000 A 
ATOM     12  C   UNL     1     -11.321   7.779 127.159  0.00  0.00    +0.000 A 
ATOM     13  C   UNL     1     -10.401   7.177 128.009  0.00  0.00    +0.000 A 
ENDBRANCH   2   8
BRANCH   2  14
ATOM     14  C   UNL     1     -10.432   5.927 131.580  0.00  0.00    +0.000 C 
ATOM     15  O   UNL     1     -10.344   6.466 132.676  0.00  0.00    +0.000 OA
BRANCH  14  16
ATOM     16  O   UNL     1     -11.251   4.862 131.435  0.00  0.00    +0.000 OA
ATOM     17  H   UNL     1     -11.016   4.248 130.717  0.00  0.00    +0.000 HD
ENDBRANCH  14  16
ENDBRANCH   2  14
ENDBRANCH   1   5
BRANCH   1  18
ATOM     18  C   UNL     1      -4.841   5.539 131.924  0.00  0.00    +0.000 C 
BRANCH  18  19
ATOM     19  C   UNL     1      -3.391   5.088 131.546  0.00  0.00    +0.000 C 
BRANCH  19  20
ATOM     20  C   UNL     1      -3.275   4.816 130.020  0.00  0.00    +0.000 A 
ATOM     21  C   UNL     1      -3.429   3.542 129.456  0.00  0.00    +0.000 A 
ATOM     22  C   UNL     1      -2.932   3.234 128.201  0.00  0.00    +0.000 A 
ATOM     23  C   UNL     1      -2.515   4.257 127.370  0.00  0.00    +0.000 A 
ATOM     24  C   UNL     1      -2.514   5.564 127.834  0.00  0.00    +0.000 A 
ATOM     25  C   UNL     1      -2.918   5.840 129.134  0.00  0.00    +0.000 A 
ENDBRANCH  19  20
BRANCH  19  26
ATOM     26  C   UNL     1      -2.522   6.279 132.032  0.00  0.00    +0.000 A 
ATOM     27  C   UNL     1      -3.049   7.550 132.284  0.00  0.00    +0.000 A 
ATOM     28  C   UNL     1      -2.206   8.573 132.719  0.00  0.00    +0.000 A 
ATOM     29  C   UNL     1      -0.882   8.304 133.063  0.00  0.00    +0.000 A 
ATOM     30  C   UNL     1      -0.340   7.060 132.804  0.00  0.00    +0.000 A 
ATOM     31  C   UNL     1      -1.126   6.112 132.175  0.00  0.00    +0.000 A 
ENDBRANCH  19  26
BRANCH  19  32
ATOM     32  C   UNL     1      -3.073   3.831 132.279  0.00  0.00    +0.000 C 
ATOM     33  N   UNL     1      -2.808   2.866 132.888  0.00  0.00    +0.000 NA
ENDBRANCH  19  32
ENDBRANCH  18  19
ENDBRANCH   1  18
TORSDOF 9
ENDMDL
MODEL 6
REMARK VINA RESULT:      -8.5      2.053      3.511
REMARK  Name = Difenoxin
REMARK  9 active torsions:
REMARK  status: ('A' for Active; 'I' for Inactive)
REMARK    1  A    between atoms: O_1  and  C_2
REMARK    2  A    between atoms: C_2  and  C_4
REMARK    3  A    between atoms: C_4  and  C_27
REMARK    4  A    between atoms: N_7  and  C_8
REMARK    5  A    between atoms: C_8  and  C_9
REMARK    6  A    between atoms: C_9  and  C_10
REMARK    7  A    between atoms: C_10  and  C_11
REMARK    8  A    between atoms: C_10  and  C_13
REMARK    9  A    between atoms: C_10  and  C_19
REMARK                            x       y       z     vdW  Elec       q    Type
REMARK                         _______ _______ _______ _____ _____    ______ ____
ROOT
ATOM      1  C   UNL     1      -6.270  -0.176 126.800  0.00  0.00    +0.000 C 
ENDROOT
BRANCH   1   5
ATOM      2  C   UNL     1      -7.598   2.337 123.651  0.00  0.00    +0.000 C 
ATOM      3  C   UNL     1      -7.850   0.811 123.584  0.00  0.00    +0.000 C 
ATOM      4  C   UNL     1      -7.696   0.167 124.955  0.00  0.00    +0.000 C 
ATOM      5  N   UNL     1      -6.372   0.493 125.515  0.00  0.00    +0.000 NA
ATOM      6  C   UNL     1      -6.214   1.925 125.716  0.00  0.00    +0.000 C 
ATOM      7  C   UNL     1      -6.275   2.599 124.384  0.00  0.00    +0.000 C 
BRANCH   2   8
ATOM      8  C   UNL     1      -7.507   2.921 122.241  0.00  0.00    +0.000 A 
ATOM      9  C   UNL     1      -6.273   3.262 121.650  0.00  0.00    +0.000 A 
ATOM     10  C   UNL     1      -6.224   4.008 120.485  0.00  0.00    +0.000 A 
ATOM     11  C   UNL     1      -7.402   4.302 119.815  0.00  0.00    +0.000 A 
ATOM     12  C   UNL     1      -8.629   3.904 120.343  0.00  0.00    +0.000 A 
ATOM     13  C   UNL     1      -8.685   3.220 121.551  0.00  0.00    +0.000 A 
ENDBRANCH   2   8
BRANCH   2  14
ATOM     14  C   UNL     1      -8.769   2.989 124.453  0.00  0.00    +0.000 C 
ATOM     15  O   UNL     1      -8.725   4.098 124.969  0.00  0.00    +0.000 OA
BRANCH  14  16
ATOM     16  O   UNL     1      -9.906   2.264 124.546  0.00  0.00    +0.000 OA
ATOM     17  H   UNL     1     -10.725   2.782 124.647  0.00  0.00    +0.000 HD
ENDBRANCH  14  16
ENDBRANCH   2  14
ENDBRANCH   1   5
BRANCH   1  18
ATOM     18  C   UNL     1      -7.472   0.026 127.720  0.00  0.00    +0.000 C 
BRANCH  18  19
ATOM     19  C   UNL     1      -7.110   0.136 129.239  0.00  0.00    +0.000 C 
BRANCH  19  20
ATOM     20  C   UNL     1      -8.237   0.862 130.027  0.00  0.00    +0.000 A 
ATOM     21  C   UNL     1      -8.755   2.108 129.648  0.00  0.00    +0.000 A 
ATOM     22  C   UNL     1      -9.433   2.919 130.542  0.00  0.00    +0.000 A 
ATOM     23  C   UNL     1      -9.849   2.391 131.750  0.00  0.00    +0.000 A 
ATOM     24  C   UNL     1      -9.505   1.091 132.090  0.00  0.00    +0.000 A 
ATOM     25  C   UNL     1      -8.733   0.328 131.223  0.00  0.00    +0.000 A 
ENDBRANCH  19  20
BRANCH  19  26
ATOM     26  C   UNL     1      -6.917  -1.347 129.655  0.00  0.00    +0.000 A 
ATOM     27  C   UNL     1      -7.771  -2.371 129.232  0.00  0.00    +0.000 A 
ATOM     28  C   UNL     1      -7.535  -3.682 129.647  0.00  0.00    +0.000 A 
ATOM     29  C   UNL     1      -6.370  -4.009 130.340  0.00  0.00    +0.000 A 
ATOM     30  C   UNL     1      -5.526  -3.009 130.782  0.00  0.00    +0.000 A 
ATOM     31  C   UNL     1      -5.878  -1.692 130.548  0.00  0.00    +0.000 A 
ENDBRANCH  19  26
BRANCH  19  32
ATOM     32  C   UNL     1      -5.852   0.922 129.376  0.00  0.00    +0.000 C 
ATOM     33  N   UNL     1      -4.865   1.536 129.527  0.00  0.00    +0.000 NA
ENDBRANCH  19  32
ENDBRANCH  18  19
ENDBRANCH   1  18
TORSDOF 9
ENDMDL
MODEL 7
REMARK VINA RESULT:      -8.5      1.672      3.848
REMARK  Name = Difenoxin
REMARK  9 active torsions:
REMARK  status: ('A' for Active; 'I' for Inactive)
REMARK    1  A    between atoms: O_1  and  C_2
REMARK    2  A    between atoms: C_2  and  C_4
REMARK    3  A    between atoms: C_4  and  C_27
REMARK    4  A    between atoms: N_7  and  C_8
REMARK    5  A    between atoms: C_8  and  C_9
REMARK    6  A    between atoms: C_9  and  C_10
REMARK    7  A    between atoms: C_10  and  C_11
REMARK    8  A    between atoms: C_10  and  C_13
REMARK    9  A    between atoms: C_10  and  C_19
REMARK                            x       y       z     vdW  Elec       q    Type
REMARK                         _______ _______ _______ _____ _____    ______ ____
ROOT
ATOM      1  C   UNL     1      -6.680  -1.284 126.151  0.00  0.00    +0.000 C 
ENDROOT
BRANCH   1   5
ATOM      2  C   UNL     1      -7.824   1.894 123.585  0.00  0.00    +0.000 C 
ATOM      3  C   UNL     1      -7.983   0.427 123.119  0.00  0.00    +0.000 C 
ATOM      4  C   UNL     1      -7.932  -0.533 124.300  0.00  0.00    +0.000 C 
ATOM      5  N   UNL     1      -6.690  -0.319 125.065  0.00  0.00    +0.000 NA
ATOM      6  C   UNL     1      -6.633   1.022 125.626  0.00  0.00    +0.000 C 
ATOM      7  C   UNL     1      -6.598   2.004 124.501  0.00  0.00    +0.000 C 
BRANCH   2   8
ATOM      8  C   UNL     1      -7.625   2.814 122.379  0.00  0.00    +0.000 A 
ATOM      9  C   UNL     1      -8.705   3.266 121.595  0.00  0.00    +0.000 A 
ATOM     10  C   UNL     1      -8.490   3.890 120.378  0.00  0.00    +0.000 A 
ATOM     11  C   UNL     1      -7.195   4.200 119.992  0.00  0.00    +0.000 A 
ATOM     12  C   UNL     1      -6.116   3.832 120.793  0.00  0.00    +0.000 A 
ATOM     13  C   UNL     1      -6.326   3.140 121.980  0.00  0.00    +0.000 A 
ENDBRANCH   2   8
BRANCH   2  14
ATOM     14  C   UNL     1      -9.104   2.292 124.387  0.00  0.00    +0.000 C 
ATOM     15  O   UNL     1     -10.110   1.601 124.476  0.00  0.00    +0.000 OA
BRANCH  14  16
ATOM     16  O   UNL     1      -9.058   3.475 125.037  0.00  0.00    +0.000 OA
ATOM     17  H   UNL     1      -8.302   4.047 124.814  0.00  0.00    +0.000 HD
ENDBRANCH  14  16
ENDBRANCH   2  14
ENDBRANCH   1   5
BRANCH   1  18
ATOM     18  C   UNL     1      -6.522  -0.674 127.542  0.00  0.00    +0.000 C 
BRANCH  18  19
ATOM     19  C   UNL     1      -7.011  -1.594 128.709  0.00  0.00    +0.000 C 
BRANCH  19  20
ATOM     20  C   UNL     1      -5.821  -2.370 129.339  0.00  0.00    +0.000 A 
ATOM     21  C   UNL     1      -5.949  -3.654 129.888  0.00  0.00    +0.000 A 
ATOM     22  C   UNL     1      -5.027  -4.158 130.790  0.00  0.00    +0.000 A 
ATOM     23  C   UNL     1      -3.819  -3.509 130.953  0.00  0.00    +0.000 A 
ATOM     24  C   UNL     1      -3.580  -2.317 130.285  0.00  0.00    +0.000 A 
ATOM     25  C   UNL     1      -4.561  -1.772 129.465  0.00  0.00    +0.000 A 
ENDBRANCH  19  20
BRANCH  19  26
ATOM     26  C   UNL     1      -7.681  -0.588 129.683  0.00  0.00    +0.000 A 
ATOM     27  C   UNL     1      -7.939   0.743 129.340  0.00  0.00    +0.000 A 
ATOM     28  C   UNL     1      -8.545   1.590 130.268  0.00  0.00    +0.000 A 
ATOM     29  C   UNL     1      -9.045   1.087 131.469  0.00  0.00    +0.000 A 
ATOM     30  C   UNL     1      -8.785  -0.220 131.832  0.00  0.00    +0.000 A 
ATOM     31  C   UNL     1      -7.998  -0.995 130.998  0.00  0.00    +0.000 A 
ENDBRANCH  19  26
BRANCH  19  32
ATOM     32  C   UNL     1      -7.988  -2.579 128.166  0.00  0.00    +0.000 C 
ATOM     33  N   UNL     1      -8.758  -3.372 127.778  0.00  0.00    +0.000 NA
ENDBRANCH  19  32
ENDBRANCH  18  19
ENDBRANCH   1  18
TORSDOF 9
ENDMDL
MODEL 8
REMARK VINA RESULT:      -8.5      5.064      7.340
REMARK  Name = Difenoxin
REMARK  9 active torsions:
REMARK  status: ('A' for Active; 'I' for Inactive)
REMARK    1  A    between atoms: O_1  and  C_2
REMARK    2  A    between atoms: C_2  and  C_4
REMARK    3  A    between atoms: C_4  and  C_27
REMARK    4  A    between atoms: N_7  and  C_8
REMARK    5  A    between atoms: C_8  and  C_9
REMARK    6  A    between atoms: C_9  and  C_10
REMARK    7  A    between atoms: C_10  and  C_11
REMARK    8  A    between atoms: C_10  and  C_13
REMARK    9  A    between atoms: C_10  and  C_19
REMARK                            x       y       z     vdW  Elec       q    Type
REMARK                         _______ _______ _______ _____ _____    ______ ____
ROOT
ATOM      1  C   UNL     1      -8.236   2.438 129.791  0.00  0.00    +0.000 C 
ENDROOT
BRANCH   1   5
ATOM      2  C   UNL     1     -10.791   5.809 130.120  0.00  0.00    +0.000 C 
ATOM      3  C   UNL     1     -11.381   4.380 130.188  0.00  0.00    +0.000 C 
ATOM      4  C   UNL     1     -10.297   3.351 130.481  0.00  0.00    +0.000 C 
ATOM      5  N   UNL     1      -9.217   3.464 129.484  0.00  0.00    +0.000 NA
ATOM      6  C   UNL     1      -8.571   4.766 129.542  0.00  0.00    +0.000 C 
ATOM      7  C   UNL     1      -9.577   5.810 129.180  0.00  0.00    +0.000 C 
BRANCH   2   8
ATOM      8  C   UNL     1     -11.835   6.787 129.580  0.00  0.00    +0.000 A 
ATOM      9  C   UNL     1     -12.955   6.356 128.840  0.00  0.00    +0.000 A 
ATOM     10  C   UNL     1     -13.749   7.260 128.157  0.00  0.00    +0.000 A 
ATOM     11  C   UNL     1     -13.525   8.619 128.319  0.00  0.00    +0.000 A 
ATOM     12  C   UNL     1     -12.471   9.068 129.112  0.00  0.00    +0.000 A 
ATOM     13  C   UNL     1     -11.627   8.160 129.738  0.00  0.00    +0.000 A 
ENDBRANCH   2   8
BRANCH   2  14
ATOM     14  C   UNL     1     -10.332   6.216 131.555  0.00  0.00    +0.000 C 
ATOM     15  O   UNL     1      -9.257   6.739 131.819  0.00  0.00    +0.000 OA
BRANCH  14  16
ATOM     16  O   UNL     1     -11.214   5.985 132.553  0.00  0.00    +0.000 OA
ATOM     17  H   UNL     1     -11.367   6.733 133.158  0.00  0.00    +0.000 HD
ENDBRANCH  14  16
ENDBRANCH   2  14
ENDBRANCH   1   5
BRANCH   1  18
ATOM     18  C   UNL     1      -6.808   2.778 129.368  0.00  0.00    +0.000 C 
BRANCH  18  19
ATOM     19  C   UNL     1      -6.358   2.112 128.025  0.00  0.00    +0.000 C 
BRANCH  19  20
ATOM     20  C   UNL     1      -7.342   2.462 126.874  0.00  0.00    +0.000 A 
ATOM     21  C   UNL     1      -8.202   1.522 126.289  0.00  0.00    +0.000 A 
ATOM     22  C   UNL     1      -8.755   1.719 125.035  0.00  0.00    +0.000 A 
ATOM     23  C   UNL     1      -8.687   2.972 124.457  0.00  0.00    +0.000 A 
ATOM     24  C   UNL     1      -7.989   3.988 125.093  0.00  0.00    +0.000 A 
ATOM     25  C   UNL     1      -7.351   3.741 126.303  0.00  0.00    +0.000 A 
ENDBRANCH  19  20
BRANCH  19  26
ATOM     26  C   UNL     1      -4.931   2.686 127.818  0.00  0.00    +0.000 A 
ATOM     27  C   UNL     1      -4.093   2.279 126.774  0.00  0.00    +0.000 A 
ATOM     28  C   UNL     1      -2.822   2.839 126.651  0.00  0.00    +0.000 A 
ATOM     29  C   UNL     1      -2.439   3.915 127.451  0.00  0.00    +0.000 A 
ATOM     30  C   UNL     1      -3.246   4.319 128.497  0.00  0.00    +0.000 A 
ATOM     31  C   UNL     1      -4.411   3.617 128.745  0.00  0.00    +0.000 A 
ENDBRANCH  19  26
BRANCH  19  32
ATOM     32  C   UNL     1      -6.343   0.633 128.205  0.00  0.00    +0.000 C 
ATOM     33  N   UNL     1      -6.318  -0.524 128.386  0.00  0.00    +0.000 NA
ENDBRANCH  19  32
ENDBRANCH  18  19
ENDBRANCH   1  18
TORSDOF 9
ENDMDL
MODEL 9
REMARK VINA RESULT:      -8.5      1.298      3.743
REMARK  Name = Difenoxin
REMARK  9 active torsions:
REMARK  status: ('A' for Active; 'I' for Inactive)
REMARK    1  A    between atoms: O_1  and  C_2
REMARK    2  A    between atoms: C_2  and  C_4
REMARK    3  A    between atoms: C_4  and  C_27
REMARK    4  A    between atoms: N_7  and  C_8
REMARK    5  A    between atoms: C_8  and  C_9
REMARK    6  A    between atoms: C_9  and  C_10
REMARK    7  A    between atoms: C_10  and  C_11
REMARK    8  A    between atoms: C_10  and  C_13
REMARK    9  A    between atoms: C_10  and  C_19
REMARK                            x       y       z     vdW  Elec       q    Type
REMARK                         _______ _______ _______ _____ _____    ______ ____
ROOT
ATOM      1  C   UNL     1      -5.566   0.293 126.706  0.00  0.00    +0.000 C 
ENDROOT
BRANCH   1   5
ATOM      2  C   UNL     1      -7.329   2.719 123.705  0.00  0.00    +0.000 C 
ATOM      3  C   UNL     1      -7.390   1.176 123.589  0.00  0.00    +0.000 C 
ATOM      4  C   UNL     1      -7.100   0.513 124.929  0.00  0.00    +0.000 C 
ATOM      5  N   UNL     1      -5.805   0.985 125.451  0.00  0.00    +0.000 NA
ATOM      6  C   UNL     1      -5.819   2.419 125.699  0.00  0.00    +0.000 C 
ATOM      7  C   UNL     1      -6.020   3.123 124.397  0.00  0.00    +0.000 C 
BRANCH   2   8
ATOM      8  C   UNL     1      -7.370   3.355 122.315  0.00  0.00    +0.000 A 
ATOM      9  C   UNL     1      -8.574   3.511 121.597  0.00  0.00    +0.000 A 
ATOM     10  C   UNL     1      -8.564   3.859 120.258  0.00  0.00    +0.000 A 
ATOM     11  C   UNL     1      -7.364   4.199 119.652  0.00  0.00    +0.000 A 
ATOM     12  C   UNL     1      -6.171   4.129 120.368  0.00  0.00    +0.000 A 
ATOM     13  C   UNL     1      -6.170   3.707 121.692  0.00  0.00    +0.000 A 
ENDBRANCH   2   8
BRANCH   2  14
ATOM     14  C   UNL     1      -8.538   3.190 124.573  0.00  0.00    +0.000 C 
ATOM     15  O   UNL     1      -8.559   4.221 125.233  0.00  0.00    +0.000 OA
BRANCH  14  16
ATOM     16  O   UNL     1      -9.632   2.397 124.556  0.00  0.00    +0.000 OA
ATOM     17  H   UNL     1      -9.918   2.061 125.424  0.00  0.00    +0.000 HD
ENDBRANCH  14  16
ENDBRANCH   2  14
ENDBRANCH   1   5
BRANCH   1  18
ATOM     18  C   UNL     1      -6.829  -0.175 127.425  0.00  0.00    +0.000 C 
BRANCH  18  19
ATOM     19  C   UNL     1      -6.791  -1.668 127.889  0.00  0.00    +0.000 C 
BRANCH  19  20
ATOM     20  C   UNL     1      -7.383  -1.821 129.318  0.00  0.00    +0.000 A 
ATOM     21  C   UNL     1      -7.988  -0.764 130.013  0.00  0.00    +0.000 A 
ATOM     22  C   UNL     1      -8.133  -0.783 131.390  0.00  0.00    +0.000 A 
ATOM     23  C   UNL     1      -7.931  -1.967 132.073  0.00  0.00    +0.000 A 
ATOM     24  C   UNL     1      -7.497  -3.093 131.389  0.00  0.00    +0.000 A 
ATOM     25  C   UNL     1      -7.256  -3.025 130.022  0.00  0.00    +0.000 A 
ENDBRANCH  19  20
BRANCH  19  26
ATOM     26  C   UNL     1      -7.620  -2.391 126.794  0.00  0.00    +0.000 A 
ATOM     27  C   UNL     1      -9.003  -2.582 126.891  0.00  0.00    +0.000 A 
ATOM     28  C   UNL     1      -9.682  -3.241 125.866  0.00  0.00    +0.000 A 
ATOM     29  C   UNL     1      -9.032  -3.564 124.676  0.00  0.00    +0.000 A 
ATOM     30  C   UNL     1      -7.664  -3.399 124.569  0.00  0.00    +0.000 A 
ATOM     31  C   UNL     1      -6.964  -2.941 125.670  0.00  0.00    +0.000 A 
ENDBRANCH  19  26
BRANCH  19  32
ATOM     32  C   UNL     1      -5.374  -2.129 127.909  0.00  0.00    +0.000 C 
ATOM     33  N   UNL     1      -4.274  -2.530 127.929  0.00  0.00    +0.000 NA
ENDBRANCH  19  32
ENDBRANCH  18  19
ENDBRANCH   1  18
TORSDOF 9
ENDMDL
