MODEL 1
REMARK VINA RESULT:      -9.5      0.000      0.000
REMARK  Name = Difelikefalin
REMARK  24 active torsions:
REMARK  status: ('A' for Active; 'I' for Inactive)
REMARK    1  A    between atoms: C_1  and  C_2
REMARK    2  A    between atoms: C_2  and  C_3
REMARK    3  A    between atoms: C_2  and  C_4
REMARK    4  A    between atoms: C_4  and  C_5
REMARK    5  A    between atoms: C_5  and  N_6
REMARK    6  A    between atoms: C_5  and  C_29
REMARK    7  A    between atoms: C_7  and  C_9
REMARK    8  A    between atoms: C_9  and  C_10
REMARK    9  A    between atoms: C_9  and  N_17
REMARK   10  A    between atoms: C_10  and  C_11
REMARK   11  A    between atoms: C_18  and  C_20
REMARK   12  A    between atoms: C_20  and  N_21
REMARK   13  A    between atoms: C_20  and  C_22
REMARK   14  A    between atoms: C_22  and  C_23
REMARK   15  A    between atoms: N_31  and  C_32
REMARK   16  A    between atoms: C_32  and  C_33
REMARK   17  A    between atoms: C_32  and  C_38
REMARK   18  A    between atoms: C_33  and  C_34
REMARK   19  A    between atoms: C_34  and  C_35
REMARK   20  A    between atoms: C_35  and  C_36
REMARK   21  A    between atoms: C_36  and  N_37
REMARK   22  A    between atoms: C_43  and  N_44
REMARK   23  A    between atoms: C_43  and  C_47
REMARK   24  A    between atoms: C_47  and  O_48
REMARK                            x       y       z     vdW  Elec       q    Type
REMARK                         _______ _______ _______ _____ _____    ______ ____
ROOT
ATOM      1  C   UNL     1      -5.697   4.095 126.427  0.00  0.00    +0.000 C 
ENDROOT
BRANCH   1   2
ATOM      2  N   UNL     1      -6.684   4.008 127.669  0.00  0.00    +0.000 N 
ATOM      3  C   UNL     1      -7.960   3.343 127.996  0.00  0.00    +0.000 C 
ATOM      4  O   UNL     1      -8.736   2.712 127.263  0.00  0.00    +0.000 OA
ATOM      5  H   UNL     1      -6.605   4.914 128.096  0.00  0.00    +0.000 HD
BRANCH   3   6
ATOM      6  C   UNL     1      -8.416   3.142 129.426  0.00  0.00    +0.000 C 
BRANCH   6   7
ATOM      7  N   UNL     1      -8.688   4.520 129.916  0.00  0.00    +0.000 N 
ATOM      8  C   UNL     1      -9.870   4.853 130.492  0.00  0.00    +0.000 C 
ATOM      9  O   UNL     1     -10.740   4.008 130.549  0.00  0.00    +0.000 OA
ATOM     10  H   UNL     1      -7.947   5.222 129.833  0.00  0.00    +0.000 HD
BRANCH   8  11
ATOM     11  C   UNL     1     -10.027   6.304 131.019  0.00  0.00    +0.000 C 
BRANCH  11  12
ATOM     12  N   UNL     1      -9.771   6.443 132.480  0.00  0.00    +0.000 NA
ATOM     13  H   UNL     1     -10.443   5.880 133.006  0.00  0.00    +0.000 HD
ATOM     14  H   UNL     1      -9.976   7.408 132.750  0.00  0.00    +0.000 HD
ENDBRANCH  11  12
BRANCH  11  15
ATOM     15  C   UNL     1     -11.423   6.845 130.677  0.00  0.00    +0.000 C 
BRANCH  15  16
ATOM     16  C   UNL     1     -11.617   7.129 129.210  0.00  0.00    +0.000 A 
ATOM     17  C   UNL     1     -10.591   7.691 128.446  0.00  0.00    +0.000 A 
ATOM     18  C   UNL     1     -10.797   7.956 127.094  0.00  0.00    +0.000 A 
ATOM     19  C   UNL     1     -11.985   7.564 126.476  0.00  0.00    +0.000 A 
ATOM     20  C   UNL     1     -12.984   6.935 127.214  0.00  0.00    +0.000 A 
ATOM     21  C   UNL     1     -12.809   6.737 128.579  0.00  0.00    +0.000 A 
ENDBRANCH  15  16
ENDBRANCH  11  15
ENDBRANCH   8  11
ENDBRANCH   6   7
BRANCH   6  22
ATOM     22  C   UNL     1      -7.238   2.503 130.131  0.00  0.00    +0.000 C 
BRANCH  22  23
ATOM     23  C   UNL     1      -7.168   2.964 131.566  0.00  0.00    +0.000 A 
ATOM     24  C   UNL     1      -6.289   3.982 131.997  0.00  0.00    +0.000 A 
ATOM     25  C   UNL     1      -6.462   4.610 133.219  0.00  0.00    +0.000 A 
ATOM     26  C   UNL     1      -7.365   4.071 134.116  0.00  0.00    +0.000 A 
ATOM     27  C   UNL     1      -8.137   2.960 133.758  0.00  0.00    +0.000 A 
ATOM     28  C   UNL     1      -8.091   2.447 132.467  0.00  0.00    +0.000 A 
ENDBRANCH  22  23
ENDBRANCH   6  22
ENDBRANCH   3   6
ENDBRANCH   1   2
BRANCH   1  29
ATOM     29  C   UNL     1      -6.362   4.831 125.215  0.00  0.00    +0.000 C 
ATOM     30  O   UNL     1      -6.187   6.031 124.999  0.00  0.00    +0.000 OA
ATOM     31  N   UNL     1      -7.100   4.144 124.279  0.00  0.00    +0.000 N 
ATOM     32  H   UNL     1      -7.608   4.835 123.744  0.00  0.00    +0.000 HD
BRANCH  31  33
ATOM     33  C   UNL     1      -7.083   2.768 123.668  0.00  0.00    +0.000 C 
BRANCH  33  34
ATOM     34  C   UNL     1      -8.326   1.819 123.639  0.00  0.00    +0.000 C 
ATOM     35  O   UNL     1      -9.366   2.149 123.034  0.00  0.00    +0.000 OA
ATOM     36  N   UNL     1      -8.157   0.493 123.981  0.00  0.00    +0.000 N 
ATOM     37  C   UNL     1      -9.099  -0.459 123.409  0.00  0.00    +0.000 C 
ATOM     38  C   UNL     1      -8.418  -1.817 123.231  0.00  0.00    +0.000 C 
ATOM     39  C   UNL     1      -7.783  -2.301 124.545  0.00  0.00    +0.000 C 
ATOM     40  C   UNL     1      -6.820  -1.214 125.060  0.00  0.00    +0.000 C 
ATOM     41  C   UNL     1      -7.587   0.080 125.251  0.00  0.00    +0.000 C 
BRANCH  39  42
ATOM     42  N   UNL     1      -6.988  -3.516 124.269  0.00  0.00    +0.000 NA
ATOM     43  H   UNL     1      -5.991  -3.330 124.369  0.00  0.00    +0.000 HD
ATOM     44  H   UNL     1      -7.142  -3.840 123.317  0.00  0.00    +0.000 HD
ENDBRANCH  39  42
BRANCH  39  45
ATOM     45  C   UNL     1      -8.804  -2.627 125.696  0.00  0.00    +0.000 C 
ATOM     46  O   UNL     1      -8.520  -2.569 126.869  0.00  0.00    +0.000 OA
BRANCH  45  47
ATOM     47  O   UNL     1     -10.065  -2.962 125.321  0.00  0.00    +0.000 OA
ATOM     48  H   UNL     1     -10.257  -3.849 124.981  0.00  0.00    +0.000 HD
ENDBRANCH  45  47
ENDBRANCH  39  45
ENDBRANCH  33  34
BRANCH  33  49
ATOM     49  C   UNL     1      -6.458   2.631 122.263  0.00  0.00    +0.000 C 
BRANCH  49  50
ATOM     50  C   UNL     1      -6.918   3.779 121.290  0.00  0.00    +0.000 C 
BRANCH  50  51
ATOM     51  C   UNL     1      -5.863   4.151 120.231  0.00  0.00    +0.000 C 
BRANCH  51  52
ATOM     52  C   UNL     1      -5.193   5.489 119.883  0.00  0.00    +0.000 C 
BRANCH  52  53
ATOM     53  N   UNL     1      -4.316   6.137 120.928  0.00  0.00    +0.000 NA
ATOM     54  H   UNL     1      -4.635   7.066 121.241  0.00  0.00    +0.000 HD
ATOM     55  H   UNL     1      -3.391   6.339 120.542  0.00  0.00    +0.000 HD
ENDBRANCH  52  53
ENDBRANCH  51  52
ENDBRANCH  50  51
ENDBRANCH  49  50
ENDBRANCH  33  49
ENDBRANCH  31  33
ENDBRANCH   1  29
BRANCH   1  56
ATOM     56  C   UNL     1      -4.186   4.431 126.697  0.00  0.00    +0.000 C 
BRANCH  56  58
ATOM     57  C   UNL     1      -1.863   3.148 126.671  0.00  0.00    +0.000 C 
ATOM     58  C   UNL     1      -3.303   3.229 127.093  0.00  0.00    +0.000 C 
ATOM     59  C   UNL     1      -3.453   2.828 128.539  0.00  0.00    +0.000 C 
ENDBRANCH  56  58
ENDBRANCH   1  56
TORSDOF 22
ENDMDL
MODEL 2
REMARK VINA RESULT:      -9.5      2.423      8.535
REMARK  Name = Difelikefalin
REMARK  24 active torsions:
REMARK  status: ('A' for Active; 'I' for Inactive)
REMARK    1  A    between atoms: C_1  and  C_2
REMARK    2  A    between atoms: C_2  and  C_3
REMARK    3  A    between atoms: C_2  and  C_4
REMARK    4  A    between atoms: C_4  and  C_5
REMARK    5  A    between atoms: C_5  and  N_6
REMARK    6  A    between atoms: C_5  and  C_29
REMARK    7  A    between atoms: C_7  and  C_9
REMARK    8  A    between atoms: C_9  and  C_10
REMARK    9  A    between atoms: C_9  and  N_17
REMARK   10  A    between atoms: C_10  and  C_11
REMARK   11  A    between atoms: C_18  and  C_20
REMARK   12  A    between atoms: C_20  and  N_21
REMARK   13  A    between atoms: C_20  and  C_22
REMARK   14  A    between atoms: C_22  and  C_23
REMARK   15  A    between atoms: N_31  and  C_32
REMARK   16  A    between atoms: C_32  and  C_33
REMARK   17  A    between atoms: C_32  and  C_38
REMARK   18  A    between atoms: C_33  and  C_34
REMARK   19  A    between atoms: C_34  and  C_35
REMARK   20  A    between atoms: C_35  and  C_36
REMARK   21  A    between atoms: C_36  and  N_37
REMARK   22  A    between atoms: C_43  and  N_44
REMARK   23  A    between atoms: C_43  and  C_47
REMARK   24  A    between atoms: C_47  and  O_48
REMARK                            x       y       z     vdW  Elec       q    Type
REMARK                         _______ _______ _______ _____ _____    ______ ____
ROOT
ATOM      1  C   UNL     1      -5.230   3.351 129.619  0.00  0.00    +0.000 C 
ENDROOT
BRANCH   1   2
ATOM      2  N   UNL     1      -5.666   2.222 128.589  0.00  0.00    +0.000 N 
ATOM      3  C   UNL     1      -6.918   1.579 128.149  0.00  0.00    +0.000 C 
ATOM      4  O   UNL     1      -8.065   1.680 128.610  0.00  0.00    +0.000 OA
ATOM      5  H   UNL     1      -4.891   1.582 128.602  0.00  0.00    +0.000 HD
BRANCH   3   6
ATOM      6  C   UNL     1      -7.015   0.824 126.841  0.00  0.00    +0.000 C 
BRANCH   6   7
ATOM      7  N   UNL     1      -7.350   1.873 125.841  0.00  0.00    +0.000 N 
ATOM      8  C   UNL     1      -6.386   2.552 125.170  0.00  0.00    +0.000 C 
ATOM      9  O   UNL     1      -5.225   2.328 125.446  0.00  0.00    +0.000 OA
ATOM     10  H   UNL     1      -8.336   2.062 125.645  0.00  0.00    +0.000 HD
BRANCH   8  11
ATOM     11  C   UNL     1      -6.846   3.587 124.108  0.00  0.00    +0.000 C 
BRANCH  11  12
ATOM     12  N   UNL     1      -8.135   4.256 124.441  0.00  0.00    +0.000 NA
ATOM     13  H   UNL     1      -8.787   4.160 123.660  0.00  0.00    +0.000 HD
ATOM     14  H   UNL     1      -7.964   5.262 124.512  0.00  0.00    +0.000 HD
ENDBRANCH  11  12
BRANCH  11  15
ATOM     15  C   UNL     1      -6.940   2.923 122.726  0.00  0.00    +0.000 C 
BRANCH  15  16
ATOM     16  C   UNL     1      -6.422   3.786 121.606  0.00  0.00    +0.000 A 
ATOM     17  C   UNL     1      -5.173   4.405 121.695  0.00  0.00    +0.000 A 
ATOM     18  C   UNL     1      -4.720   5.209 120.651  0.00  0.00    +0.000 A 
ATOM     19  C   UNL     1      -5.462   5.313 119.474  0.00  0.00    +0.000 A 
ATOM     20  C   UNL     1      -6.674   4.640 119.347  0.00  0.00    +0.000 A 
ATOM     21  C   UNL     1      -7.162   3.897 120.417  0.00  0.00    +0.000 A 
ENDBRANCH  15  16
ENDBRANCH  11  15
ENDBRANCH   8  11
ENDBRANCH   6   7
BRANCH   6  22
ATOM     22  C   UNL     1      -8.146  -0.165 127.038  0.00  0.00    +0.000 C 
BRANCH  22  23
ATOM     23  C   UNL     1      -8.026  -1.306 126.056  0.00  0.00    +0.000 A 
ATOM     24  C   UNL     1      -6.965  -1.404 125.130  0.00  0.00    +0.000 A 
ATOM     25  C   UNL     1      -6.692  -2.594 124.475  0.00  0.00    +0.000 A 
ATOM     26  C   UNL     1      -7.612  -3.621 124.562  0.00  0.00    +0.000 A 
ATOM     27  C   UNL     1      -8.755  -3.479 125.358  0.00  0.00    +0.000 A 
ATOM     28  C   UNL     1      -8.931  -2.355 126.156  0.00  0.00    +0.000 A 
ENDBRANCH  22  23
ENDBRANCH   6  22
ENDBRANCH   3   6
ENDBRANCH   1   2
BRANCH   1  29
ATOM     29  C   UNL     1      -5.870   3.118 131.030  0.00  0.00    +0.000 C 
ATOM     30  O   UNL     1      -5.235   2.631 131.967  0.00  0.00    +0.000 OA
ATOM     31  N   UNL     1      -7.149   3.539 131.314  0.00  0.00    +0.000 N 
ATOM     32  H   UNL     1      -7.421   3.086 132.175  0.00  0.00    +0.000 HD
BRANCH  31  33
ATOM     33  C   UNL     1      -8.046   4.673 130.893  0.00  0.00    +0.000 C 
BRANCH  33  34
ATOM     34  C   UNL     1      -9.574   4.504 130.601  0.00  0.00    +0.000 C 
ATOM     35  O   UNL     1     -10.249   3.650 131.210  0.00  0.00    +0.000 OA
ATOM     36  N   UNL     1     -10.237   5.514 129.935  0.00  0.00    +0.000 N 
ATOM     37  C   UNL     1     -11.668   5.637 130.183  0.00  0.00    +0.000 C 
ATOM     38  C   UNL     1     -12.094   7.098 130.039  0.00  0.00    +0.000 C 
ATOM     39  C   UNL     1     -11.658   7.677 128.683  0.00  0.00    +0.000 C 
ATOM     40  C   UNL     1     -10.138   7.481 128.526  0.00  0.00    +0.000 C 
ATOM     41  C   UNL     1      -9.813   6.004 128.636  0.00  0.00    +0.000 C 
BRANCH  39  42
ATOM     42  N   UNL     1     -11.930   9.130 128.677  0.00  0.00    +0.000 NA
ATOM     43  H   UNL     1     -11.116   9.654 128.994  0.00  0.00    +0.000 HD
ATOM     44  H   UNL     1     -12.699   9.356 129.304  0.00  0.00    +0.000 HD
ENDBRANCH  39  42
BRANCH  39  45
ATOM     45  C   UNL     1     -12.360   7.036 127.430  0.00  0.00    +0.000 C 
ATOM     46  O   UNL     1     -13.537   6.765 127.397  0.00  0.00    +0.000 OA
BRANCH  45  47
ATOM     47  O   UNL     1     -11.583   6.814 126.339  0.00  0.00    +0.000 OA
ATOM     48  H   UNL     1     -11.987   6.598 125.485  0.00  0.00    +0.000 HD
ENDBRANCH  45  47
ENDBRANCH  39  45
ENDBRANCH  33  34
BRANCH  33  49
ATOM     49  C   UNL     1      -7.948   5.984 131.701  0.00  0.00    +0.000 C 
BRANCH  49  50
ATOM     50  C   UNL     1      -7.054   7.062 130.984  0.00  0.00    +0.000 C 
BRANCH  50  51
ATOM     51  C   UNL     1      -5.542   6.788 131.101  0.00  0.00    +0.000 C 
BRANCH  51  52
ATOM     52  C   UNL     1      -4.319   7.636 130.723  0.00  0.00    +0.000 C 
BRANCH  52  53
ATOM     53  N   UNL     1      -4.421   8.532 129.511  0.00  0.00    +0.000 NA
ATOM     54  H   UNL     1      -3.933   8.181 128.674  0.00  0.00    +0.000 HD
ATOM     55  H   UNL     1      -3.950   9.422 129.685  0.00  0.00    +0.000 HD
ENDBRANCH  52  53
ENDBRANCH  51  52
ENDBRANCH  50  51
ENDBRANCH  49  50
ENDBRANCH  33  49
ENDBRANCH  31  33
ENDBRANCH   1  29
BRANCH   1  56
ATOM     56  C   UNL     1      -3.736   3.837 129.608  0.00  0.00    +0.000 C 
BRANCH  56  58
ATOM     57  C   UNL     1      -2.566   5.681 128.101  0.00  0.00    +0.000 C 
ATOM     58  C   UNL     1      -3.213   4.333 128.244  0.00  0.00    +0.000 C 
ATOM     59  C   UNL     1      -2.431   3.288 127.488  0.00  0.00    +0.000 C 
ENDBRANCH  56  58
ENDBRANCH   1  56
TORSDOF 22
ENDMDL
MODEL 3
REMARK VINA RESULT:      -9.5      1.454      3.025
REMARK  Name = Difelikefalin
REMARK  24 active torsions:
REMARK  status: ('A' for Active; 'I' for Inactive)
REMARK    1  A    between atoms: C_1  and  C_2
REMARK    2  A    between atoms: C_2  and  C_3
REMARK    3  A    between atoms: C_2  and  C_4
REMARK    4  A    between atoms: C_4  and  C_5
REMARK    5  A    between atoms: C_5  and  N_6
REMARK    6  A    between atoms: C_5  and  C_29
REMARK    7  A    between atoms: C_7  and  C_9
REMARK    8  A    between atoms: C_9  and  C_10
REMARK    9  A    between atoms: C_9  and  N_17
REMARK   10  A    between atoms: C_10  and  C_11
REMARK   11  A    between atoms: C_18  and  C_20
REMARK   12  A    between atoms: C_20  and  N_21
REMARK   13  A    between atoms: C_20  and  C_22
REMARK   14  A    between atoms: C_22  and  C_23
REMARK   15  A    between atoms: N_31  and  C_32
REMARK   16  A    between atoms: C_32  and  C_33
REMARK   17  A    between atoms: C_32  and  C_38
REMARK   18  A    between atoms: C_33  and  C_34
REMARK   19  A    between atoms: C_34  and  C_35
REMARK   20  A    between atoms: C_35  and  C_36
REMARK   21  A    between atoms: C_36  and  N_37
REMARK   22  A    between atoms: C_43  and  N_44
REMARK   23  A    between atoms: C_43  and  C_47
REMARK   24  A    between atoms: C_47  and  O_48
REMARK                            x       y       z     vdW  Elec       q    Type
REMARK                         _______ _______ _______ _____ _____    ______ ____
ROOT
ATOM      1  C   UNL     1      -5.515   4.144 126.275  0.00  0.00    +0.000 C 
ENDROOT
BRANCH   1   2
ATOM      2  N   UNL     1      -6.480   4.045 127.533  0.00  0.00    +0.000 N 
ATOM      3  C   UNL     1      -7.788   3.443 127.854  0.00  0.00    +0.000 C 
ATOM      4  O   UNL     1      -8.617   2.906 127.105  0.00  0.00    +0.000 OA
ATOM      5  H   UNL     1      -6.334   4.918 128.009  0.00  0.00    +0.000 HD
BRANCH   3   6
ATOM      6  C   UNL     1      -8.225   3.187 129.280  0.00  0.00    +0.000 C 
BRANCH   6   7
ATOM      7  N   UNL     1      -8.634   4.527 129.779  0.00  0.00    +0.000 N 
ATOM      8  C   UNL     1      -9.905   4.782 130.180  0.00  0.00    +0.000 C 
ATOM      9  O   UNL     1     -10.732   3.901 130.067  0.00  0.00    +0.000 OA
ATOM     10  H   UNL     1      -7.924   5.262 129.841  0.00  0.00    +0.000 HD
BRANCH   8  11
ATOM     11  C   UNL     1     -10.210   6.199 130.736  0.00  0.00    +0.000 C 
BRANCH  11  12
ATOM     12  N   UNL     1      -9.280   7.252 130.240  0.00  0.00    +0.000 NA
ATOM     13  H   UNL     1      -9.618   8.174 130.522  0.00  0.00    +0.000 HD
ATOM     14  H   UNL     1      -9.326   7.263 129.218  0.00  0.00    +0.000 HD
ENDBRANCH  11  12
BRANCH  11  15
ATOM     15  C   UNL     1     -10.209   6.178 132.272  0.00  0.00    +0.000 C 
BRANCH  15  16
ATOM     16  C   UNL     1      -9.119   5.323 132.863  0.00  0.00    +0.000 A 
ATOM     17  C   UNL     1      -9.389   4.030 133.320  0.00  0.00    +0.000 A 
ATOM     18  C   UNL     1      -8.367   3.262 133.874  0.00  0.00    +0.000 A 
ATOM     19  C   UNL     1      -7.056   3.739 133.878  0.00  0.00    +0.000 A 
ATOM     20  C   UNL     1      -6.765   4.996 133.356  0.00  0.00    +0.000 A 
ATOM     21  C   UNL     1      -7.796   5.793 132.870  0.00  0.00    +0.000 A 
ENDBRANCH  15  16
ENDBRANCH  11  15
ENDBRANCH   8  11
ENDBRANCH   6   7
BRANCH   6  22
ATOM     22  C   UNL     1      -6.991   2.663 129.985  0.00  0.00    +0.000 C 
BRANCH  22  23
ATOM     23  C   UNL     1      -7.317   1.409 130.759  0.00  0.00    +0.000 A 
ATOM     24  C   UNL     1      -6.335   0.664 131.449  0.00  0.00    +0.000 A 
ATOM     25  C   UNL     1      -6.688  -0.275 132.404  0.00  0.00    +0.000 A 
ATOM     26  C   UNL     1      -8.015  -0.642 132.510  0.00  0.00    +0.000 A 
ATOM     27  C   UNL     1      -8.985  -0.019 131.717  0.00  0.00    +0.000 A 
ATOM     28  C   UNL     1      -8.652   1.049 130.893  0.00  0.00    +0.000 A 
ENDBRANCH  22  23
ENDBRANCH   6  22
ENDBRANCH   3   6
ENDBRANCH   1   2
BRANCH   1  29
ATOM     29  C   UNL     1      -6.213   4.865 125.072  0.00  0.00    +0.000 C 
ATOM     30  O   UNL     1      -6.020   6.054 124.817  0.00  0.00    +0.000 OA
ATOM     31  N   UNL     1      -7.004   4.172 124.184  0.00  0.00    +0.000 N 
ATOM     32  H   UNL     1      -7.518   4.860 123.653  0.00  0.00    +0.000 HD
BRANCH  31  33
ATOM     33  C   UNL     1      -7.043   2.781 123.610  0.00  0.00    +0.000 C 
BRANCH  33  34
ATOM     34  C   UNL     1      -8.313   1.867 123.640  0.00  0.00    +0.000 C 
ATOM     35  O   UNL     1      -9.370   2.227 123.083  0.00  0.00    +0.000 OA
ATOM     36  N   UNL     1      -8.166   0.537 123.976  0.00  0.00    +0.000 N 
ATOM     37  C   UNL     1      -9.161  -0.388 123.450  0.00  0.00    +0.000 C 
ATOM     38  C   UNL     1      -8.528  -1.764 123.243  0.00  0.00    +0.000 C 
ATOM     39  C   UNL     1      -7.848  -2.266 124.528  0.00  0.00    +0.000 C 
ATOM     40  C   UNL     1      -6.831  -1.207 124.996  0.00  0.00    +0.000 C 
ATOM     41  C   UNL     1      -7.551   0.108 125.219  0.00  0.00    +0.000 C 
BRANCH  39  42
ATOM     42  N   UNL     1      -7.102  -3.503 124.217  0.00  0.00    +0.000 NA
ATOM     43  H   UNL     1      -7.281  -4.223 124.916  0.00  0.00    +0.000 HD
ATOM     44  H   UNL     1      -6.099  -3.329 124.210  0.00  0.00    +0.000 HD
ENDBRANCH  39  42
BRANCH  39  45
ATOM     45  C   UNL     1      -8.823  -2.562 125.724  0.00  0.00    +0.000 C 
ATOM     46  O   UNL     1      -8.499  -2.463 126.884  0.00  0.00    +0.000 OA
BRANCH  45  47
ATOM     47  O   UNL     1     -10.094  -2.920 125.407  0.00  0.00    +0.000 OA
ATOM     48  H   UNL     1     -10.288  -3.815 125.091  0.00  0.00    +0.000 HD
ENDBRANCH  45  47
ENDBRANCH  39  45
ENDBRANCH  33  34
BRANCH  33  49
ATOM     49  C   UNL     1      -6.462   2.589 122.193  0.00  0.00    +0.000 C 
BRANCH  49  50
ATOM     50  C   UNL     1      -6.892   3.741 121.210  0.00  0.00    +0.000 C 
BRANCH  50  51
ATOM     51  C   UNL     1      -5.788   4.147 120.215  0.00  0.00    +0.000 C 
BRANCH  51  52
ATOM     52  C   UNL     1      -5.180   5.515 119.868  0.00  0.00    +0.000 C 
BRANCH  52  53
ATOM     53  N   UNL     1      -4.321   6.195 120.908  0.00  0.00    +0.000 NA
ATOM     54  H   UNL     1      -3.812   7.024 120.569  0.00  0.00    +0.000 HD
ATOM     55  H   UNL     1      -3.564   5.576 121.206  0.00  0.00    +0.000 HD
ENDBRANCH  52  53
ENDBRANCH  51  52
ENDBRANCH  50  51
ENDBRANCH  49  50
ENDBRANCH  33  49
ENDBRANCH  31  33
ENDBRANCH   1  29
BRANCH   1  56
ATOM     56  C   UNL     1      -4.006   4.505 126.517  0.00  0.00    +0.000 C 
BRANCH  56  58
ATOM     57  C   UNL     1      -1.776   3.070 126.606  0.00  0.00    +0.000 C 
ATOM     58  C   UNL     1      -3.147   3.381 127.133  0.00  0.00    +0.000 C 
ATOM     59  C   UNL     1      -3.145   3.390 128.642  0.00  0.00    +0.000 C 
ENDBRANCH  56  58
ENDBRANCH   1  56
TORSDOF 22
ENDMDL
MODEL 4
REMARK VINA RESULT:      -9.3      2.891      7.489
REMARK  Name = Difelikefalin
REMARK  24 active torsions:
REMARK  status: ('A' for Active; 'I' for Inactive)
REMARK    1  A    between atoms: C_1  and  C_2
REMARK    2  A    between atoms: C_2  and  C_3
REMARK    3  A    between atoms: C_2  and  C_4
REMARK    4  A    between atoms: C_4  and  C_5
REMARK    5  A    between atoms: C_5  and  N_6
REMARK    6  A    between atoms: C_5  and  C_29
REMARK    7  A    between atoms: C_7  and  C_9
REMARK    8  A    between atoms: C_9  and  C_10
REMARK    9  A    between atoms: C_9  and  N_17
REMARK   10  A    between atoms: C_10  and  C_11
REMARK   11  A    between atoms: C_18  and  C_20
REMARK   12  A    between atoms: C_20  and  N_21
REMARK   13  A    between atoms: C_20  and  C_22
REMARK   14  A    between atoms: C_22  and  C_23
REMARK   15  A    between atoms: N_31  and  C_32
REMARK   16  A    between atoms: C_32  and  C_33
REMARK   17  A    between atoms: C_32  and  C_38
REMARK   18  A    between atoms: C_33  and  C_34
REMARK   19  A    between atoms: C_34  and  C_35
REMARK   20  A    between atoms: C_35  and  C_36
REMARK   21  A    between atoms: C_36  and  N_37
REMARK   22  A    between atoms: C_43  and  N_44
REMARK   23  A    between atoms: C_43  and  C_47
REMARK   24  A    between atoms: C_47  and  O_48
REMARK                            x       y       z     vdW  Elec       q    Type
REMARK                         _______ _______ _______ _____ _____    ______ ____
ROOT
ATOM      1  C   UNL     1      -8.200   0.780 130.179  0.00  0.00    +0.000 C 
ENDROOT
BRANCH   1   2
ATOM      2  N   UNL     1      -7.511   1.318 128.852  0.00  0.00    +0.000 N 
ATOM      3  C   UNL     1      -7.941   1.875 127.555  0.00  0.00    +0.000 C 
ATOM      4  O   UNL     1      -9.077   1.961 127.068  0.00  0.00    +0.000 OA
ATOM      5  H   UNL     1      -6.686   0.751 128.770  0.00  0.00    +0.000 HD
BRANCH   3   6
ATOM      6  C   UNL     1      -7.003   2.676 126.677  0.00  0.00    +0.000 C 
BRANCH   6   7
ATOM      7  N   UNL     1      -7.549   2.493 125.305  0.00  0.00    +0.000 N 
ATOM      8  C   UNL     1      -7.514   3.488 124.384  0.00  0.00    +0.000 C 
ATOM      9  O   UNL     1      -7.077   4.569 124.722  0.00  0.00    +0.000 OA
ATOM     10  H   UNL     1      -7.935   1.579 125.052  0.00  0.00    +0.000 HD
BRANCH   8  11
ATOM     11  C   UNL     1      -8.059   3.171 122.966  0.00  0.00    +0.000 C 
BRANCH  11  12
ATOM     12  N   UNL     1      -9.173   2.181 122.958  0.00  0.00    +0.000 NA
ATOM     13  H   UNL     1     -10.007   2.600 122.540  0.00  0.00    +0.000 HD
ATOM     14  H   UNL     1      -9.438   1.991 123.927  0.00  0.00    +0.000 HD
ENDBRANCH  11  12
BRANCH  11  15
ATOM     15  C   UNL     1      -6.921   2.689 122.055  0.00  0.00    +0.000 C 
BRANCH  15  16
ATOM     16  C   UNL     1      -6.490   3.711 121.036  0.00  0.00    +0.000 A 
ATOM     17  C   UNL     1      -5.266   4.374 121.158  0.00  0.00    +0.000 A 
ATOM     18  C   UNL     1      -4.893   5.325 120.210  0.00  0.00    +0.000 A 
ATOM     19  C   UNL     1      -5.687   5.539 119.083  0.00  0.00    +0.000 A 
ATOM     20  C   UNL     1      -6.873   4.829 118.915  0.00  0.00    +0.000 A 
ATOM     21  C   UNL     1      -7.282   3.934 119.898  0.00  0.00    +0.000 A 
ENDBRANCH  15  16
ENDBRANCH  11  15
ENDBRANCH   8  11
ENDBRANCH   6   7
BRANCH   6  22
ATOM     22  C   UNL     1      -5.647   2.025 126.848  0.00  0.00    +0.000 C 
BRANCH  22  23
ATOM     23  C   UNL     1      -4.576   3.074 127.025  0.00  0.00    +0.000 A 
ATOM     24  C   UNL     1      -4.848   4.359 127.546  0.00  0.00    +0.000 A 
ATOM     25  C   UNL     1      -3.829   5.179 128.000  0.00  0.00    +0.000 A 
ATOM     26  C   UNL     1      -2.523   4.822 127.726  0.00  0.00    +0.000 A 
ATOM     27  C   UNL     1      -2.243   3.620 127.067  0.00  0.00    +0.000 A 
ATOM     28  C   UNL     1      -3.257   2.714 126.777  0.00  0.00    +0.000 A 
ENDBRANCH  22  23
ENDBRANCH   6  22
ENDBRANCH   3   6
ENDBRANCH   1   2
BRANCH   1  29
ATOM     29  C   UNL     1      -7.277  -0.237 130.933  0.00  0.00    +0.000 C 
ATOM     30  O   UNL     1      -7.131  -0.209 132.156  0.00  0.00    +0.000 OA
ATOM     31  N   UNL     1      -6.660  -1.272 130.268  0.00  0.00    +0.000 N 
ATOM     32  H   UNL     1      -5.956  -1.640 130.891  0.00  0.00    +0.000 HD
BRANCH  31  33
ATOM     33  C   UNL     1      -6.971  -2.150 129.085  0.00  0.00    +0.000 C 
BRANCH  33  34
ATOM     34  C   UNL     1      -6.391  -1.908 127.652  0.00  0.00    +0.000 C 
ATOM     35  O   UNL     1      -5.159  -1.875 127.460  0.00  0.00    +0.000 OA
ATOM     36  N   UNL     1      -7.222  -2.073 126.563  0.00  0.00    +0.000 N 
ATOM     37  C   UNL     1      -6.589  -2.425 125.300  0.00  0.00    +0.000 C 
ATOM     38  C   UNL     1      -7.548  -3.266 124.457  0.00  0.00    +0.000 C 
ATOM     39  C   UNL     1      -8.904  -2.563 124.284  0.00  0.00    +0.000 C 
ATOM     40  C   UNL     1      -9.471  -2.229 125.678  0.00  0.00    +0.000 C 
ATOM     41  C   UNL     1      -8.478  -1.358 126.422  0.00  0.00    +0.000 C 
BRANCH  39  42
ATOM     42  N   UNL     1      -9.842  -3.496 123.626  0.00  0.00    +0.000 NA
ATOM     43  H   UNL     1      -9.991  -3.237 122.651  0.00  0.00    +0.000 HD
ATOM     44  H   UNL     1     -10.749  -3.481 124.086  0.00  0.00    +0.000 HD
ENDBRANCH  39  42
BRANCH  39  45
ATOM     45  C   UNL     1      -8.861  -1.232 123.448  0.00  0.00    +0.000 C 
ATOM     46  O   UNL     1      -7.840  -0.628 123.216  0.00  0.00    +0.000 OA
BRANCH  45  47
ATOM     47  O   UNL     1     -10.041  -0.778 122.954  0.00  0.00    +0.000 OA
ATOM     48  H   UNL     1     -10.279   0.158 123.032  0.00  0.00    +0.000 HD
ENDBRANCH  45  47
ENDBRANCH  39  45
ENDBRANCH  33  34
BRANCH  33  49
ATOM     49  C   UNL     1      -6.861  -3.675 129.294  0.00  0.00    +0.000 C 
BRANCH  49  50
ATOM     50  C   UNL     1      -6.211  -4.043 130.680  0.00  0.00    +0.000 C 
BRANCH  50  51
ATOM     51  C   UNL     1      -4.677  -3.897 130.700  0.00  0.00    +0.000 C 
BRANCH  51  52
ATOM     52  C   UNL     1      -3.647  -3.788 129.566  0.00  0.00    +0.000 C 
BRANCH  52  53
ATOM     53  N   UNL     1      -2.741  -2.580 129.541  0.00  0.00    +0.000 NA
ATOM     54  H   UNL     1      -3.218  -1.681 129.708  0.00  0.00    +0.000 HD
ATOM     55  H   UNL     1      -2.344  -2.450 128.608  0.00  0.00    +0.000 HD
ENDBRANCH  52  53
ENDBRANCH  51  52
ENDBRANCH  50  51
ENDBRANCH  49  50
ENDBRANCH  33  49
ENDBRANCH  31  33
ENDBRANCH   1  29
BRANCH   1  56
ATOM     56  C   UNL     1      -8.986   1.800 131.079  0.00  0.00    +0.000 C 
BRANCH  56  58
ATOM     57  C   UNL     1      -6.881   3.405 131.261  0.00  0.00    +0.000 C 
ATOM     58  C   UNL     1      -8.368   3.210 131.174  0.00  0.00    +0.000 C 
ATOM     59  C   UNL     1      -8.974   4.196 130.206  0.00  0.00    +0.000 C 
ENDBRANCH  56  58
ENDBRANCH   1  56
TORSDOF 22
ENDMDL
MODEL 5
REMARK VINA RESULT:      -9.3      2.168      9.882
REMARK  Name = Difelikefalin
REMARK  24 active torsions:
REMARK  status: ('A' for Active; 'I' for Inactive)
REMARK    1  A    between atoms: C_1  and  C_2
REMARK    2  A    between atoms: C_2  and  C_3
REMARK    3  A    between atoms: C_2  and  C_4
REMARK    4  A    between atoms: C_4  and  C_5
REMARK    5  A    between atoms: C_5  and  N_6
REMARK    6  A    between atoms: C_5  and  C_29
REMARK    7  A    between atoms: C_7  and  C_9
REMARK    8  A    between atoms: C_9  and  C_10
REMARK    9  A    between atoms: C_9  and  N_17
REMARK   10  A    between atoms: C_10  and  C_11
REMARK   11  A    between atoms: C_18  and  C_20
REMARK   12  A    between atoms: C_20  and  N_21
REMARK   13  A    between atoms: C_20  and  C_22
REMARK   14  A    between atoms: C_22  and  C_23
REMARK   15  A    between atoms: N_31  and  C_32
REMARK   16  A    between atoms: C_32  and  C_33
REMARK   17  A    between atoms: C_32  and  C_38
REMARK   18  A    between atoms: C_33  and  C_34
REMARK   19  A    between atoms: C_34  and  C_35
REMARK   20  A    between atoms: C_35  and  C_36
REMARK   21  A    between atoms: C_36  and  N_37
REMARK   22  A    between atoms: C_43  and  N_44
REMARK   23  A    between atoms: C_43  and  C_47
REMARK   24  A    between atoms: C_47  and  O_48
REMARK                            x       y       z     vdW  Elec       q    Type
REMARK                         _______ _______ _______ _____ _____    ______ ____
ROOT
ATOM      1  C   UNL     1      -6.985   2.853 127.785  0.00  0.00    +0.000 C 
ENDROOT
BRANCH   1   2
ATOM      2  N   UNL     1      -7.439   2.304 126.365  0.00  0.00    +0.000 N 
ATOM      3  C   UNL     1      -8.156   2.816 125.183  0.00  0.00    +0.000 C 
ATOM      4  O   UNL     1      -8.763   3.886 125.026  0.00  0.00    +0.000 OA
ATOM      5  H   UNL     1      -7.634   1.334 126.541  0.00  0.00    +0.000 HD
BRANCH   3   6
ATOM      6  C   UNL     1      -8.051   2.147 123.829  0.00  0.00    +0.000 C 
BRANCH   6   7
ATOM      7  N   UNL     1      -7.812   0.715 124.151  0.00  0.00    +0.000 N 
ATOM      8  C   UNL     1      -8.702  -0.252 123.813  0.00  0.00    +0.000 C 
ATOM      9  O   UNL     1      -9.743   0.084 123.286  0.00  0.00    +0.000 OA
ATOM     10  H   UNL     1      -6.938   0.460 124.619  0.00  0.00    +0.000 HD
BRANCH   8  11
ATOM     11  C   UNL     1      -8.327  -1.720 124.147  0.00  0.00    +0.000 C 
BRANCH  11  12
ATOM     12  N   UNL     1      -8.264  -2.610 122.954  0.00  0.00    +0.000 NA
ATOM     13  H   UNL     1      -7.883  -2.096 122.157  0.00  0.00    +0.000 HD
ATOM     14  H   UNL     1      -9.222  -2.842 122.677  0.00  0.00    +0.000 HD
ENDBRANCH  11  12
BRANCH  11  15
ATOM     15  C   UNL     1      -9.305  -2.296 125.182  0.00  0.00    +0.000 C 
BRANCH  15  16
ATOM     16  C   UNL     1      -8.695  -2.493 126.544  0.00  0.00    +0.000 A 
ATOM     17  C   UNL     1      -7.853  -1.526 127.101  0.00  0.00    +0.000 A 
ATOM     18  C   UNL     1      -7.290  -1.736 128.358  0.00  0.00    +0.000 A 
ATOM     19  C   UNL     1      -7.647  -2.857 129.107  0.00  0.00    +0.000 A 
ATOM     20  C   UNL     1      -8.544  -3.789 128.592  0.00  0.00    +0.000 A 
ATOM     21  C   UNL     1      -9.048  -3.618 127.307  0.00  0.00    +0.000 A 
ENDBRANCH  15  16
ENDBRANCH  11  15
ENDBRANCH   8  11
ENDBRANCH   6   7
BRANCH   6  22
ATOM     22  C   UNL     1      -6.856   2.793 123.159  0.00  0.00    +0.000 C 
BRANCH  22  23
ATOM     23  C   UNL     1      -7.266   3.438 121.857  0.00  0.00    +0.000 A 
ATOM     24  C   UNL     1      -6.329   3.964 120.941  0.00  0.00    +0.000 A 
ATOM     25  C   UNL     1      -6.686   4.250 119.634  0.00  0.00    +0.000 A 
ATOM     26  C   UNL     1      -8.026   4.234 119.298  0.00  0.00    +0.000 A 
ATOM     27  C   UNL     1      -8.987   3.863 120.245  0.00  0.00    +0.000 A 
ATOM     28  C   UNL     1      -8.608   3.402 121.500  0.00  0.00    +0.000 A 
ENDBRANCH  22  23
ENDBRANCH   6  22
ENDBRANCH   3   6
ENDBRANCH   1   2
BRANCH   1  29
ATOM     29  C   UNL     1      -8.069   2.575 128.882  0.00  0.00    +0.000 C 
ATOM     30  O   UNL     1      -8.597   1.471 129.018  0.00  0.00    +0.000 OA
ATOM     31  N   UNL     1      -8.412   3.533 129.808  0.00  0.00    +0.000 N 
ATOM     32  H   UNL     1      -9.266   3.222 130.247  0.00  0.00    +0.000 HD
BRANCH  31  33
ATOM     33  C   UNL     1      -7.716   4.661 130.523  0.00  0.00    +0.000 C 
BRANCH  33  34
ATOM     34  C   UNL     1      -8.201   6.148 130.471  0.00  0.00    +0.000 C 
ATOM     35  O   UNL     1      -7.380   7.083 130.377  0.00  0.00    +0.000 OA
ATOM     36  N   UNL     1      -9.526   6.404 130.185  0.00  0.00    +0.000 N 
ATOM     37  C   UNL     1      -9.830   7.691 129.574  0.00  0.00    +0.000 C 
ATOM     38  C   UNL     1     -11.061   7.559 128.677  0.00  0.00    +0.000 C 
ATOM     39  C   UNL     1     -12.248   6.951 129.442  0.00  0.00    +0.000 C 
ATOM     40  C   UNL     1     -11.808   5.606 130.052  0.00  0.00    +0.000 C 
ATOM     41  C   UNL     1     -10.616   5.838 130.959  0.00  0.00    +0.000 C 
BRANCH  39  42
ATOM     42  N   UNL     1     -13.340   6.678 128.484  0.00  0.00    +0.000 NA
ATOM     43  H   UNL     1     -13.147   5.837 127.942  0.00  0.00    +0.000 HD
ATOM     44  H   UNL     1     -13.445   7.447 127.826  0.00  0.00    +0.000 HD
ENDBRANCH  39  42
BRANCH  39  45
ATOM     45  C   UNL     1     -12.819   7.845 130.603  0.00  0.00    +0.000 C 
ATOM     46  O   UNL     1     -12.816   9.053 130.572  0.00  0.00    +0.000 OA
BRANCH  45  47
ATOM     47  O   UNL     1     -13.360   7.197 131.667  0.00  0.00    +0.000 OA
ATOM     48  H   UNL     1     -14.058   6.538 131.538  0.00  0.00    +0.000 HD
ENDBRANCH  45  47
ENDBRANCH  39  45
ENDBRANCH  33  34
BRANCH  33  49
ATOM     49  C   UNL     1      -7.336   4.429 132.001  0.00  0.00    +0.000 C 
BRANCH  49  50
ATOM     50  C   UNL     1      -8.321   3.434 132.720  0.00  0.00    +0.000 C 
BRANCH  50  51
ATOM     51  C   UNL     1      -8.642   3.827 134.175  0.00  0.00    +0.000 C 
BRANCH  51  52
ATOM     52  C   UNL     1      -7.949   4.793 135.148  0.00  0.00    +0.000 C 
BRANCH  52  53
ATOM     53  N   UNL     1      -8.415   6.229 135.177  0.00  0.00    +0.000 NA
ATOM     54  H   UNL     1      -8.783   6.580 134.281  0.00  0.00    +0.000 HD
ATOM     55  H   UNL     1      -7.626   6.856 135.353  0.00  0.00    +0.000 HD
ENDBRANCH  52  53
ENDBRANCH  51  52
ENDBRANCH  50  51
ENDBRANCH  49  50
ENDBRANCH  33  49
ENDBRANCH  31  33
ENDBRANCH   1  29
BRANCH   1  56
ATOM     56  C   UNL     1      -5.490   2.648 128.223  0.00  0.00    +0.000 C 
BRANCH  56  58
ATOM     57  C   UNL     1      -4.762   4.824 126.889  0.00  0.00    +0.000 C 
ATOM     58  C   UNL     1      -4.449   3.453 127.416  0.00  0.00    +0.000 C 
ATOM     59  C   UNL     1      -3.069   3.421 128.022  0.00  0.00    +0.000 C 
ENDBRANCH  56  58
ENDBRANCH   1  56
TORSDOF 22
ENDMDL
MODEL 6
REMARK VINA RESULT:      -9.2      3.157      6.984
REMARK  Name = Difelikefalin
REMARK  24 active torsions:
REMARK  status: ('A' for Active; 'I' for Inactive)
REMARK    1  A    between atoms: C_1  and  C_2
REMARK    2  A    between atoms: C_2  and  C_3
REMARK    3  A    between atoms: C_2  and  C_4
REMARK    4  A    between atoms: C_4  and  C_5
REMARK    5  A    between atoms: C_5  and  N_6
REMARK    6  A    between atoms: C_5  and  C_29
REMARK    7  A    between atoms: C_7  and  C_9
REMARK    8  A    between atoms: C_9  and  C_10
REMARK    9  A    between atoms: C_9  and  N_17
REMARK   10  A    between atoms: C_10  and  C_11
REMARK   11  A    between atoms: C_18  and  C_20
REMARK   12  A    between atoms: C_20  and  N_21
REMARK   13  A    between atoms: C_20  and  C_22
REMARK   14  A    between atoms: C_22  and  C_23
REMARK   15  A    between atoms: N_31  and  C_32
REMARK   16  A    between atoms: C_32  and  C_33
REMARK   17  A    between atoms: C_32  and  C_38
REMARK   18  A    between atoms: C_33  and  C_34
REMARK   19  A    between atoms: C_34  and  C_35
REMARK   20  A    between atoms: C_35  and  C_36
REMARK   21  A    between atoms: C_36  and  N_37
REMARK   22  A    between atoms: C_43  and  N_44
REMARK   23  A    between atoms: C_43  and  C_47
REMARK   24  A    between atoms: C_47  and  O_48
REMARK                            x       y       z     vdW  Elec       q    Type
REMARK                         _______ _______ _______ _____ _____    ______ ____
ROOT
ATOM      1  C   UNL     1      -5.342  -0.810 129.514  0.00  0.00    +0.000 C 
ENDROOT
BRANCH   1   2
ATOM      2  N   UNL     1      -4.917   0.609 128.938  0.00  0.00    +0.000 N 
ATOM      3  C   UNL     1      -4.803   1.254 127.616  0.00  0.00    +0.000 C 
ATOM      4  O   UNL     1      -4.902   0.761 126.483  0.00  0.00    +0.000 OA
ATOM      5  H   UNL     1      -4.205   0.918 129.577  0.00  0.00    +0.000 HD
BRANCH   3   6
ATOM      6  C   UNL     1      -4.764   2.759 127.459  0.00  0.00    +0.000 C 
BRANCH   6   7
ATOM      7  N   UNL     1      -5.376   2.999 126.125  0.00  0.00    +0.000 N 
ATOM      8  C   UNL     1      -6.275   3.994 125.920  0.00  0.00    +0.000 C 
ATOM      9  O   UNL     1      -6.624   4.659 126.874  0.00  0.00    +0.000 OA
ATOM     10  H   UNL     1      -5.085   2.408 125.341  0.00  0.00    +0.000 HD
BRANCH   8  11
ATOM     11  C   UNL     1      -6.809   4.192 124.476  0.00  0.00    +0.000 C 
BRANCH  11  12
ATOM     12  N   UNL     1      -8.274   3.962 124.341  0.00  0.00    +0.000 NA
ATOM     13  H   UNL     1      -8.754   4.852 124.191  0.00  0.00    +0.000 HD
ATOM     14  H   UNL     1      -8.630   3.626 125.240  0.00  0.00    +0.000 HD
ENDBRANCH  11  12
BRANCH  11  15
ATOM     15  C   UNL     1      -6.042   3.291 123.498  0.00  0.00    +0.000 C 
BRANCH  15  16
ATOM     16  C   UNL     1      -5.986   3.833 122.095  0.00  0.00    +0.000 A 
ATOM     17  C   UNL     1      -7.044   3.633 121.205  0.00  0.00    +0.000 A 
ATOM     18  C   UNL     1      -6.965   4.134 119.907  0.00  0.00    +0.000 A 
ATOM     19  C   UNL     1      -5.880   4.924 119.526  0.00  0.00    +0.000 A 
ATOM     20  C   UNL     1      -4.855   5.192 120.430  0.00  0.00    +0.000 A 
ATOM     21  C   UNL     1      -4.898   4.631 121.702  0.00  0.00    +0.000 A 
ENDBRANCH  15  16
ENDBRANCH  11  15
ENDBRANCH   8  11
ENDBRANCH   6   7
BRANCH   6  22
ATOM     22  C   UNL     1      -3.294   3.123 127.491  0.00  0.00    +0.000 C 
BRANCH  22  23
ATOM     23  C   UNL     1      -3.058   4.283 128.427  0.00  0.00    +0.000 A 
ATOM     24  C   UNL     1      -3.254   4.187 129.823  0.00  0.00    +0.000 A 
ATOM     25  C   UNL     1      -2.732   5.134 130.687  0.00  0.00    +0.000 A 
ATOM     26  C   UNL     1      -2.214   6.300 130.155  0.00  0.00    +0.000 A 
ATOM     27  C   UNL     1      -2.155   6.477 128.768  0.00  0.00    +0.000 A 
ATOM     28  C   UNL     1      -2.511   5.448 127.904  0.00  0.00    +0.000 A 
ENDBRANCH  22  23
ENDBRANCH   6  22
ENDBRANCH   3   6
ENDBRANCH   1   2
BRANCH   1  29
ATOM     29  C   UNL     1      -6.817  -0.797 130.042  0.00  0.00    +0.000 C 
ATOM     30  O   UNL     1      -7.134  -1.306 131.118  0.00  0.00    +0.000 OA
ATOM     31  N   UNL     1      -7.812  -0.128 129.367  0.00  0.00    +0.000 N 
ATOM     32  H   UNL     1      -8.690  -0.446 129.753  0.00  0.00    +0.000 HD
BRANCH  31  33
ATOM     33  C   UNL     1      -7.914   1.108 128.513  0.00  0.00    +0.000 C 
BRANCH  33  34
ATOM     34  C   UNL     1      -8.533   1.118 127.076  0.00  0.00    +0.000 C 
ATOM     35  O   UNL     1      -9.058   2.151 126.615  0.00  0.00    +0.000 OA
ATOM     36  N   UNL     1      -8.197   0.105 126.202  0.00  0.00    +0.000 N 
ATOM     37  C   UNL     1      -8.272   0.411 124.780  0.00  0.00    +0.000 C 
ATOM     38  C   UNL     1      -7.238  -0.418 124.018  0.00  0.00    +0.000 C 
ATOM     39  C   UNL     1      -7.385  -1.917 124.327  0.00  0.00    +0.000 C 
ATOM     40  C   UNL     1      -7.304  -2.119 125.852  0.00  0.00    +0.000 C 
ATOM     41  C   UNL     1      -8.390  -1.299 126.520  0.00  0.00    +0.000 C 
BRANCH  39  42
ATOM     42  N   UNL     1      -6.252  -2.641 123.713  0.00  0.00    +0.000 NA
ATOM     43  H   UNL     1      -5.374  -2.152 123.879  0.00  0.00    +0.000 HD
ATOM     44  H   UNL     1      -6.373  -2.716 122.706  0.00  0.00    +0.000 HD
ENDBRANCH  39  42
BRANCH  39  45
ATOM     45  C   UNL     1      -8.723  -2.571 123.823  0.00  0.00    +0.000 C 
ATOM     46  O   UNL     1      -9.025  -3.719 124.049  0.00  0.00    +0.000 OA
BRANCH  45  47
ATOM     47  O   UNL     1      -9.573  -1.773 123.126  0.00  0.00    +0.000 OA
ATOM     48  H   UNL     1     -10.179  -1.177 123.590  0.00  0.00    +0.000 HD
ENDBRANCH  45  47
ENDBRANCH  39  45
ENDBRANCH  33  34
BRANCH  33  49
ATOM     49  C   UNL     1      -8.472   2.381 129.184  0.00  0.00    +0.000 C 
BRANCH  49  50
ATOM     50  C   UNL     1      -7.374   3.150 130.009  0.00  0.00    +0.000 C 
BRANCH  50  51
ATOM     51  C   UNL     1      -7.604   3.107 131.532  0.00  0.00    +0.000 C 
BRANCH  51  52
ATOM     52  C   UNL     1      -6.993   2.226 132.632  0.00  0.00    +0.000 C 
BRANCH  52  53
ATOM     53  N   UNL     1      -7.733   0.971 133.031  0.00  0.00    +0.000 NA
ATOM     54  H   UNL     1      -7.197   0.328 133.632  0.00  0.00    +0.000 HD
ATOM     55  H   UNL     1      -7.928   0.396 132.209  0.00  0.00    +0.000 HD
ENDBRANCH  52  53
ENDBRANCH  51  52
ENDBRANCH  50  51
ENDBRANCH  49  50
ENDBRANCH  33  49
ENDBRANCH  31  33
ENDBRANCH   1  29
BRANCH   1  56
ATOM     56  C   UNL     1      -4.899  -2.097 128.730  0.00  0.00    +0.000 C 
BRANCH  56  58
ATOM     57  C   UNL     1      -5.182  -4.272 130.223  0.00  0.00    +0.000 C 
ATOM     58  C   UNL     1      -4.304  -3.226 129.596  0.00  0.00    +0.000 C 
ATOM     59  C   UNL     1      -3.076  -3.860 128.992  0.00  0.00    +0.000 C 
ENDBRANCH  56  58
ENDBRANCH   1  56
TORSDOF 22
ENDMDL
MODEL 7
REMARK VINA RESULT:      -9.1      2.733      5.084
REMARK  Name = Difelikefalin
REMARK  24 active torsions:
REMARK  status: ('A' for Active; 'I' for Inactive)
REMARK    1  A    between atoms: C_1  and  C_2
REMARK    2  A    between atoms: C_2  and  C_3
REMARK    3  A    between atoms: C_2  and  C_4
REMARK    4  A    between atoms: C_4  and  C_5
REMARK    5  A    between atoms: C_5  and  N_6
REMARK    6  A    between atoms: C_5  and  C_29
REMARK    7  A    between atoms: C_7  and  C_9
REMARK    8  A    between atoms: C_9  and  C_10
REMARK    9  A    between atoms: C_9  and  N_17
REMARK   10  A    between atoms: C_10  and  C_11
REMARK   11  A    between atoms: C_18  and  C_20
REMARK   12  A    between atoms: C_20  and  N_21
REMARK   13  A    between atoms: C_20  and  C_22
REMARK   14  A    between atoms: C_22  and  C_23
REMARK   15  A    between atoms: N_31  and  C_32
REMARK   16  A    between atoms: C_32  and  C_33
REMARK   17  A    between atoms: C_32  and  C_38
REMARK   18  A    between atoms: C_33  and  C_34
REMARK   19  A    between atoms: C_34  and  C_35
REMARK   20  A    between atoms: C_35  and  C_36
REMARK   21  A    between atoms: C_36  and  N_37
REMARK   22  A    between atoms: C_43  and  N_44
REMARK   23  A    between atoms: C_43  and  C_47
REMARK   24  A    between atoms: C_47  and  O_48
REMARK                            x       y       z     vdW  Elec       q    Type
REMARK                         _______ _______ _______ _____ _____    ______ ____
ROOT
ATOM      1  C   UNL     1      -4.951   1.553 129.217  0.00  0.00    +0.000 C 
ENDROOT
BRANCH   1   2
ATOM      2  N   UNL     1      -6.448   1.894 129.625  0.00  0.00    +0.000 N 
ATOM      3  C   UNL     1      -7.593   1.192 130.235  0.00  0.00    +0.000 C 
ATOM      4  O   UNL     1      -7.733  -0.010 130.504  0.00  0.00    +0.000 OA
ATOM      5  H   UNL     1      -6.735   2.560 128.928  0.00  0.00    +0.000 HD
BRANCH   3   6
ATOM      6  C   UNL     1      -8.749   1.940 130.865  0.00  0.00    +0.000 C 
BRANCH   6   7
ATOM      7  N   UNL     1      -8.391   3.373 130.688  0.00  0.00    +0.000 N 
ATOM      8  C   UNL     1      -9.223   4.245 130.064  0.00  0.00    +0.000 C 
ATOM      9  O   UNL     1     -10.256   3.816 129.591  0.00  0.00    +0.000 OA
ATOM     10  H   UNL     1      -7.503   3.705 131.073  0.00  0.00    +0.000 HD
BRANCH   8  11
ATOM     11  C   UNL     1      -8.776   5.729 129.984  0.00  0.00    +0.000 C 
BRANCH  11  12
ATOM     12  N   UNL     1      -7.370   5.957 130.421  0.00  0.00    +0.000 NA
ATOM     13  H   UNL     1      -7.126   6.943 130.304  0.00  0.00    +0.000 HD
ATOM     14  H   UNL     1      -6.751   5.460 129.776  0.00  0.00    +0.000 HD
ENDBRANCH  11  12
BRANCH  11  15
ATOM     15  C   UNL     1      -9.730   6.615 130.799  0.00  0.00    +0.000 C 
BRANCH  15  16
ATOM     16  C   UNL     1     -10.720   7.373 129.954  0.00  0.00    +0.000 A 
ATOM     17  C   UNL     1     -10.396   7.771 128.654  0.00  0.00    +0.000 A 
ATOM     18  C   UNL     1     -11.324   8.482 127.894  0.00  0.00    +0.000 A 
ATOM     19  C   UNL     1     -12.610   8.704 128.388  0.00  0.00    +0.000 A 
ATOM     20  C   UNL     1     -12.965   8.246 129.653  0.00  0.00    +0.000 A 
ATOM     21  C   UNL     1     -12.017   7.601 130.441  0.00  0.00    +0.000 A 
ENDBRANCH  15  16
ENDBRANCH  11  15
ENDBRANCH   8  11
ENDBRANCH   6   7
BRANCH   6  22
ATOM     22  C   UNL     1      -8.746   1.522 132.320  0.00  0.00    +0.000 C 
BRANCH  22  23
ATOM     23  C   UNL     1      -8.115   2.593 133.176  0.00  0.00    +0.000 A 
ATOM     24  C   UNL     1      -8.848   3.686 133.690  0.00  0.00    +0.000 A 
ATOM     25  C   UNL     1      -8.346   4.465 134.719  0.00  0.00    +0.000 A 
ATOM     26  C   UNL     1      -7.022   4.306 135.083  0.00  0.00    +0.000 A 
ATOM     27  C   UNL     1      -6.235   3.326 134.469  0.00  0.00    +0.000 A 
ATOM     28  C   UNL     1      -6.793   2.426 133.568  0.00  0.00    +0.000 A 
ENDBRANCH  22  23
ENDBRANCH   6  22
ENDBRANCH   3   6
ENDBRANCH   1   2
BRANCH   1  29
ATOM     29  C   UNL     1      -4.619   0.041 129.459  0.00  0.00    +0.000 C 
ATOM     30  O   UNL     1      -4.130  -0.363 130.514  0.00  0.00    +0.000 OA
ATOM     31  N   UNL     1      -4.951  -0.921 128.532  0.00  0.00    +0.000 N 
ATOM     32  H   UNL     1      -4.446  -1.757 128.787  0.00  0.00    +0.000 HD
BRANCH  31  33
ATOM     33  C   UNL     1      -6.047  -1.134 127.523  0.00  0.00    +0.000 C 
BRANCH  33  34
ATOM     34  C   UNL     1      -5.987  -0.598 126.054  0.00  0.00    +0.000 C 
ATOM     35  O   UNL     1      -5.128  -1.022 125.255  0.00  0.00    +0.000 OA
ATOM     36  N   UNL     1      -7.079   0.076 125.548  0.00  0.00    +0.000 N 
ATOM     37  C   UNL     1      -7.262   0.042 124.103  0.00  0.00    +0.000 C 
ATOM     38  C   UNL     1      -8.752   0.127 123.768  0.00  0.00    +0.000 C 
ATOM     39  C   UNL     1      -9.406   1.346 124.437  0.00  0.00    +0.000 C 
ATOM     40  C   UNL     1      -9.139   1.284 125.953  0.00  0.00    +0.000 C 
ATOM     41  C   UNL     1      -7.643   1.249 126.192  0.00  0.00    +0.000 C 
BRANCH  39  42
ATOM     42  N   UNL     1     -10.868   1.272 124.232  0.00  0.00    +0.000 NA
ATOM     43  H   UNL     1     -11.242   0.392 124.584  0.00  0.00    +0.000 HD
ATOM     44  H   UNL     1     -11.098   1.325 123.242  0.00  0.00    +0.000 HD
ENDBRANCH  39  42
BRANCH  39  45
ATOM     45  C   UNL     1      -8.903   2.741 123.914  0.00  0.00    +0.000 C 
ATOM     46  O   UNL     1      -8.487   2.918 122.794  0.00  0.00    +0.000 OA
BRANCH  45  47
ATOM     47  O   UNL     1      -8.977   3.784 124.781  0.00  0.00    +0.000 OA
ATOM     48  H   UNL     1      -9.602   3.766 125.520  0.00  0.00    +0.000 HD
ENDBRANCH  45  47
ENDBRANCH  39  45
ENDBRANCH  33  34
BRANCH  33  49
ATOM     49  C   UNL     1      -6.612  -2.564 127.390  0.00  0.00    +0.000 C 
BRANCH  49  50
ATOM     50  C   UNL     1      -8.004  -2.725 128.107  0.00  0.00    +0.000 C 
BRANCH  50  51
ATOM     51  C   UNL     1      -7.911  -3.391 129.493  0.00  0.00    +0.000 C 
BRANCH  51  52
ATOM     52  C   UNL     1      -6.723  -3.610 130.443  0.00  0.00    +0.000 C 
BRANCH  52  53
ATOM     53  N   UNL     1      -6.204  -2.421 131.217  0.00  0.00    +0.000 NA
ATOM     54  H   UNL     1      -5.888  -2.636 132.174  0.00  0.00    +0.000 HD
ATOM     55  H   UNL     1      -6.954  -1.745 131.378  0.00  0.00    +0.000 HD
ENDBRANCH  52  53
ENDBRANCH  51  52
ENDBRANCH  50  51
ENDBRANCH  49  50
ENDBRANCH  33  49
ENDBRANCH  31  33
ENDBRANCH   1  29
BRANCH   1  56
ATOM     56  C   UNL     1      -4.372   2.186 127.901  0.00  0.00    +0.000 C 
BRANCH  56  58
ATOM     57  C   UNL     1      -2.053   3.105 126.995  0.00  0.00    +0.000 C 
ATOM     58  C   UNL     1      -3.090   3.026 128.079  0.00  0.00    +0.000 C 
ATOM     59  C   UNL     1      -3.347   4.392 128.665  0.00  0.00    +0.000 C 
ENDBRANCH  56  58
ENDBRANCH   1  56
TORSDOF 22
ENDMDL
MODEL 8
REMARK VINA RESULT:      -9.0      2.358      9.550
REMARK  Name = Difelikefalin
REMARK  24 active torsions:
REMARK  status: ('A' for Active; 'I' for Inactive)
REMARK    1  A    between atoms: C_1  and  C_2
REMARK    2  A    between atoms: C_2  and  C_3
REMARK    3  A    between atoms: C_2  and  C_4
REMARK    4  A    between atoms: C_4  and  C_5
REMARK    5  A    between atoms: C_5  and  N_6
REMARK    6  A    between atoms: C_5  and  C_29
REMARK    7  A    between atoms: C_7  and  C_9
REMARK    8  A    between atoms: C_9  and  C_10
REMARK    9  A    between atoms: C_9  and  N_17
REMARK   10  A    between atoms: C_10  and  C_11
REMARK   11  A    between atoms: C_18  and  C_20
REMARK   12  A    between atoms: C_20  and  N_21
REMARK   13  A    between atoms: C_20  and  C_22
REMARK   14  A    between atoms: C_22  and  C_23
REMARK   15  A    between atoms: N_31  and  C_32
REMARK   16  A    between atoms: C_32  and  C_33
REMARK   17  A    between atoms: C_32  and  C_38
REMARK   18  A    between atoms: C_33  and  C_34
REMARK   19  A    between atoms: C_34  and  C_35
REMARK   20  A    between atoms: C_35  and  C_36
REMARK   21  A    between atoms: C_36  and  N_37
REMARK   22  A    between atoms: C_43  and  N_44
REMARK   23  A    between atoms: C_43  and  C_47
REMARK   24  A    between atoms: C_47  and  O_48
REMARK                            x       y       z     vdW  Elec       q    Type
REMARK                         _______ _______ _______ _____ _____    ______ ____
ROOT
ATOM      1  C   UNL     1      -5.747   2.938 126.992  0.00  0.00    +0.000 C 
ENDROOT
BRANCH   1   2
ATOM      2  N   UNL     1      -6.454   3.046 125.574  0.00  0.00    +0.000 N 
ATOM      3  C   UNL     1      -6.477   3.990 124.441  0.00  0.00    +0.000 C 
ATOM      4  O   UNL     1      -5.990   5.127 124.348  0.00  0.00    +0.000 OA
ATOM      5  H   UNL     1      -7.346   2.606 125.723  0.00  0.00    +0.000 HD
BRANCH   3   6
ATOM      6  C   UNL     1      -6.943   3.577 123.061  0.00  0.00    +0.000 C 
BRANCH   6   7
ATOM      7  N   UNL     1      -7.586   2.254 123.278  0.00  0.00    +0.000 N 
ATOM      8  C   UNL     1      -8.775   1.935 122.707  0.00  0.00    +0.000 C 
ATOM      9  O   UNL     1      -9.344   2.784 122.051  0.00  0.00    +0.000 OA
ATOM     10  H   UNL     1      -7.099   1.564 123.857  0.00  0.00    +0.000 HD
BRANCH   8  11
ATOM     11  C   UNL     1      -9.329   0.507 122.954  0.00  0.00    +0.000 C 
BRANCH  11  12
ATOM     12  N   UNL     1     -10.808   0.402 122.805  0.00  0.00    +0.000 NA
ATOM     13  H   UNL     1     -11.047   0.242 121.824  0.00  0.00    +0.000 HD
ATOM     14  H   UNL     1     -11.217   1.314 123.024  0.00  0.00    +0.000 HD
ENDBRANCH  11  12
BRANCH  11  15
ATOM     15  C   UNL     1      -8.904   0.005 124.342  0.00  0.00    +0.000 C 
BRANCH  15  16
ATOM     16  C   UNL     1      -8.099  -1.267 124.303  0.00  0.00    +0.000 A 
ATOM     17  C   UNL     1      -6.702  -1.232 124.284  0.00  0.00    +0.000 A 
ATOM     18  C   UNL     1      -5.978  -2.422 124.236  0.00  0.00    +0.000 A 
ATOM     19  C   UNL     1      -6.640  -3.648 124.314  0.00  0.00    +0.000 A 
ATOM     20  C   UNL     1      -8.028  -3.692 124.408  0.00  0.00    +0.000 A 
ATOM     21  C   UNL     1      -8.755  -2.506 124.382  0.00  0.00    +0.000 A 
ENDBRANCH  15  16
ENDBRANCH  11  15
ENDBRANCH   8  11
ENDBRANCH   6   7
BRANCH   6  22
ATOM     22  C   UNL     1      -5.680   3.473 122.231  0.00  0.00    +0.000 C 
BRANCH  22  23
ATOM     23  C   UNL     1      -5.901   4.061 120.859  0.00  0.00    +0.000 A 
ATOM     24  C   UNL     1      -6.997   3.700 120.043  0.00  0.00    +0.000 A 
ATOM     25  C   UNL     1      -7.362   4.469 118.951  0.00  0.00    +0.000 A 
ATOM     26  C   UNL     1      -6.504   5.467 118.529  0.00  0.00    +0.000 A 
ATOM     27  C   UNL     1      -5.330   5.735 119.241  0.00  0.00    +0.000 A 
ATOM     28  C   UNL     1      -5.059   5.083 120.439  0.00  0.00    +0.000 A 
ENDBRANCH  22  23
ENDBRANCH   6  22
ENDBRANCH   3   6
ENDBRANCH   1   2
BRANCH   1  29
ATOM     29  C   UNL     1      -6.756   2.496 128.106  0.00  0.00    +0.000 C 
ATOM     30  O   UNL     1      -7.264   1.374 128.124  0.00  0.00    +0.000 OA
ATOM     31  N   UNL     1      -7.049   3.315 129.172  0.00  0.00    +0.000 N 
ATOM     32  H   UNL     1      -7.872   2.933 129.616  0.00  0.00    +0.000 HD
BRANCH  31  33
ATOM     33  C   UNL     1      -6.321   4.350 129.987  0.00  0.00    +0.000 C 
BRANCH  33  34
ATOM     34  C   UNL     1      -6.971   5.692 130.462  0.00  0.00    +0.000 C 
ATOM     35  O   UNL     1      -6.282   6.725 130.590  0.00  0.00    +0.000 OA
ATOM     36  N   UNL     1      -8.344   5.821 130.406  0.00  0.00    +0.000 N 
ATOM     37  C   UNL     1      -8.874   7.171 130.271  0.00  0.00    +0.000 C 
ATOM     38  C   UNL     1     -10.196   7.133 129.506  0.00  0.00    +0.000 C 
ATOM     39  C   UNL     1     -11.188   6.152 130.151  0.00  0.00    +0.000 C 
ATOM     40  C   UNL     1     -10.519   4.767 130.253  0.00  0.00    +0.000 C 
ATOM     41  C   UNL     1      -9.244   4.890 131.063  0.00  0.00    +0.000 C 
BRANCH  39  42
ATOM     42  N   UNL     1     -12.367   6.020 129.270  0.00  0.00    +0.000 NA
ATOM     43  H   UNL     1     -12.970   5.259 129.578  0.00  0.00    +0.000 HD
ATOM     44  H   UNL     1     -12.084   5.816 128.314  0.00  0.00    +0.000 HD
ENDBRANCH  39  42
BRANCH  39  45
ATOM     45  C   UNL     1     -11.685   6.555 131.587  0.00  0.00    +0.000 C 
ATOM     46  O   UNL     1     -10.988   6.488 132.572  0.00  0.00    +0.000 OA
BRANCH  45  47
ATOM     47  O   UNL     1     -12.956   7.023 131.688  0.00  0.00    +0.000 OA
ATOM     48  H   UNL     1     -13.700   6.408 131.765  0.00  0.00    +0.000 HD
ENDBRANCH  45  47
ENDBRANCH  39  45
ENDBRANCH  33  34
BRANCH  33  49
ATOM     49  C   UNL     1      -5.529   3.849 131.213  0.00  0.00    +0.000 C 
BRANCH  49  50
ATOM     50  C   UNL     1      -4.315   2.934 130.806  0.00  0.00    +0.000 C 
BRANCH  50  51
ATOM     51  C   UNL     1      -4.603   1.427 130.951  0.00  0.00    +0.000 C 
BRANCH  51  52
ATOM     52  C   UNL     1      -4.023   0.203 130.227  0.00  0.00    +0.000 C 
BRANCH  52  53
ATOM     53  N   UNL     1      -4.855  -0.445 129.146  0.00  0.00    +0.000 NA
ATOM     54  H   UNL     1      -4.400  -0.489 128.222  0.00  0.00    +0.000 HD
ATOM     55  H   UNL     1      -5.689   0.114 128.955  0.00  0.00    +0.000 HD
ENDBRANCH  52  53
ENDBRANCH  51  52
ENDBRANCH  50  51
ENDBRANCH  49  50
ENDBRANCH  33  49
ENDBRANCH  31  33
ENDBRANCH   1  29
BRANCH   1  56
ATOM     56  C   UNL     1      -4.313   2.300 127.065  0.00  0.00    +0.000 C 
BRANCH  56  58
ATOM     57  C   UNL     1      -1.844   3.159 126.609  0.00  0.00    +0.000 C 
ATOM     58  C   UNL     1      -3.160   3.293 127.321  0.00  0.00    +0.000 C 
ATOM     59  C   UNL     1      -3.606   4.733 127.343  0.00  0.00    +0.000 C 
ENDBRANCH  56  58
ENDBRANCH   1  56
TORSDOF 22
ENDMDL
MODEL 9
REMARK VINA RESULT:      -9.0      2.449      9.666
REMARK  Name = Difelikefalin
REMARK  24 active torsions:
REMARK  status: ('A' for Active; 'I' for Inactive)
REMARK    1  A    between atoms: C_1  and  C_2
REMARK    2  A    between atoms: C_2  and  C_3
REMARK    3  A    between atoms: C_2  and  C_4
REMARK    4  A    between atoms: C_4  and  C_5
REMARK    5  A    between atoms: C_5  and  N_6
REMARK    6  A    between atoms: C_5  and  C_29
REMARK    7  A    between atoms: C_7  and  C_9
REMARK    8  A    between atoms: C_9  and  C_10
REMARK    9  A    between atoms: C_9  and  N_17
REMARK   10  A    between atoms: C_10  and  C_11
REMARK   11  A    between atoms: C_18  and  C_20
REMARK   12  A    between atoms: C_20  and  N_21
REMARK   13  A    between atoms: C_20  and  C_22
REMARK   14  A    between atoms: C_22  and  C_23
REMARK   15  A    between atoms: N_31  and  C_32
REMARK   16  A    between atoms: C_32  and  C_33
REMARK   17  A    between atoms: C_32  and  C_38
REMARK   18  A    between atoms: C_33  and  C_34
REMARK   19  A    between atoms: C_34  and  C_35
REMARK   20  A    between atoms: C_35  and  C_36
REMARK   21  A    between atoms: C_36  and  N_37
REMARK   22  A    between atoms: C_43  and  N_44
REMARK   23  A    between atoms: C_43  and  C_47
REMARK   24  A    between atoms: C_47  and  O_48
REMARK                            x       y       z     vdW  Elec       q    Type
REMARK                         _______ _______ _______ _____ _____    ______ ____
ROOT
ATOM      1  C   UNL     1      -5.172   4.836 128.515  0.00  0.00    +0.000 C 
ENDROOT
BRANCH   1   2
ATOM      2  N   UNL     1      -5.707   4.118 127.203  0.00  0.00    +0.000 N 
ATOM      3  C   UNL     1      -6.224   4.519 125.880  0.00  0.00    +0.000 C 
ATOM      4  O   UNL     1      -6.520   5.645 125.454  0.00  0.00    +0.000 OA
ATOM      5  H   UNL     1      -6.159   3.292 127.555  0.00  0.00    +0.000 HD
BRANCH   3   6
ATOM      6  C   UNL     1      -6.255   3.562 124.707  0.00  0.00    +0.000 C 
BRANCH   6   7
ATOM      7  N   UNL     1      -5.847   2.258 125.294  0.00  0.00    +0.000 N 
ATOM      8  C   UNL     1      -6.743   1.263 125.515  0.00  0.00    +0.000 C 
ATOM      9  O   UNL     1      -7.914   1.480 125.277  0.00  0.00    +0.000 OA
ATOM     10  H   UNL     1      -4.858   2.108 125.510  0.00  0.00    +0.000 HD
BRANCH   8  11
ATOM     11  C   UNL     1      -6.201  -0.077 126.079  0.00  0.00    +0.000 C 
BRANCH  11  12
ATOM     12  N   UNL     1      -5.012   0.080 126.962  0.00  0.00    +0.000 NA
ATOM     13  H   UNL     1      -4.477  -0.791 126.982  0.00  0.00    +0.000 HD
ATOM     14  H   UNL     1      -5.341   0.203 127.923  0.00  0.00    +0.000 HD
ENDBRANCH  11  12
BRANCH  11  15
ATOM     15  C   UNL     1      -5.880  -1.045 124.931  0.00  0.00    +0.000 C 
BRANCH  15  16
ATOM     16  C   UNL     1      -7.087  -1.766 124.393  0.00  0.00    +0.000 A 
ATOM     17  C   UNL     1      -7.509  -1.576 123.074  0.00  0.00    +0.000 A 
ATOM     18  C   UNL     1      -8.637  -2.245 122.603  0.00  0.00    +0.000 A 
ATOM     19  C   UNL     1      -9.282  -3.184 123.408  0.00  0.00    +0.000 A 
ATOM     20  C   UNL     1      -8.824  -3.435 124.698  0.00  0.00    +0.000 A 
ATOM     21  C   UNL     1      -7.744  -2.714 125.195  0.00  0.00    +0.000 A 
ENDBRANCH  15  16
ENDBRANCH  11  15
ENDBRANCH   8  11
ENDBRANCH   6   7
BRANCH   6  22
ATOM     22  C   UNL     1      -5.229   4.099 123.731  0.00  0.00    +0.000 C 
BRANCH  22  23
ATOM     23  C   UNL     1      -5.750   4.013 122.317  0.00  0.00    +0.000 A 
ATOM     24  C   UNL     1      -7.010   3.456 122.003  0.00  0.00    +0.000 A 
ATOM     25  C   UNL     1      -7.604   3.676 120.772  0.00  0.00    +0.000 A 
ATOM     26  C   UNL     1      -6.849   4.252 119.768  0.00  0.00    +0.000 A 
ATOM     27  C   UNL     1      -5.538   4.669 120.022  0.00  0.00    +0.000 A 
ATOM     28  C   UNL     1      -5.010   4.614 121.307  0.00  0.00    +0.000 A 
ENDBRANCH  22  23
ENDBRANCH   6  22
ENDBRANCH   3   6
ENDBRANCH   1   2
BRANCH   1  29
ATOM     29  C   UNL     1      -5.575   4.045 129.807  0.00  0.00    +0.000 C 
ATOM     30  O   UNL     1      -4.775   3.339 130.421  0.00  0.00    +0.000 OA
ATOM     31  N   UNL     1      -6.824   4.181 130.367  0.00  0.00    +0.000 N 
ATOM     32  H   UNL     1      -6.931   3.426 131.029  0.00  0.00    +0.000 HD
BRANCH  31  33
ATOM     33  C   UNL     1      -7.852   5.274 130.495  0.00  0.00    +0.000 C 
BRANCH  33  34
ATOM     34  C   UNL     1      -9.395   5.018 130.465  0.00  0.00    +0.000 C 
ATOM     35  O   UNL     1      -9.912   4.149 131.197  0.00  0.00    +0.000 OA
ATOM     36  N   UNL     1     -10.216   5.970 129.896  0.00  0.00    +0.000 N 
ATOM     37  C   UNL     1     -11.590   6.026 130.374  0.00  0.00    +0.000 C 
ATOM     38  C   UNL     1     -12.116   7.457 130.270  0.00  0.00    +0.000 C 
ATOM     39  C   UNL     1     -11.943   8.015 128.848  0.00  0.00    +0.000 C 
ATOM     40  C   UNL     1     -10.461   7.893 128.445  0.00  0.00    +0.000 C 
ATOM     41  C   UNL     1     -10.039   6.440 128.533  0.00  0.00    +0.000 C 
BRANCH  39  42
ATOM     42  N   UNL     1     -12.294   9.451 128.855  0.00  0.00    +0.000 NA
ATOM     43  H   UNL     1     -12.404   9.794 129.808  0.00  0.00    +0.000 HD
ATOM     44  H   UNL     1     -13.174   9.610 128.371  0.00  0.00    +0.000 HD
ENDBRANCH  39  42
BRANCH  39  45
ATOM     45  C   UNL     1     -12.804   7.299 127.744  0.00  0.00    +0.000 C 
ATOM     46  O   UNL     1     -13.886   6.807 127.963  0.00  0.00    +0.000 OA
BRANCH  45  47
ATOM     47  O   UNL     1     -12.292   7.273 126.487  0.00  0.00    +0.000 OA
ATOM     48  H   UNL     1     -12.813   7.596 125.737  0.00  0.00    +0.000 HD
ENDBRANCH  45  47
ENDBRANCH  39  45
ENDBRANCH  33  34
BRANCH  33  49
ATOM     49  C   UNL     1      -7.652   6.299 131.631  0.00  0.00    +0.000 C 
BRANCH  49  50
ATOM     50  C   UNL     1      -6.157   6.363 132.120  0.00  0.00    +0.000 C 
BRANCH  50  51
ATOM     51  C   UNL     1      -5.877   5.498 133.364  0.00  0.00    +0.000 C 
BRANCH  51  52
ATOM     52  C   UNL     1      -6.018   5.791 134.865  0.00  0.00    +0.000 C 
BRANCH  52  53
ATOM     53  N   UNL     1      -6.254   4.627 135.798  0.00  0.00    +0.000 NA
ATOM     54  H   UNL     1      -5.698   3.785 135.584  0.00  0.00    +0.000 HD
ATOM     55  H   UNL     1      -7.214   4.287 135.709  0.00  0.00    +0.000 HD
ENDBRANCH  52  53
ENDBRANCH  51  52
ENDBRANCH  50  51
ENDBRANCH  49  50
ENDBRANCH  33  49
ENDBRANCH  31  33
ENDBRANCH   1  29
BRANCH   1  56
ATOM     56  C   UNL     1      -3.722   5.439 128.498  0.00  0.00    +0.000 C 
BRANCH  56  58
ATOM     57  C   UNL     1      -2.065   6.404 130.333  0.00  0.00    +0.000 C 
ATOM     58  C   UNL     1      -3.400   6.420 129.645  0.00  0.00    +0.000 C 
ATOM     59  C   UNL     1      -3.830   7.837 129.358  0.00  0.00    +0.000 C 
ENDBRANCH  56  58
ENDBRANCH   1  56
TORSDOF 22
ENDMDL
