MODEL 1
REMARK VINA RESULT:      -8.4      0.000      0.000
REMARK  Name = Difluocortolone
REMARK  7 active torsions:
REMARK  status: ('A' for Active; 'I' for Inactive)
REMARK    1  A    between atoms: C_4  and  C_5
REMARK    2  A    between atoms: C_6  and  C_7
REMARK    3  A    between atoms: C_7  and  C_9
REMARK    4  A    between atoms: C_9  and  O_10
REMARK    5  A    between atoms: C_11  and  C_12
REMARK    6  A    between atoms: C_14  and  O_15
REMARK    7  A    between atoms: C_29  and  C_30
REMARK                            x       y       z     vdW  Elec       q    Type
REMARK                         _______ _______ _______ _____ _____    ______ ____
ROOT
ATOM      1  C   UNL     1      -6.536  -1.331 125.726  0.00  0.00    +0.000 C 
ATOM      2  C   UNL     1      -5.325  -0.553 125.940  0.00  0.00    +0.000 C 
ATOM      3  C   UNL     1      -6.456   0.407 126.071  0.00  0.00    +0.000 C 
ATOM      4  C   UNL     1      -5.560   1.949 125.841  0.00  0.00    +0.000 C 
ATOM      5  C   UNL     1      -8.186  -0.535 125.507  0.00  0.00    +0.000 C 
ATOM      6  C   UNL     1      -7.295  -0.013 124.689  0.00  0.00    +0.000 C 
ATOM      7  C   UNL     1      -6.953  -0.042 123.266  0.00  0.00    +0.000 C 
ATOM      8  C   UNL     1      -8.164   1.449 125.419  0.00  0.00    +0.000 C 
ATOM      9  C   UNL     1      -8.674   1.052 127.143  0.00  0.00    +0.000 C 
ATOM     10  C   UNL     1      -7.895  -0.262 128.141  0.00  0.00    +0.000 C 
ATOM     11  F   UNL     1      -6.479  -0.057 128.111  0.00  0.00    +0.000 F 
ATOM     12  C   UNL     1      -7.402  -1.641 127.354  0.00  0.00    +0.000 C 
ATOM     13  C   UNL     1      -6.333  -2.331 128.238  0.00  0.00    +0.000 C 
ATOM     14  C   UNL     1      -6.789  -2.349 129.670  0.00  0.00    +0.000 C 
ATOM     15  F   UNL     1      -8.049  -2.859 129.719  0.00  0.00    +0.000 F 
ATOM     16  C   UNL     1      -6.693  -0.937 130.169  0.00  0.00    +0.000 C 
ATOM     17  C   UNL     1      -5.998  -0.497 131.237  0.00  0.00    +0.000 C 
ATOM     18  C   UNL     1      -6.676  -1.242 132.240  0.00  0.00    +0.000 C 
ATOM     19  O   UNL     1      -6.062  -2.074 132.871  0.00  0.00    +0.000 OA
ATOM     20  C   UNL     1      -8.075  -0.596 132.301  0.00  0.00    +0.000 C 
ATOM     21  C   UNL     1      -8.594   0.013 131.133  0.00  0.00    +0.000 C 
ATOM     22  C   UNL     1      -7.705   0.096 129.729  0.00  0.00    +0.000 C 
ATOM     23  C   UNL     1      -6.595   1.409 129.612  0.00  0.00    +0.000 C 
ENDROOT
BRANCH   5  24
ATOM     24  C   UNL     1      -9.007  -2.096 125.037  0.00  0.00    +0.000 C 
ATOM     25  O   UNL     1      -9.911  -2.486 125.814  0.00  0.00    +0.000 OA
BRANCH  24  26
ATOM     26  C   UNL     1      -9.019  -2.870 123.613  0.00  0.00    +0.000 C 
BRANCH  26  27
ATOM     27  O   UNL     1     -10.232  -3.601 123.255  0.00  0.00    +0.000 OA
ATOM     28  H   UNL     1     -10.235  -3.850 122.313  0.00  0.00    +0.000 HD
ENDBRANCH  26  27
ENDBRANCH  24  26
ENDBRANCH   5  24
BRANCH   9  29
ATOM     29  O   UNL     1      -8.645   2.313 127.799  0.00  0.00    +0.000 OA
ATOM     30  H   UNL     1      -8.823   2.964 127.095  0.00  0.00    +0.000 HD
ENDBRANCH   9  29
TORSDOF 4
ENDMDL
MODEL 2
REMARK VINA RESULT:      -8.3      2.249      4.550
REMARK  Name = Difluocortolone
REMARK  7 active torsions:
REMARK  status: ('A' for Active; 'I' for Inactive)
REMARK    1  A    between atoms: C_4  and  C_5
REMARK    2  A    between atoms: C_6  and  C_7
REMARK    3  A    between atoms: C_7  and  C_9
REMARK    4  A    between atoms: C_9  and  O_10
REMARK    5  A    between atoms: C_11  and  C_12
REMARK    6  A    between atoms: C_14  and  O_15
REMARK    7  A    between atoms: C_29  and  C_30
REMARK                            x       y       z     vdW  Elec       q    Type
REMARK                         _______ _______ _______ _____ _____    ______ ____
ROOT
ATOM      1  C   UNL     1      -8.584   1.792 125.617  0.00  0.00    +0.000 C 
ATOM      2  C   UNL     1      -9.688   0.883 125.353  0.00  0.00    +0.000 C 
ATOM      3  C   UNL     1      -8.513   0.318 124.634  0.00  0.00    +0.000 C 
ATOM      4  C   UNL     1      -9.367  -0.769 123.484  0.00  0.00    +0.000 C 
ATOM      5  C   UNL     1      -6.980   1.676 124.711  0.00  0.00    +0.000 C 
ATOM      6  C   UNL     1      -7.997   1.713 123.874  0.00  0.00    +0.000 C 
ATOM      7  C   UNL     1      -8.625   2.651 122.943  0.00  0.00    +0.000 C 
ATOM      8  C   UNL     1      -6.930   0.336 123.246  0.00  0.00    +0.000 C 
ATOM      9  C   UNL     1      -6.094  -0.480 124.669  0.00  0.00    +0.000 C 
ATOM     10  C   UNL     1      -6.709  -0.379 126.384  0.00  0.00    +0.000 C 
ATOM     11  F   UNL     1      -8.090  -0.755 126.381  0.00  0.00    +0.000 F 
ATOM     12  C   UNL     1      -7.415   1.045 126.870  0.00  0.00    +0.000 C 
ATOM     13  C   UNL     1      -8.309   0.733 128.098  0.00  0.00    +0.000 C 
ATOM     14  C   UNL     1      -7.568  -0.158 129.055  0.00  0.00    +0.000 C 
ATOM     15  F   UNL     1      -6.350   0.390 129.306  0.00  0.00    +0.000 F 
ATOM     16  C   UNL     1      -7.495  -1.512 128.412  0.00  0.00    +0.000 C 
ATOM     17  C   UNL     1      -7.935  -2.680 128.923  0.00  0.00    +0.000 C 
ATOM     18  C   UNL     1      -7.099  -2.725 130.072  0.00  0.00    +0.000 C 
ATOM     19  O   UNL     1      -7.606  -2.683 131.171  0.00  0.00    +0.000 OA
ATOM     20  C   UNL     1      -5.690  -2.973 129.497  0.00  0.00    +0.000 C 
ATOM     21  C   UNL     1      -5.396  -2.507 128.192  0.00  0.00    +0.000 C 
ATOM     22  C   UNL     1      -6.550  -1.757 127.258  0.00  0.00    +0.000 C 
ATOM     23  C   UNL     1      -7.601  -2.798 126.373  0.00  0.00    +0.000 C 
ENDROOT
BRANCH   5  24
ATOM     24  C   UNL     1      -6.344   3.244 125.397  0.00  0.00    +0.000 C 
ATOM     25  O   UNL     1      -5.098   3.318 125.510  0.00  0.00    +0.000 OA
BRANCH  24  26
ATOM     26  C   UNL     1      -7.081   4.680 125.546  0.00  0.00    +0.000 C 
BRANCH  26  27
ATOM     27  O   UNL     1      -6.428   5.836 124.937  0.00  0.00    +0.000 OA
ATOM     28  H   UNL     1      -6.386   5.753 123.967  0.00  0.00    +0.000 HD
ENDBRANCH  26  27
ENDBRANCH  24  26
ENDBRANCH   5  24
BRANCH   9  29
ATOM     29  O   UNL     1      -5.931  -1.824 124.236  0.00  0.00    +0.000 OA
ATOM     30  H   UNL     1      -6.552  -2.339 124.782  0.00  0.00    +0.000 HD
ENDBRANCH   9  29
TORSDOF 4
ENDMDL
MODEL 3
REMARK VINA RESULT:      -8.1      2.688      5.227
REMARK  Name = Difluocortolone
REMARK  7 active torsions:
REMARK  status: ('A' for Active; 'I' for Inactive)
REMARK    1  A    between atoms: C_4  and  C_5
REMARK    2  A    between atoms: C_6  and  C_7
REMARK    3  A    between atoms: C_7  and  C_9
REMARK    4  A    between atoms: C_9  and  O_10
REMARK    5  A    between atoms: C_11  and  C_12
REMARK    6  A    between atoms: C_14  and  O_15
REMARK    7  A    between atoms: C_29  and  C_30
REMARK                            x       y       z     vdW  Elec       q    Type
REMARK                         _______ _______ _______ _____ _____    ______ ____
ROOT
ATOM      1  C   UNL     1      -6.144  -2.034 125.691  0.00  0.00    +0.000 C 
ATOM      2  C   UNL     1      -5.251  -1.831 124.561  0.00  0.00    +0.000 C 
ATOM      3  C   UNL     1      -6.631  -1.676 124.025  0.00  0.00    +0.000 C 
ATOM      4  C   UNL     1      -6.292  -1.904 122.273  0.00  0.00    +0.000 C 
ATOM      5  C   UNL     1      -7.968  -2.223 125.478  0.00  0.00    +0.000 C 
ATOM      6  C   UNL     1      -7.309  -3.050 124.690  0.00  0.00    +0.000 C 
ATOM      7  C   UNL     1      -6.999  -4.477 124.601  0.00  0.00    +0.000 C 
ATOM      8  C   UNL     1      -8.597  -2.295 123.596  0.00  0.00    +0.000 C 
ATOM      9  C   UNL     1      -8.921  -0.567 124.144  0.00  0.00    +0.000 C 
ATOM     10  C   UNL     1      -7.739   0.408 125.134  0.00  0.00    +0.000 C 
ATOM     11  F   UNL     1      -6.469   0.361 124.477  0.00  0.00    +0.000 F 
ATOM     12  C   UNL     1      -6.835  -0.397 126.273  0.00  0.00    +0.000 C 
ATOM     13  C   UNL     1      -5.585   0.466 126.579  0.00  0.00    +0.000 C 
ATOM     14  C   UNL     1      -5.987   1.904 126.751  0.00  0.00    +0.000 C 
ATOM     15  F   UNL     1      -7.010   1.966 127.644  0.00  0.00    +0.000 F 
ATOM     16  C   UNL     1      -6.351   2.414 125.387  0.00  0.00    +0.000 C 
ATOM     17  C   UNL     1      -5.820   3.476 124.747  0.00  0.00    +0.000 C 
ATOM     18  C   UNL     1      -6.201   4.482 125.677  0.00  0.00    +0.000 C 
ATOM     19  O   UNL     1      -5.340   5.097 126.264  0.00  0.00    +0.000 OA
ATOM     20  C   UNL     1      -7.733   4.568 125.524  0.00  0.00    +0.000 C 
ATOM     21  C   UNL     1      -8.442   3.413 125.113  0.00  0.00    +0.000 C 
ATOM     22  C   UNL     1      -7.652   1.997 124.740  0.00  0.00    +0.000 C 
ATOM     23  C   UNL     1      -7.034   1.875 123.136  0.00  0.00    +0.000 C 
ENDROOT
BRANCH   5  24
ATOM     24  C   UNL     1      -8.240  -2.695 127.221  0.00  0.00    +0.000 C 
ATOM     25  O   UNL     1      -9.198  -3.477 127.424  0.00  0.00    +0.000 OA
BRANCH  24  26
ATOM     26  C   UNL     1      -7.246  -2.566 128.494  0.00  0.00    +0.000 C 
BRANCH  26  27
ATOM     27  O   UNL     1      -7.233  -3.670 129.451  0.00  0.00    +0.000 OA
ATOM     28  H   UNL     1      -7.375  -3.354 130.362  0.00  0.00    +0.000 HD
ENDBRANCH  26  27
ENDBRANCH  24  26
ENDBRANCH   5  24
BRANCH   9  29
ATOM     29  O   UNL     1      -9.295   0.099 122.945  0.00  0.00    +0.000 OA
ATOM     30  H   UNL     1      -9.236   1.049 123.159  0.00  0.00    +0.000 HD
ENDBRANCH   9  29
TORSDOF 4
ENDMDL
MODEL 4
REMARK VINA RESULT:      -7.9      2.492      5.932
REMARK  Name = Difluocortolone
REMARK  7 active torsions:
REMARK  status: ('A' for Active; 'I' for Inactive)
REMARK    1  A    between atoms: C_4  and  C_5
REMARK    2  A    between atoms: C_6  and  C_7
REMARK    3  A    between atoms: C_7  and  C_9
REMARK    4  A    between atoms: C_9  and  O_10
REMARK    5  A    between atoms: C_11  and  C_12
REMARK    6  A    between atoms: C_14  and  O_15
REMARK    7  A    between atoms: C_29  and  C_30
REMARK                            x       y       z     vdW  Elec       q    Type
REMARK                         _______ _______ _______ _____ _____    ______ ____
ROOT
ATOM      1  C   UNL     1      -7.075   3.271 126.784  0.00  0.00    +0.000 C 
ATOM      2  C   UNL     1      -6.066   3.218 125.737  0.00  0.00    +0.000 C 
ATOM      3  C   UNL     1      -5.574   2.327 126.823  0.00  0.00    +0.000 C 
ATOM      4  C   UNL     1      -3.837   2.239 126.366  0.00  0.00    +0.000 C 
ATOM      5  C   UNL     1      -6.786   2.554 128.460  0.00  0.00    +0.000 C 
ATOM      6  C   UNL     1      -5.804   3.363 128.113  0.00  0.00    +0.000 C 
ATOM      7  C   UNL     1      -5.313   4.702 128.437  0.00  0.00    +0.000 C 
ATOM      8  C   UNL     1      -4.953   1.860 128.779  0.00  0.00    +0.000 C 
ATOM      9  C   UNL     1      -5.969   0.371 128.406  0.00  0.00    +0.000 C 
ATOM     10  C   UNL     1      -7.219   0.319 127.077  0.00  0.00    +0.000 C 
ATOM     11  F   UNL     1      -6.597   0.770 125.869  0.00  0.00    +0.000 F 
ATOM     12  C   UNL     1      -8.092   1.702 126.782  0.00  0.00    +0.000 C 
ATOM     13  C   UNL     1      -8.655   1.605 125.341  0.00  0.00    +0.000 C 
ATOM     14  C   UNL     1      -9.227   0.236 125.107  0.00  0.00    +0.000 C 
ATOM     15  F   UNL     1     -10.083  -0.058 126.122  0.00  0.00    +0.000 F 
ATOM     16  C   UNL     1      -8.061  -0.706 125.015  0.00  0.00    +0.000 C 
ATOM     17  C   UNL     1      -7.764  -1.535 123.993  0.00  0.00    +0.000 C 
ATOM     18  C   UNL     1      -8.937  -2.336 124.035  0.00  0.00    +0.000 C 
ATOM     19  O   UNL     1      -9.691  -2.326 123.088  0.00  0.00    +0.000 OA
ATOM     20  C   UNL     1      -8.791  -3.141 125.342  0.00  0.00    +0.000 C 
ATOM     21  C   UNL     1      -8.053  -2.576 126.410  0.00  0.00    +0.000 C 
ATOM     22  C   UNL     1      -7.300  -1.100 126.260  0.00  0.00    +0.000 C 
ATOM     23  C   UNL     1      -5.740  -1.117 125.529  0.00  0.00    +0.000 C 
ENDROOT
BRANCH   5  24
ATOM     24  C   UNL     1      -8.314   3.269 129.158  0.00  0.00    +0.000 C 
ATOM     25  O   UNL     1      -9.048   2.468 129.781  0.00  0.00    +0.000 OA
BRANCH  24  26
ATOM     26  C   UNL     1      -8.702   4.821 129.420  0.00  0.00    +0.000 C 
BRANCH  26  27
ATOM     27  O   UNL     1      -9.162   5.601 128.272  0.00  0.00    +0.000 OA
ATOM     28  H   UNL     1      -9.706   5.062 127.669  0.00  0.00    +0.000 HD
ENDBRANCH  26  27
ENDBRANCH  24  26
ENDBRANCH   5  24
BRANCH   9  29
ATOM     29  O   UNL     1      -5.007  -0.668 128.280  0.00  0.00    +0.000 OA
ATOM     30  H   UNL     1      -4.145  -0.217 128.335  0.00  0.00    +0.000 HD
ENDBRANCH   9  29
TORSDOF 4
ENDMDL
MODEL 5
REMARK VINA RESULT:      -7.9      1.407      1.639
REMARK  Name = Difluocortolone
REMARK  7 active torsions:
REMARK  status: ('A' for Active; 'I' for Inactive)
REMARK    1  A    between atoms: C_4  and  C_5
REMARK    2  A    between atoms: C_6  and  C_7
REMARK    3  A    between atoms: C_7  and  C_9
REMARK    4  A    between atoms: C_9  and  O_10
REMARK    5  A    between atoms: C_11  and  C_12
REMARK    6  A    between atoms: C_14  and  O_15
REMARK    7  A    between atoms: C_29  and  C_30
REMARK                            x       y       z     vdW  Elec       q    Type
REMARK                         _______ _______ _______ _____ _____    ______ ____
ROOT
ATOM      1  C   UNL     1      -6.238  -1.578 125.584  0.00  0.00    +0.000 C 
ATOM      2  C   UNL     1      -5.150  -0.621 125.466  0.00  0.00    +0.000 C 
ATOM      3  C   UNL     1      -6.271   0.113 126.115  0.00  0.00    +0.000 C 
ATOM      4  C   UNL     1      -5.737   1.801 125.803  0.00  0.00    +0.000 C 
ATOM      5  C   UNL     1      -7.945  -1.068 126.067  0.00  0.00    +0.000 C 
ATOM      6  C   UNL     1      -7.494  -0.334 125.069  0.00  0.00    +0.000 C 
ATOM      7  C   UNL     1      -7.698  -0.189 123.628  0.00  0.00    +0.000 C 
ATOM      8  C   UNL     1      -8.222   0.889 126.252  0.00  0.00    +0.000 C 
ATOM      9  C   UNL     1      -8.006   0.272 127.973  0.00  0.00    +0.000 C 
ATOM     10  C   UNL     1      -6.746  -0.961 128.444  0.00  0.00    +0.000 C 
ATOM     11  F   UNL     1      -5.481  -0.510 127.950  0.00  0.00    +0.000 F 
ATOM     12  C   UNL     1      -6.396  -2.165 127.352  0.00  0.00    +0.000 C 
ATOM     13  C   UNL     1      -4.995  -2.726 127.703  0.00  0.00    +0.000 C 
ATOM     14  C   UNL     1      -4.887  -2.939 129.186  0.00  0.00    +0.000 C 
ATOM     15  F   UNL     1      -5.961  -3.663 129.602  0.00  0.00    +0.000 F 
ATOM     16  C   UNL     1      -4.805  -1.576 129.811  0.00  0.00    +0.000 C 
ATOM     17  C   UNL     1      -3.832  -1.108 130.618  0.00  0.00    +0.000 C 
ATOM     18  C   UNL     1      -3.988  -2.039 131.682  0.00  0.00    +0.000 C 
ATOM     19  O   UNL     1      -3.080  -2.798 131.937  0.00  0.00    +0.000 OA
ATOM     20  C   UNL     1      -5.340  -1.655 132.316  0.00  0.00    +0.000 C 
ATOM     21  C   UNL     1      -6.328  -1.054 131.500  0.00  0.00    +0.000 C 
ATOM     22  C   UNL     1      -6.037  -0.704 129.899  0.00  0.00    +0.000 C 
ATOM     23  C   UNL     1      -5.234   0.788 129.584  0.00  0.00    +0.000 C 
ENDROOT
BRANCH   5  24
ATOM     24  C   UNL     1      -8.663  -2.707 125.703  0.00  0.00    +0.000 C 
ATOM     25  O   UNL     1      -9.377  -3.196 126.609  0.00  0.00    +0.000 OA
BRANCH  24  26
ATOM     26  C   UNL     1      -8.832  -3.468 124.282  0.00  0.00    +0.000 C 
BRANCH  26  27
ATOM     27  O   UNL     1     -10.061  -3.224 123.531  0.00  0.00    +0.000 OA
ATOM     28  H   UNL     1      -9.874  -2.835 122.657  0.00  0.00    +0.000 HD
ENDBRANCH  26  27
ENDBRANCH  24  26
ENDBRANCH   5  24
BRANCH   9  29
ATOM     29  O   UNL     1      -7.907   1.462 128.745  0.00  0.00    +0.000 OA
ATOM     30  H   UNL     1      -7.742   1.155 129.655  0.00  0.00    +0.000 HD
ENDBRANCH   9  29
TORSDOF 4
ENDMDL
MODEL 6
REMARK VINA RESULT:      -7.9      1.841      2.163
REMARK  Name = Difluocortolone
REMARK  7 active torsions:
REMARK  status: ('A' for Active; 'I' for Inactive)
REMARK    1  A    between atoms: C_4  and  C_5
REMARK    2  A    between atoms: C_6  and  C_7
REMARK    3  A    between atoms: C_7  and  C_9
REMARK    4  A    between atoms: C_9  and  O_10
REMARK    5  A    between atoms: C_11  and  C_12
REMARK    6  A    between atoms: C_14  and  O_15
REMARK    7  A    between atoms: C_29  and  C_30
REMARK                            x       y       z     vdW  Elec       q    Type
REMARK                         _______ _______ _______ _____ _____    ______ ____
ROOT
ATOM      1  C   UNL     1      -6.780   0.153 125.144  0.00  0.00    +0.000 C 
ATOM      2  C   UNL     1      -5.364   0.338 125.421  0.00  0.00    +0.000 C 
ATOM      3  C   UNL     1      -6.083   1.281 126.321  0.00  0.00    +0.000 C 
ATOM      4  C   UNL     1      -4.729   2.393 126.724  0.00  0.00    +0.000 C 
ATOM      5  C   UNL     1      -8.066   1.299 125.805  0.00  0.00    +0.000 C 
ATOM      6  C   UNL     1      -7.107   1.964 125.192  0.00  0.00    +0.000 C 
ATOM      7  C   UNL     1      -6.895   2.687 123.938  0.00  0.00    +0.000 C 
ATOM      8  C   UNL     1      -7.369   2.884 126.777  0.00  0.00    +0.000 C 
ATOM      9  C   UNL     1      -7.865   1.696 128.093  0.00  0.00    +0.000 C 
ATOM     10  C   UNL     1      -7.520  -0.094 128.009  0.00  0.00    +0.000 C 
ATOM     11  F   UNL     1      -6.125  -0.262 127.735  0.00  0.00    +0.000 F 
ATOM     12  C   UNL     1      -7.587  -0.825 126.517  0.00  0.00    +0.000 C 
ATOM     13  C   UNL     1      -6.763  -2.135 126.598  0.00  0.00    +0.000 C 
ATOM     14  C   UNL     1      -7.099  -2.872 127.864  0.00  0.00    +0.000 C 
ATOM     15  F   UNL     1      -8.450  -2.990 127.953  0.00  0.00    +0.000 F 
ATOM     16  C   UNL     1      -6.489  -2.090 128.991  0.00  0.00    +0.000 C 
ATOM     17  C   UNL     1      -5.613  -2.540 129.912  0.00  0.00    +0.000 C 
ATOM     18  C   UNL     1      -6.436  -3.538 130.503  0.00  0.00    +0.000 C 
ATOM     19  O   UNL     1      -6.105  -4.699 130.419  0.00  0.00    +0.000 OA
ATOM     20  C   UNL     1      -7.520  -2.732 131.248  0.00  0.00    +0.000 C 
ATOM     21  C   UNL     1      -7.876  -1.453 130.756  0.00  0.00    +0.000 C 
ATOM     22  C   UNL     1      -7.111  -0.787 129.437  0.00  0.00    +0.000 C 
ATOM     23  C   UNL     1      -5.627   0.030 129.755  0.00  0.00    +0.000 C 
ENDROOT
BRANCH   5  24
ATOM     24  C   UNL     1      -9.405   0.561 124.807  0.00  0.00    +0.000 C 
ATOM     25  O   UNL     1     -10.485   0.368 125.412  0.00  0.00    +0.000 OA
BRANCH  24  26
ATOM     26  C   UNL     1      -9.551   0.447 123.197  0.00  0.00    +0.000 C 
BRANCH  26  27
ATOM     27  O   UNL     1     -10.903   0.386 122.647  0.00  0.00    +0.000 OA
ATOM     28  H   UNL     1     -11.577   0.457 123.348  0.00  0.00    +0.000 HD
ENDBRANCH  26  27
ENDBRANCH  24  26
ENDBRANCH   5  24
BRANCH   9  29
ATOM     29  O   UNL     1      -7.359   2.285 129.284  0.00  0.00    +0.000 OA
ATOM     30  H   UNL     1      -6.823   3.040 128.979  0.00  0.00    +0.000 HD
ENDBRANCH   9  29
TORSDOF 4
ENDMDL
MODEL 7
REMARK VINA RESULT:      -7.9      2.911      6.085
REMARK  Name = Difluocortolone
REMARK  7 active torsions:
REMARK  status: ('A' for Active; 'I' for Inactive)
REMARK    1  A    between atoms: C_4  and  C_5
REMARK    2  A    between atoms: C_6  and  C_7
REMARK    3  A    between atoms: C_7  and  C_9
REMARK    4  A    between atoms: C_9  and  O_10
REMARK    5  A    between atoms: C_11  and  C_12
REMARK    6  A    between atoms: C_14  and  O_15
REMARK    7  A    between atoms: C_29  and  C_30
REMARK                            x       y       z     vdW  Elec       q    Type
REMARK                         _______ _______ _______ _____ _____    ______ ____
ROOT
ATOM      1  C   UNL     1      -5.558   1.740 127.935  0.00  0.00    +0.000 C 
ATOM      2  C   UNL     1      -6.574   1.256 128.855  0.00  0.00    +0.000 C 
ATOM      3  C   UNL     1      -7.287   2.126 127.881  0.00  0.00    +0.000 C 
ATOM      4  C   UNL     1      -8.790   2.444 128.816  0.00  0.00    +0.000 C 
ATOM      5  C   UNL     1      -5.899   3.081 126.714  0.00  0.00    +0.000 C 
ATOM      6  C   UNL     1      -6.259   3.442 127.930  0.00  0.00    +0.000 C 
ATOM      7  C   UNL     1      -5.798   4.327 129.000  0.00  0.00    +0.000 C 
ATOM      8  C   UNL     1      -7.692   3.923 126.861  0.00  0.00    +0.000 C 
ATOM      9  C   UNL     1      -7.837   2.728 125.468  0.00  0.00    +0.000 C 
ATOM     10  C   UNL     1      -7.129   1.047 125.512  0.00  0.00    +0.000 C 
ATOM     11  F   UNL     1      -7.574   0.412 126.715  0.00  0.00    +0.000 F 
ATOM     12  C   UNL     1      -5.681   0.838 126.302  0.00  0.00    +0.000 C 
ATOM     13  C   UNL     1      -5.560  -0.661 126.674  0.00  0.00    +0.000 C 
ATOM     14  C   UNL     1      -5.960  -1.512 125.502  0.00  0.00    +0.000 C 
ATOM     15  F   UNL     1      -5.272  -1.095 124.406  0.00  0.00    +0.000 F 
ATOM     16  C   UNL     1      -7.448  -1.380 125.363  0.00  0.00    +0.000 C 
ATOM     17  C   UNL     1      -8.358  -2.375 125.369  0.00  0.00    +0.000 C 
ATOM     18  C   UNL     1      -7.898  -3.075 124.220  0.00  0.00    +0.000 C 
ATOM     19  O   UNL     1      -7.473  -4.201 124.348  0.00  0.00    +0.000 OA
ATOM     20  C   UNL     1      -8.248  -2.136 123.048  0.00  0.00    +0.000 C 
ATOM     21  C   UNL     1      -8.300  -0.741 123.286  0.00  0.00    +0.000 C 
ATOM     22  C   UNL     1      -8.050  -0.110 124.805  0.00  0.00    +0.000 C 
ATOM     23  C   UNL     1      -9.423  -0.080 125.847  0.00  0.00    +0.000 C 
ENDROOT
BRANCH   5  24
ATOM     24  C   UNL     1      -4.147   3.245 126.228  0.00  0.00    +0.000 C 
ATOM     25  O   UNL     1      -3.942   3.837 125.143  0.00  0.00    +0.000 OA
BRANCH  24  26
ATOM     26  C   UNL     1      -2.807   3.080 127.123  0.00  0.00    +0.000 C 
BRANCH  26  27
ATOM     27  O   UNL     1      -1.888   4.215 127.172  0.00  0.00    +0.000 OA
ATOM     28  H   UNL     1      -2.367   5.063 127.180  0.00  0.00    +0.000 HD
ENDBRANCH  26  27
ENDBRANCH  24  26
ENDBRANCH   5  24
BRANCH   9  29
ATOM     29  O   UNL     1      -9.229   2.717 125.181  0.00  0.00    +0.000 OA
ATOM     30  H   UNL     1      -9.655   3.030 126.000  0.00  0.00    +0.000 HD
ENDBRANCH   9  29
TORSDOF 4
ENDMDL
MODEL 8
REMARK VINA RESULT:      -7.8      2.770      4.426
REMARK  Name = Difluocortolone
REMARK  7 active torsions:
REMARK  status: ('A' for Active; 'I' for Inactive)
REMARK    1  A    between atoms: C_4  and  C_5
REMARK    2  A    between atoms: C_6  and  C_7
REMARK    3  A    between atoms: C_7  and  C_9
REMARK    4  A    between atoms: C_9  and  O_10
REMARK    5  A    between atoms: C_11  and  C_12
REMARK    6  A    between atoms: C_14  and  O_15
REMARK    7  A    between atoms: C_29  and  C_30
REMARK                            x       y       z     vdW  Elec       q    Type
REMARK                         _______ _______ _______ _____ _____    ______ ____
ROOT
ATOM      1  C   UNL     1      -5.967  -1.886 128.745  0.00  0.00    +0.000 C 
ATOM      2  C   UNL     1      -4.923  -1.014 129.262  0.00  0.00    +0.000 C 
ATOM      3  C   UNL     1      -6.126  -0.751 130.098  0.00  0.00    +0.000 C 
ATOM      4  C   UNL     1      -5.658   0.840 130.793  0.00  0.00    +0.000 C 
ATOM      5  C   UNL     1      -7.729  -1.724 129.270  0.00  0.00    +0.000 C 
ATOM      6  C   UNL     1      -7.243  -0.565 128.870  0.00  0.00    +0.000 C 
ATOM      7  C   UNL     1      -7.345   0.336 127.721  0.00  0.00    +0.000 C 
ATOM      8  C   UNL     1      -8.120  -0.178 130.453  0.00  0.00    +0.000 C 
ATOM      9  C   UNL     1      -8.001  -1.627 131.583  0.00  0.00    +0.000 C 
ATOM     10  C   UNL     1      -6.719  -2.915 131.428  0.00  0.00    +0.000 C 
ATOM     11  F   UNL     1      -5.445  -2.265 131.372  0.00  0.00    +0.000 F 
ATOM     12  C   UNL     1      -6.227  -3.336 129.897  0.00  0.00    +0.000 C 
ATOM     13  C   UNL     1      -4.828  -3.994 130.016  0.00  0.00    +0.000 C 
ATOM     14  C   UNL     1      -4.821  -4.975 131.155  0.00  0.00    +0.000 C 
ATOM     15  F   UNL     1      -5.884  -5.812 131.015  0.00  0.00    +0.000 F 
ATOM     16  C   UNL     1      -4.857  -4.166 132.418  0.00  0.00    +0.000 C 
ATOM     17  C   UNL     1      -3.972  -4.206 133.435  0.00  0.00    +0.000 C 
ATOM     18  C   UNL     1      -4.160  -5.565 133.811  0.00  0.00    +0.000 C 
ATOM     19  O   UNL     1      -3.236  -6.339 133.700  0.00  0.00    +0.000 OA
ATOM     20  C   UNL     1      -5.574  -5.588 134.427  0.00  0.00    +0.000 C 
ATOM     21  C   UNL     1      -6.527  -4.644 133.976  0.00  0.00    +0.000 C 
ATOM     22  C   UNL     1      -6.135  -3.484 132.850  0.00  0.00    +0.000 C 
ATOM     23  C   UNL     1      -5.388  -2.056 133.462  0.00  0.00    +0.000 C 
ENDROOT
BRANCH   5  24
ATOM     24  C   UNL     1      -8.333  -2.907 128.017  0.00  0.00    +0.000 C 
ATOM     25  O   UNL     1      -9.035  -3.846 128.458  0.00  0.00    +0.000 OA
BRANCH  24  26
ATOM     26  C   UNL     1      -8.419  -2.752 126.406  0.00  0.00    +0.000 C 
BRANCH  26  27
ATOM     27  O   UNL     1      -9.736  -2.506 125.825  0.00  0.00    +0.000 OA
ATOM     28  H   UNL     1      -9.667  -2.089 124.947  0.00  0.00    +0.000 HD
ENDBRANCH  26  27
ENDBRANCH  24  26
ENDBRANCH   5  24
BRANCH   9  29
ATOM     29  O   UNL     1      -8.022  -1.043 132.879  0.00  0.00    +0.000 OA
ATOM     30  H   UNL     1      -8.603  -1.624 133.404  0.00  0.00    +0.000 HD
ENDBRANCH   9  29
TORSDOF 4
ENDMDL
MODEL 9
REMARK VINA RESULT:      -7.8      2.020      6.067
REMARK  Name = Difluocortolone
REMARK  7 active torsions:
REMARK  status: ('A' for Active; 'I' for Inactive)
REMARK    1  A    between atoms: C_4  and  C_5
REMARK    2  A    between atoms: C_6  and  C_7
REMARK    3  A    between atoms: C_7  and  C_9
REMARK    4  A    between atoms: C_9  and  O_10
REMARK    5  A    between atoms: C_11  and  C_12
REMARK    6  A    between atoms: C_14  and  O_15
REMARK    7  A    between atoms: C_29  and  C_30
REMARK                            x       y       z     vdW  Elec       q    Type
REMARK                         _______ _______ _______ _____ _____    ______ ____
ROOT
ATOM      1  C   UNL     1      -7.275  -2.334 129.981  0.00  0.00    +0.000 C 
ATOM      2  C   UNL     1      -8.262  -1.290 130.205  0.00  0.00    +0.000 C 
ATOM      3  C   UNL     1      -7.005  -0.589 129.828  0.00  0.00    +0.000 C 
ATOM      4  C   UNL     1      -7.388   1.056 130.447  0.00  0.00    +0.000 C 
ATOM      5  C   UNL     1      -5.481  -1.958 129.767  0.00  0.00    +0.000 C 
ATOM      6  C   UNL     1      -5.960  -1.389 130.856  0.00  0.00    +0.000 C 
ATOM      7  C   UNL     1      -5.903  -1.566 132.307  0.00  0.00    +0.000 C 
ATOM      8  C   UNL     1      -4.979  -0.055 130.030  0.00  0.00    +0.000 C 
ATOM      9  C   UNL     1      -5.067  -0.278 128.204  0.00  0.00    +0.000 C 
ATOM     10  C   UNL     1      -6.390  -1.221 127.374  0.00  0.00    +0.000 C 
ATOM     11  F   UNL     1      -7.647  -0.722 127.841  0.00  0.00    +0.000 F 
ATOM     12  C   UNL     1      -6.984  -2.566 128.149  0.00  0.00    +0.000 C 
ATOM     13  C   UNL     1      -8.390  -2.863 127.566  0.00  0.00    +0.000 C 
ATOM     14  C   UNL     1      -8.354  -2.756 126.067  0.00  0.00    +0.000 C 
ATOM     15  F   UNL     1      -7.324  -3.511 125.601  0.00  0.00    +0.000 F 
ATOM     16  C   UNL     1      -8.221  -1.296 125.744  0.00  0.00    +0.000 C 
ATOM     17  C   UNL     1      -9.044  -0.555 124.974  0.00  0.00    +0.000 C 
ATOM     18  C   UNL     1      -8.870  -1.264 123.754  0.00  0.00    +0.000 C 
ATOM     19  O   UNL     1      -9.819  -1.835 123.264  0.00  0.00    +0.000 OA
ATOM     20  C   UNL     1      -7.422  -0.934 123.336  0.00  0.00    +0.000 C 
ATOM     21  C   UNL     1      -6.473  -0.641 124.344  0.00  0.00    +0.000 C 
ATOM     22  C   UNL     1      -6.902  -0.588 125.951  0.00  0.00    +0.000 C 
ATOM     23  C   UNL     1      -7.573   0.899 126.507  0.00  0.00    +0.000 C 
ENDROOT
BRANCH   5  24
ATOM     24  C   UNL     1      -4.985  -3.713 129.833  0.00  0.00    +0.000 C 
ATOM     25  O   UNL     1      -3.857  -3.973 129.354  0.00  0.00    +0.000 OA
BRANCH  24  26
ATOM     26  C   UNL     1      -5.590  -4.925 130.723  0.00  0.00    +0.000 C 
BRANCH  26  27
ATOM     27  O   UNL     1      -5.164  -5.012 132.118  0.00  0.00    +0.000 OA
ATOM     28  H   UNL     1      -4.930  -5.925 132.364  0.00  0.00    +0.000 HD
ENDBRANCH  26  27
ENDBRANCH  24  26
ENDBRANCH   5  24
BRANCH   9  29
ATOM     29  O   UNL     1      -4.953   1.046 127.699  0.00  0.00    +0.000 OA
ATOM     30  H   UNL     1      -5.775   1.192 127.196  0.00  0.00    +0.000 HD
ENDBRANCH   9  29
TORSDOF 4
ENDMDL
