MODEL 1
REMARK VINA RESULT:      -9.0      0.000      0.000
REMARK  Name = Difluprednate
REMARK  13 active torsions:
REMARK  status: ('A' for Active; 'I' for Inactive)
REMARK    1  A    between atoms: C_5  and  O_6
REMARK    2  A    between atoms: C_5  and  C_12
REMARK    3  A    between atoms: O_6  and  C_7
REMARK    4  A    between atoms: C_7  and  C_9
REMARK    5  A    between atoms: C_9  and  C_10
REMARK    6  A    between atoms: C_10  and  C_11
REMARK    7  A    between atoms: C_12  and  C_14
REMARK    8  A    between atoms: C_14  and  O_15
REMARK    9  A    between atoms: O_15  and  C_16
REMARK   10  A    between atoms: C_16  and  C_17
REMARK   11  A    between atoms: C_19  and  C_20
REMARK   12  A    between atoms: C_22  and  O_23
REMARK   13  A    between atoms: C_37  and  C_38
REMARK                            x       y       z     vdW  Elec       q    Type
REMARK                         _______ _______ _______ _____ _____    ______ ____
ROOT
ATOM      1  C   UNL     1      -5.704  -0.903 125.320  0.00  0.00    +0.000 C 
ATOM      2  C   UNL     1      -5.813  -2.246 124.841  0.00  0.00    +0.000 C 
ATOM      3  C   UNL     1      -7.097  -1.537 125.120  0.00  0.00    +0.000 C 
ATOM      4  C   UNL     1      -7.031   0.502 125.407  0.00  0.00    +0.000 C 
ATOM      5  C   UNL     1      -7.162  -0.255 124.297  0.00  0.00    +0.000 C 
ATOM      6  C   UNL     1      -6.780   0.023 122.881  0.00  0.00    +0.000 C 
ATOM      7  C   UNL     1      -8.897  -0.530 124.994  0.00  0.00    +0.000 C 
ATOM      8  C   UNL     1      -8.814  -0.648 126.769  0.00  0.00    +0.000 C 
ATOM      9  C   UNL     1      -7.426  -1.304 127.644  0.00  0.00    +0.000 C 
ATOM     10  F   UNL     1      -6.991  -2.490 127.014  0.00  0.00    +0.000 F 
ATOM     11  C   UNL     1      -6.017  -0.768 127.171  0.00  0.00    +0.000 C 
ATOM     12  C   UNL     1      -4.910  -1.682 127.748  0.00  0.00    +0.000 C 
ATOM     13  C   UNL     1      -5.142  -1.963 129.192  0.00  0.00    +0.000 C 
ATOM     14  F   UNL     1      -4.064  -2.669 129.618  0.00  0.00    +0.000 F 
ATOM     15  C   UNL     1      -6.367  -2.839 129.273  0.00  0.00    +0.000 C 
ATOM     16  C   UNL     1      -6.445  -3.944 130.044  0.00  0.00    +0.000 C 
ATOM     17  C   UNL     1      -6.268  -3.227 131.302  0.00  0.00    +0.000 C 
ATOM     18  O   UNL     1      -5.252  -3.183 131.958  0.00  0.00    +0.000 OA
ATOM     19  C   UNL     1      -7.564  -2.526 131.569  0.00  0.00    +0.000 C 
ATOM     20  C   UNL     1      -8.244  -1.991 130.468  0.00  0.00    +0.000 C 
ATOM     21  C   UNL     1      -7.729  -2.233 128.937  0.00  0.00    +0.000 C 
ATOM     22  C   UNL     1      -8.430  -3.511 128.129  0.00  0.00    +0.000 C 
ENDROOT
BRANCH   4  23
ATOM     23  C   UNL     1      -8.021   1.914 124.744  0.00  0.00    +0.000 C 
ATOM     24  O   UNL     1      -8.773   2.583 125.476  0.00  0.00    +0.000 OA
BRANCH  23  25
ATOM     25  C   UNL     1      -8.112   2.388 123.199  0.00  0.00    +0.000 C 
BRANCH  25  26
ATOM     26  O   UNL     1      -7.290   3.656 123.013  0.00  0.00    +0.000 OA
BRANCH  26  27
ATOM     27  C   UNL     1      -6.105   3.875 122.375  0.00  0.00    +0.000 C 
ATOM     28  C   UNL     1      -5.804   3.109 121.123  0.00  0.00    +0.000 C 
ATOM     29  O   UNL     1      -5.271   4.676 122.801  0.00  0.00    +0.000 OA
ENDBRANCH  26  27
ENDBRANCH  25  26
ENDBRANCH  23  25
ENDBRANCH   4  23
BRANCH   8  30
ATOM     30  O   UNL     1      -9.108   0.680 127.245  0.00  0.00    +0.000 OA
ATOM     31  H   UNL     1      -9.064   1.323 126.522  0.00  0.00    +0.000 HD
ENDBRANCH   8  30
BRANCH   4  32
ATOM     32  O   UNL     1      -5.624   1.380 125.104  0.00  0.00    +0.000 OA
BRANCH  32  33
ATOM     33  C   UNL     1      -5.087   2.402 125.852  0.00  0.00    +0.000 C 
ATOM     34  O   UNL     1      -5.534   3.540 125.890  0.00  0.00    +0.000 OA
BRANCH  33  35
ATOM     35  C   UNL     1      -3.933   2.179 126.780  0.00  0.00    +0.000 C 
BRANCH  35  36
ATOM     36  C   UNL     1      -2.931   3.347 126.474  0.00  0.00    +0.000 C 
ATOM     37  C   UNL     1      -1.479   2.974 126.613  0.00  0.00    +0.000 C 
ENDBRANCH  35  36
ENDBRANCH  33  35
ENDBRANCH  32  33
ENDBRANCH   4  32
TORSDOF 9
ENDMDL
MODEL 2
REMARK VINA RESULT:      -8.7      3.911      7.090
REMARK  Name = Difluprednate
REMARK  13 active torsions:
REMARK  status: ('A' for Active; 'I' for Inactive)
REMARK    1  A    between atoms: C_5  and  O_6
REMARK    2  A    between atoms: C_5  and  C_12
REMARK    3  A    between atoms: O_6  and  C_7
REMARK    4  A    between atoms: C_7  and  C_9
REMARK    5  A    between atoms: C_9  and  C_10
REMARK    6  A    between atoms: C_10  and  C_11
REMARK    7  A    between atoms: C_12  and  C_14
REMARK    8  A    between atoms: C_14  and  O_15
REMARK    9  A    between atoms: O_15  and  C_16
REMARK   10  A    between atoms: C_16  and  C_17
REMARK   11  A    between atoms: C_19  and  C_20
REMARK   12  A    between atoms: C_22  and  O_23
REMARK   13  A    between atoms: C_37  and  C_38
REMARK                            x       y       z     vdW  Elec       q    Type
REMARK                         _______ _______ _______ _____ _____    ______ ____
ROOT
ATOM      1  C   UNL     1      -6.811   1.577 128.906  0.00  0.00    +0.000 C 
ATOM      2  C   UNL     1      -5.548   1.089 128.446  0.00  0.00    +0.000 C 
ATOM      3  C   UNL     1      -5.885   2.498 128.083  0.00  0.00    +0.000 C 
ATOM      4  C   UNL     1      -7.473   3.389 129.047  0.00  0.00    +0.000 C 
ATOM      5  C   UNL     1      -6.160   3.300 129.350  0.00  0.00    +0.000 C 
ATOM      6  C   UNL     1      -5.463   3.319 130.669  0.00  0.00    +0.000 C 
ATOM      7  C   UNL     1      -6.008   4.555 127.944  0.00  0.00    +0.000 C 
ATOM      8  C   UNL     1      -7.182   4.160 126.665  0.00  0.00    +0.000 C 
ATOM      9  C   UNL     1      -7.707   2.515 126.290  0.00  0.00    +0.000 C 
ATOM     10  F   UNL     1      -6.586   1.658 126.262  0.00  0.00    +0.000 F 
ATOM     11  C   UNL     1      -8.105   1.634 127.540  0.00  0.00    +0.000 C 
ATOM     12  C   UNL     1      -8.178   0.150 127.108  0.00  0.00    +0.000 C 
ATOM     13  C   UNL     1      -8.930  -0.003 125.832  0.00  0.00    +0.000 C 
ATOM     14  F   UNL     1      -9.030  -1.338 125.610  0.00  0.00    +0.000 F 
ATOM     15  C   UNL     1      -8.080   0.613 124.750  0.00  0.00    +0.000 C 
ATOM     16  C   UNL     1      -7.852   0.027 123.556  0.00  0.00    +0.000 C 
ATOM     17  C   UNL     1      -9.251   0.035 123.147  0.00  0.00    +0.000 C 
ATOM     18  O   UNL     1     -10.000  -0.917 123.154  0.00  0.00    +0.000 OA
ATOM     19  C   UNL     1      -9.572   1.451 122.782  0.00  0.00    +0.000 C 
ATOM     20  C   UNL     1      -8.993   2.462 123.558  0.00  0.00    +0.000 C 
ATOM     21  C   UNL     1      -7.902   2.130 124.728  0.00  0.00    +0.000 C 
ATOM     22  C   UNL     1      -6.300   2.233 124.276  0.00  0.00    +0.000 C 
ENDROOT
BRANCH   4  23
ATOM     23  C   UNL     1      -7.705   5.028 129.869  0.00  0.00    +0.000 C 
ATOM     24  O   UNL     1      -8.554   5.844 129.466  0.00  0.00    +0.000 OA
BRANCH  23  25
ATOM     25  C   UNL     1      -6.829   5.629 131.091  0.00  0.00    +0.000 C 
BRANCH  25  26
ATOM     26  O   UNL     1      -6.185   6.936 130.652  0.00  0.00    +0.000 OA
BRANCH  26  27
ATOM     27  C   UNL     1      -4.880   7.269 130.435  0.00  0.00    +0.000 C 
ATOM     28  C   UNL     1      -3.932   7.277 131.596  0.00  0.00    +0.000 C 
ATOM     29  O   UNL     1      -4.459   7.571 129.317  0.00  0.00    +0.000 OA
ENDBRANCH  26  27
ENDBRANCH  25  26
ENDBRANCH  23  25
ENDBRANCH   4  23
BRANCH   8  30
ATOM     30  O   UNL     1      -8.328   4.988 126.942  0.00  0.00    +0.000 OA
ATOM     31  H   UNL     1      -8.401   5.170 127.890  0.00  0.00    +0.000 HD
ENDBRANCH   8  30
BRANCH   4  32
ATOM     32  O   UNL     1      -8.217   2.651 130.367  0.00  0.00    +0.000 OA
BRANCH  32  33
ATOM     33  C   UNL     1      -9.543   2.700 130.727  0.00  0.00    +0.000 C 
ATOM     34  O   UNL     1     -10.442   3.104 130.002  0.00  0.00    +0.000 OA
BRANCH  33  35
ATOM     35  C   UNL     1     -10.027   2.162 132.039  0.00  0.00    +0.000 C 
BRANCH  35  36
ATOM     36  C   UNL     1      -8.902   2.529 133.071  0.00  0.00    +0.000 C 
ATOM     37  C   UNL     1      -9.144   3.809 133.824  0.00  0.00    +0.000 C 
ENDBRANCH  35  36
ENDBRANCH  33  35
ENDBRANCH  32  33
ENDBRANCH   4  32
TORSDOF 9
ENDMDL
MODEL 3
REMARK VINA RESULT:      -8.7      3.210      5.748
REMARK  Name = Difluprednate
REMARK  13 active torsions:
REMARK  status: ('A' for Active; 'I' for Inactive)
REMARK    1  A    between atoms: C_5  and  O_6
REMARK    2  A    between atoms: C_5  and  C_12
REMARK    3  A    between atoms: O_6  and  C_7
REMARK    4  A    between atoms: C_7  and  C_9
REMARK    5  A    between atoms: C_9  and  C_10
REMARK    6  A    between atoms: C_10  and  C_11
REMARK    7  A    between atoms: C_12  and  C_14
REMARK    8  A    between atoms: C_14  and  O_15
REMARK    9  A    between atoms: O_15  and  C_16
REMARK   10  A    between atoms: C_16  and  C_17
REMARK   11  A    between atoms: C_19  and  C_20
REMARK   12  A    between atoms: C_22  and  O_23
REMARK   13  A    between atoms: C_37  and  C_38
REMARK                            x       y       z     vdW  Elec       q    Type
REMARK                         _______ _______ _______ _____ _____    ______ ____
ROOT
ATOM      1  C   UNL     1      -5.366   1.588 127.566  0.00  0.00    +0.000 C 
ATOM      2  C   UNL     1      -4.524   2.034 126.501  0.00  0.00    +0.000 C 
ATOM      3  C   UNL     1      -5.965   2.414 126.408  0.00  0.00    +0.000 C 
ATOM      4  C   UNL     1      -7.136   2.170 128.085  0.00  0.00    +0.000 C 
ATOM      5  C   UNL     1      -6.369   3.194 127.654  0.00  0.00    +0.000 C 
ATOM      6  C   UNL     1      -5.658   4.263 128.415  0.00  0.00    +0.000 C 
ATOM      7  C   UNL     1      -7.780   3.400 126.414  0.00  0.00    +0.000 C 
ATOM      8  C   UNL     1      -8.382   1.797 125.926  0.00  0.00    +0.000 C 
ATOM      9  C   UNL     1      -7.366   0.355 125.833  0.00  0.00    +0.000 C 
ATOM     10  F   UNL     1      -6.148   0.678 125.198  0.00  0.00    +0.000 F 
ATOM     11  C   UNL     1      -6.428   0.111 127.080  0.00  0.00    +0.000 C 
ATOM     12  C   UNL     1      -5.356  -0.941 126.707  0.00  0.00    +0.000 C 
ATOM     13  C   UNL     1      -5.966  -2.106 126.009  0.00  0.00    +0.000 C 
ATOM     14  F   UNL     1      -4.968  -3.008 125.833  0.00  0.00    +0.000 F 
ATOM     15  C   UNL     1      -6.426  -1.612 124.659  0.00  0.00    +0.000 C 
ATOM     16  C   UNL     1      -6.201  -2.275 123.506  0.00  0.00    +0.000 C 
ATOM     17  C   UNL     1      -6.974  -3.451 123.889  0.00  0.00    +0.000 C 
ATOM     18  O   UNL     1      -6.521  -4.511 124.259  0.00  0.00    +0.000 OA
ATOM     19  C   UNL     1      -8.415  -3.056 123.787  0.00  0.00    +0.000 C 
ATOM     20  C   UNL     1      -8.753  -1.754 124.175  0.00  0.00    +0.000 C 
ATOM     21  C   UNL     1      -7.617  -0.657 124.592  0.00  0.00    +0.000 C 
ATOM     22  C   UNL     1      -7.110   0.361 123.373  0.00  0.00    +0.000 C 
ENDROOT
BRANCH   4  23
ATOM     23  C   UNL     1      -8.356   3.253 128.955  0.00  0.00    +0.000 C 
ATOM     24  O   UNL     1      -9.516   2.869 129.189  0.00  0.00    +0.000 OA
BRANCH  23  25
ATOM     25  C   UNL     1      -8.126   4.787 129.419  0.00  0.00    +0.000 C 
BRANCH  25  26
ATOM     26  O   UNL     1      -9.100   5.688 128.674  0.00  0.00    +0.000 OA
BRANCH  26  27
ATOM     27  C   UNL     1     -10.229   6.332 129.088  0.00  0.00    +0.000 C 
ATOM     28  C   UNL     1     -10.205   7.825 129.216  0.00  0.00    +0.000 C 
ATOM     29  O   UNL     1     -11.263   5.724 129.369  0.00  0.00    +0.000 OA
ENDBRANCH  26  27
ENDBRANCH  25  26
ENDBRANCH  23  25
ENDBRANCH   4  23
BRANCH   8  30
ATOM     30  O   UNL     1      -9.511   1.545 126.784  0.00  0.00    +0.000 OA
ATOM     31  H   UNL     1     -10.300   1.333 126.264  0.00  0.00    +0.000 HD
ENDBRANCH   8  30
BRANCH   4  32
ATOM     32  O   UNL     1      -6.453   1.785 129.578  0.00  0.00    +0.000 OA
BRANCH  32  33
ATOM     33  C   UNL     1      -6.908   0.880 130.507  0.00  0.00    +0.000 C 
ATOM     34  O   UNL     1      -7.686   1.150 131.413  0.00  0.00    +0.000 OA
BRANCH  33  35
ATOM     35  C   UNL     1      -6.553  -0.573 130.435  0.00  0.00    +0.000 C 
BRANCH  35  36
ATOM     36  C   UNL     1      -7.921  -1.319 130.245  0.00  0.00    +0.000 C 
ATOM     37  C   UNL     1      -7.866  -2.488 129.299  0.00  0.00    +0.000 C 
ENDBRANCH  35  36
ENDBRANCH  33  35
ENDBRANCH  32  33
ENDBRANCH   4  32
TORSDOF 9
ENDMDL
MODEL 4
REMARK VINA RESULT:      -8.6      3.731      8.390
REMARK  Name = Difluprednate
REMARK  13 active torsions:
REMARK  status: ('A' for Active; 'I' for Inactive)
REMARK    1  A    between atoms: C_5  and  O_6
REMARK    2  A    between atoms: C_5  and  C_12
REMARK    3  A    between atoms: O_6  and  C_7
REMARK    4  A    between atoms: C_7  and  C_9
REMARK    5  A    between atoms: C_9  and  C_10
REMARK    6  A    between atoms: C_10  and  C_11
REMARK    7  A    between atoms: C_12  and  C_14
REMARK    8  A    between atoms: C_14  and  O_15
REMARK    9  A    between atoms: O_15  and  C_16
REMARK   10  A    between atoms: C_16  and  C_17
REMARK   11  A    between atoms: C_19  and  C_20
REMARK   12  A    between atoms: C_22  and  O_23
REMARK   13  A    between atoms: C_37  and  C_38
REMARK                            x       y       z     vdW  Elec       q    Type
REMARK                         _______ _______ _______ _____ _____    ______ ____
ROOT
ATOM      1  C   UNL     1      -5.522  -3.337 130.995  0.00  0.00    +0.000 C 
ATOM      2  C   UNL     1      -4.586  -4.015 130.153  0.00  0.00    +0.000 C 
ATOM      3  C   UNL     1      -4.463  -2.528 130.216  0.00  0.00    +0.000 C 
ATOM      4  C   UNL     1      -5.489  -1.538 131.704  0.00  0.00    +0.000 C 
ATOM      5  C   UNL     1      -4.259  -2.093 131.663  0.00  0.00    +0.000 C 
ATOM      6  C   UNL     1      -3.417  -2.671 132.751  0.00  0.00    +0.000 C 
ATOM      7  C   UNL     1      -3.885  -0.580 130.593  0.00  0.00    +0.000 C 
ATOM      8  C   UNL     1      -5.294  -0.216 129.565  0.00  0.00    +0.000 C 
ATOM      9  C   UNL     1      -6.403  -1.447 128.951  0.00  0.00    +0.000 C 
ATOM     10  F   UNL     1      -5.664  -2.546 128.465  0.00  0.00    +0.000 F 
ATOM     11  C   UNL     1      -6.898  -2.501 130.019  0.00  0.00    +0.000 C 
ATOM     12  C   UNL     1      -7.541  -3.701 129.283  0.00  0.00    +0.000 C 
ATOM     13  C   UNL     1      -8.474  -3.242 128.218  0.00  0.00    +0.000 C 
ATOM     14  F   UNL     1      -9.061  -4.360 127.721  0.00  0.00    +0.000 F 
ATOM     15  C   UNL     1      -7.627  -2.611 127.141  0.00  0.00    +0.000 C 
ATOM     16  C   UNL     1      -7.790  -2.857 125.824  0.00  0.00    +0.000 C 
ATOM     17  C   UNL     1      -9.144  -2.318 125.765  0.00  0.00    +0.000 C 
ATOM     18  O   UNL     1     -10.166  -2.966 125.725  0.00  0.00    +0.000 OA
ATOM     19  C   UNL     1      -9.004  -0.828 125.824  0.00  0.00    +0.000 C 
ATOM     20  C   UNL     1      -8.005  -0.309 126.658  0.00  0.00    +0.000 C 
ATOM     21  C   UNL     1      -6.941  -1.277 127.431  0.00  0.00    +0.000 C 
ATOM     22  C   UNL     1      -5.485  -1.519 126.656  0.00  0.00    +0.000 C 
ENDROOT
BRANCH   4  23
ATOM     23  C   UNL     1      -5.020  -0.223 132.915  0.00  0.00    +0.000 C 
ATOM     24  O   UNL     1      -5.660   0.841 133.002  0.00  0.00    +0.000 OA
BRANCH  23  25
ATOM     25  C   UNL     1      -3.738  -0.233 133.903  0.00  0.00    +0.000 C 
BRANCH  25  26
ATOM     26  O   UNL     1      -4.217  -0.318 135.346  0.00  0.00    +0.000 OA
BRANCH  26  27
ATOM     27  C   UNL     1      -5.110  -1.153 135.950  0.00  0.00    +0.000 C 
ATOM     28  C   UNL     1      -4.674  -2.539 136.315  0.00  0.00    +0.000 C 
ATOM     29  O   UNL     1      -6.266  -0.805 136.197  0.00  0.00    +0.000 OA
ENDBRANCH  26  27
ENDBRANCH  25  26
ENDBRANCH  23  25
ENDBRANCH   4  23
BRANCH   8  30
ATOM     30  O   UNL     1      -6.031   0.790 130.286  0.00  0.00    +0.000 OA
ATOM     31  H   UNL     1      -6.090   0.567 131.226  0.00  0.00    +0.000 HD
ENDBRANCH   8  30
BRANCH   4  32
ATOM     32  O   UNL     1      -6.245  -2.381 132.952  0.00  0.00    +0.000 OA
BRANCH  32  33
ATOM     33  C   UNL     1      -7.556  -2.296 133.357  0.00  0.00    +0.000 C 
ATOM     34  O   UNL     1      -8.303  -1.364 133.092  0.00  0.00    +0.000 OA
BRANCH  33  35
ATOM     35  C   UNL     1      -8.228  -3.411 134.098  0.00  0.00    +0.000 C 
BRANCH  35  36
ATOM     36  C   UNL     1      -7.102  -4.475 134.345  0.00  0.00    +0.000 C 
ATOM     37  C   UNL     1      -7.400  -5.451 135.451  0.00  0.00    +0.000 C 
ENDBRANCH  35  36
ENDBRANCH  33  35
ENDBRANCH  32  33
ENDBRANCH   4  32
TORSDOF 9
ENDMDL
MODEL 5
REMARK VINA RESULT:      -8.6      6.400      8.164
REMARK  Name = Difluprednate
REMARK  13 active torsions:
REMARK  status: ('A' for Active; 'I' for Inactive)
REMARK    1  A    between atoms: C_5  and  O_6
REMARK    2  A    between atoms: C_5  and  C_12
REMARK    3  A    between atoms: O_6  and  C_7
REMARK    4  A    between atoms: C_7  and  C_9
REMARK    5  A    between atoms: C_9  and  C_10
REMARK    6  A    between atoms: C_10  and  C_11
REMARK    7  A    between atoms: C_12  and  C_14
REMARK    8  A    between atoms: C_14  and  O_15
REMARK    9  A    between atoms: O_15  and  C_16
REMARK   10  A    between atoms: C_16  and  C_17
REMARK   11  A    between atoms: C_19  and  C_20
REMARK   12  A    between atoms: C_22  and  O_23
REMARK   13  A    between atoms: C_37  and  C_38
REMARK                            x       y       z     vdW  Elec       q    Type
REMARK                         _______ _______ _______ _____ _____    ______ ____
ROOT
ATOM      1  C   UNL     1      -8.234   3.244 130.881  0.00  0.00    +0.000 C 
ATOM      2  C   UNL     1      -8.474   2.709 132.185  0.00  0.00    +0.000 C 
ATOM      3  C   UNL     1      -8.721   4.172 132.014  0.00  0.00    +0.000 C 
ATOM      4  C   UNL     1      -8.797   4.920 130.095  0.00  0.00    +0.000 C 
ATOM      5  C   UNL     1      -9.742   4.392 130.903  0.00  0.00    +0.000 C 
ATOM      6  C   UNL     1     -11.006   3.670 130.576  0.00  0.00    +0.000 C 
ATOM      7  C   UNL     1      -9.553   6.050 131.790  0.00  0.00    +0.000 C 
ATOM      8  C   UNL     1      -7.842   6.544 131.771  0.00  0.00    +0.000 C 
ATOM      9  C   UNL     1      -6.492   5.404 131.792  0.00  0.00    +0.000 C 
ATOM     10  F   UNL     1      -6.741   4.397 132.749  0.00  0.00    +0.000 F 
ATOM     11  C   UNL     1      -6.614   4.198 130.778  0.00  0.00    +0.000 C 
ATOM     12  C   UNL     1      -5.580   3.111 131.160  0.00  0.00    +0.000 C 
ATOM     13  C   UNL     1      -4.244   3.711 131.431  0.00  0.00    +0.000 C 
ATOM     14  F   UNL     1      -3.399   2.671 131.641  0.00  0.00    +0.000 F 
ATOM     15  C   UNL     1      -4.375   4.504 132.707  0.00  0.00    +0.000 C 
ATOM     16  C   UNL     1      -3.477   4.453 133.713  0.00  0.00    +0.000 C 
ATOM     17  C   UNL     1      -2.373   4.978 132.918  0.00  0.00    +0.000 C 
ATOM     18  O   UNL     1      -1.463   4.330 132.448  0.00  0.00    +0.000 OA
ATOM     19  C   UNL     1      -2.632   6.444 132.759  0.00  0.00    +0.000 C 
ATOM     20  C   UNL     1      -3.962   6.847 132.588  0.00  0.00    +0.000 C 
ATOM     21  C   UNL     1      -5.202   5.789 132.694  0.00  0.00    +0.000 C 
ATOM     22  C   UNL     1      -5.939   5.681 134.185  0.00  0.00    +0.000 C 
ENDROOT
BRANCH   4  23
ATOM     23  C   UNL     1      -9.966   6.047 129.214  0.00  0.00    +0.000 C 
ATOM     24  O   UNL     1      -9.568   6.856 128.356  0.00  0.00    +0.000 OA
BRANCH  23  25
ATOM     25  C   UNL     1     -11.555   6.194 129.486  0.00  0.00    +0.000 C 
BRANCH  25  26
ATOM     26  O   UNL     1     -11.931   7.669 129.479  0.00  0.00    +0.000 OA
BRANCH  26  27
ATOM     27  C   UNL     1     -12.893   8.351 128.793  0.00  0.00    +0.000 C 
ATOM     28  C   UNL     1     -13.731   7.613 127.794  0.00  0.00    +0.000 C 
ATOM     29  O   UNL     1     -13.087   9.556 128.962  0.00  0.00    +0.000 OA
ENDBRANCH  26  27
ENDBRANCH  25  26
ENDBRANCH  23  25
ENDBRANCH   4  23
BRANCH   8  30
ATOM     30  O   UNL     1      -7.721   7.424 130.637  0.00  0.00    +0.000 OA
ATOM     31  H   UNL     1      -6.806   7.456 130.321  0.00  0.00    +0.000 HD
ENDBRANCH   8  30
BRANCH   4  32
ATOM     32  O   UNL     1      -8.821   3.892 128.759  0.00  0.00    +0.000 OA
BRANCH  32  33
ATOM     33  C   UNL     1      -7.889   3.789 127.755  0.00  0.00    +0.000 C 
ATOM     34  O   UNL     1      -7.465   4.735 127.104  0.00  0.00    +0.000 OA
BRANCH  33  35
ATOM     35  C   UNL     1      -7.224   2.488 127.424  0.00  0.00    +0.000 C 
BRANCH  35  36
ATOM     36  C   UNL     1      -8.280   1.385 127.788  0.00  0.00    +0.000 C 
ATOM     37  C   UNL     1      -7.777   0.334 128.740  0.00  0.00    +0.000 C 
ENDBRANCH  35  36
ENDBRANCH  33  35
ENDBRANCH  32  33
ENDBRANCH   4  32
TORSDOF 9
ENDMDL
MODEL 6
REMARK VINA RESULT:      -8.6      4.565      5.576
REMARK  Name = Difluprednate
REMARK  13 active torsions:
REMARK  status: ('A' for Active; 'I' for Inactive)
REMARK    1  A    between atoms: C_5  and  O_6
REMARK    2  A    between atoms: C_5  and  C_12
REMARK    3  A    between atoms: O_6  and  C_7
REMARK    4  A    between atoms: C_7  and  C_9
REMARK    5  A    between atoms: C_9  and  C_10
REMARK    6  A    between atoms: C_10  and  C_11
REMARK    7  A    between atoms: C_12  and  C_14
REMARK    8  A    between atoms: C_14  and  O_15
REMARK    9  A    between atoms: O_15  and  C_16
REMARK   10  A    between atoms: C_16  and  C_17
REMARK   11  A    between atoms: C_19  and  C_20
REMARK   12  A    between atoms: C_22  and  O_23
REMARK   13  A    between atoms: C_37  and  C_38
REMARK                            x       y       z     vdW  Elec       q    Type
REMARK                         _______ _______ _______ _____ _____    ______ ____
ROOT
ATOM      1  C   UNL     1      -4.622   2.885 128.972  0.00  0.00    +0.000 C 
ATOM      2  C   UNL     1      -4.810   1.520 129.353  0.00  0.00    +0.000 C 
ATOM      3  C   UNL     1      -5.871   2.117 128.489  0.00  0.00    +0.000 C 
ATOM      4  C   UNL     1      -5.468   3.918 127.572  0.00  0.00    +0.000 C 
ATOM      5  C   UNL     1      -5.245   2.639 127.199  0.00  0.00    +0.000 C 
ATOM      6  C   UNL     1      -4.201   2.053 126.309  0.00  0.00    +0.000 C 
ATOM      7  C   UNL     1      -7.116   2.656 126.931  0.00  0.00    +0.000 C 
ATOM      8  C   UNL     1      -7.891   3.631 128.204  0.00  0.00    +0.000 C 
ATOM      9  C   UNL     1      -7.262   3.775 129.848  0.00  0.00    +0.000 C 
ATOM     10  F   UNL     1      -6.878   2.501 130.318  0.00  0.00    +0.000 F 
ATOM     11  C   UNL     1      -5.712   4.066 129.953  0.00  0.00    +0.000 C 
ATOM     12  C   UNL     1      -5.246   3.798 131.404  0.00  0.00    +0.000 C 
ATOM     13  C   UNL     1      -6.177   4.412 132.391  0.00  0.00    +0.000 C 
ATOM     14  F   UNL     1      -5.617   4.217 133.611  0.00  0.00    +0.000 F 
ATOM     15  C   UNL     1      -7.468   3.636 132.312  0.00  0.00    +0.000 C 
ATOM     16  C   UNL     1      -8.150   3.210 133.395  0.00  0.00    +0.000 C 
ATOM     17  C   UNL     1      -8.410   4.549 133.910  0.00  0.00    +0.000 C 
ATOM     18  O   UNL     1      -7.833   5.082 134.832  0.00  0.00    +0.000 OA
ATOM     19  C   UNL     1      -9.478   5.132 133.037  0.00  0.00    +0.000 C 
ATOM     20  C   UNL     1      -9.426   4.831 131.670  0.00  0.00    +0.000 C 
ATOM     21  C   UNL     1      -8.336   3.777 131.062  0.00  0.00    +0.000 C 
ATOM     22  C   UNL     1      -8.863   2.205 130.891  0.00  0.00    +0.000 C 
ENDROOT
BRANCH   4  23
ATOM     23  C   UNL     1      -5.677   4.542 125.845  0.00  0.00    +0.000 C 
ATOM     24  O   UNL     1      -6.308   5.587 125.603  0.00  0.00    +0.000 OA
BRANCH  23  25
ATOM     25  C   UNL     1      -5.180   3.813 124.488  0.00  0.00    +0.000 C 
BRANCH  25  26
ATOM     26  O   UNL     1      -5.517   4.695 123.293  0.00  0.00    +0.000 OA
BRANCH  26  27
ATOM     27  C   UNL     1      -5.104   4.647 121.994  0.00  0.00    +0.000 C 
ATOM     28  C   UNL     1      -5.470   3.457 121.161  0.00  0.00    +0.000 C 
ATOM     29  O   UNL     1      -4.431   5.547 121.488  0.00  0.00    +0.000 OA
ENDBRANCH  26  27
ENDBRANCH  25  26
ENDBRANCH  23  25
ENDBRANCH   4  23
BRANCH   8  30
ATOM     30  O   UNL     1      -8.051   4.941 127.625  0.00  0.00    +0.000 OA
ATOM     31  H   UNL     1      -7.392   5.556 127.979  0.00  0.00    +0.000 HD
ENDBRANCH   8  30
BRANCH   4  32
ATOM     32  O   UNL     1      -3.918   4.581 127.596  0.00  0.00    +0.000 OA
BRANCH  32  33
ATOM     33  C   UNL     1      -3.540   5.832 128.023  0.00  0.00    +0.000 C 
ATOM     34  O   UNL     1      -4.201   6.848 127.858  0.00  0.00    +0.000 OA
BRANCH  33  35
ATOM     35  C   UNL     1      -2.297   6.049 128.830  0.00  0.00    +0.000 C 
BRANCH  35  36
ATOM     36  C   UNL     1      -2.803   6.377 130.279  0.00  0.00    +0.000 C 
ATOM     37  C   UNL     1      -1.919   5.854 131.380  0.00  0.00    +0.000 C 
ENDBRANCH  35  36
ENDBRANCH  33  35
ENDBRANCH  32  33
ENDBRANCH   4  32
TORSDOF 9
ENDMDL
MODEL 7
REMARK VINA RESULT:      -8.6      2.765      5.866
REMARK  Name = Difluprednate
REMARK  13 active torsions:
REMARK  status: ('A' for Active; 'I' for Inactive)
REMARK    1  A    between atoms: C_5  and  O_6
REMARK    2  A    between atoms: C_5  and  C_12
REMARK    3  A    between atoms: O_6  and  C_7
REMARK    4  A    between atoms: C_7  and  C_9
REMARK    5  A    between atoms: C_9  and  C_10
REMARK    6  A    between atoms: C_10  and  C_11
REMARK    7  A    between atoms: C_12  and  C_14
REMARK    8  A    between atoms: C_14  and  O_15
REMARK    9  A    between atoms: O_15  and  C_16
REMARK   10  A    between atoms: C_16  and  C_17
REMARK   11  A    between atoms: C_19  and  C_20
REMARK   12  A    between atoms: C_22  and  O_23
REMARK   13  A    between atoms: C_37  and  C_38
REMARK                            x       y       z     vdW  Elec       q    Type
REMARK                         _______ _______ _______ _____ _____    ______ ____
ROOT
ATOM      1  C   UNL     1      -6.244   0.214 128.953  0.00  0.00    +0.000 C 
ATOM      2  C   UNL     1      -5.247  -0.808 129.007  0.00  0.00    +0.000 C 
ATOM      3  C   UNL     1      -5.000   0.307 128.046  0.00  0.00    +0.000 C 
ATOM      4  C   UNL     1      -6.164   1.999 128.210  0.00  0.00    +0.000 C 
ATOM      5  C   UNL     1      -5.001   1.636 128.793  0.00  0.00    +0.000 C 
ATOM      6  C   UNL     1      -4.411   2.022 130.109  0.00  0.00    +0.000 C 
ATOM      7  C   UNL     1      -4.315   1.994 127.069  0.00  0.00    +0.000 C 
ATOM      8  C   UNL     1      -5.491   1.467 125.839  0.00  0.00    +0.000 C 
ATOM      9  C   UNL     1      -6.591   0.102 126.056  0.00  0.00    +0.000 C 
ATOM     10  F   UNL     1      -5.886  -0.986 126.613  0.00  0.00    +0.000 F 
ATOM     11  C   UNL     1      -7.353   0.064 127.439  0.00  0.00    +0.000 C 
ATOM     12  C   UNL     1      -7.972  -1.341 127.636  0.00  0.00    +0.000 C 
ATOM     13  C   UNL     1      -8.667  -1.801 126.402  0.00  0.00    +0.000 C 
ATOM     14  F   UNL     1      -9.263  -2.978 126.720  0.00  0.00    +0.000 F 
ATOM     15  C   UNL     1      -7.596  -2.054 125.370  0.00  0.00    +0.000 C 
ATOM     16  C   UNL     1      -7.557  -3.155 124.590  0.00  0.00    +0.000 C 
ATOM     17  C   UNL     1      -8.826  -2.879 123.927  0.00  0.00    +0.000 C 
ATOM     18  O   UNL     1      -9.883  -3.424 124.157  0.00  0.00    +0.000 OA
ATOM     19  C   UNL     1      -8.560  -1.763 122.964  0.00  0.00    +0.000 C 
ATOM     20  C   UNL     1      -7.673  -0.761 123.372  0.00  0.00    +0.000 C 
ATOM     21  C   UNL     1      -6.847  -0.862 124.778  0.00  0.00    +0.000 C 
ATOM     22  C   UNL     1      -5.311  -1.500 124.673  0.00  0.00    +0.000 C 
ENDROOT
BRANCH   4  23
ATOM     23  C   UNL     1      -5.785   3.807 128.234  0.00  0.00    +0.000 C 
ATOM     24  O   UNL     1      -6.291   4.589 127.409  0.00  0.00    +0.000 OA
BRANCH  23  25
ATOM     25  C   UNL     1      -4.736   4.562 129.210  0.00  0.00    +0.000 C 
BRANCH  25  26
ATOM     26  O   UNL     1      -4.737   6.050 128.893  0.00  0.00    +0.000 OA
BRANCH  26  27
ATOM     27  C   UNL     1      -3.715   6.940 128.744  0.00  0.00    +0.000 C 
ATOM     28  C   UNL     1      -2.345   6.423 128.424  0.00  0.00    +0.000 C 
ATOM     29  O   UNL     1      -3.880   8.154 128.874  0.00  0.00    +0.000 OA
ENDBRANCH  26  27
ENDBRANCH  25  26
ENDBRANCH  23  25
ENDBRANCH   4  23
BRANCH   8  30
ATOM     30  O   UNL     1      -6.242   2.652 125.510  0.00  0.00    +0.000 OA
ATOM     31  H   UNL     1      -5.851   3.435 125.926  0.00  0.00    +0.000 HD
ENDBRANCH   8  30
BRANCH   4  32
ATOM     32  O   UNL     1      -7.194   2.224 129.525  0.00  0.00    +0.000 OA
BRANCH  32  33
ATOM     33  C   UNL     1      -8.518   2.594 129.509  0.00  0.00    +0.000 C 
ATOM     34  O   UNL     1      -9.074   3.131 128.561  0.00  0.00    +0.000 OA
BRANCH  33  35
ATOM     35  C   UNL     1      -9.441   2.279 130.646  0.00  0.00    +0.000 C 
BRANCH  35  36
ATOM     36  C   UNL     1      -8.580   1.435 131.650  0.00  0.00    +0.000 C 
ATOM     37  C   UNL     1      -8.884  -0.039 131.644  0.00  0.00    +0.000 C 
ENDBRANCH  35  36
ENDBRANCH  33  35
ENDBRANCH  32  33
ENDBRANCH   4  32
TORSDOF 9
ENDMDL
MODEL 8
REMARK VINA RESULT:      -8.5      2.967      5.738
REMARK  Name = Difluprednate
REMARK  13 active torsions:
REMARK  status: ('A' for Active; 'I' for Inactive)
REMARK    1  A    between atoms: C_5  and  O_6
REMARK    2  A    between atoms: C_5  and  C_12
REMARK    3  A    between atoms: O_6  and  C_7
REMARK    4  A    between atoms: C_7  and  C_9
REMARK    5  A    between atoms: C_9  and  C_10
REMARK    6  A    between atoms: C_10  and  C_11
REMARK    7  A    between atoms: C_12  and  C_14
REMARK    8  A    between atoms: C_14  and  O_15
REMARK    9  A    between atoms: O_15  and  C_16
REMARK   10  A    between atoms: C_16  and  C_17
REMARK   11  A    between atoms: C_19  and  C_20
REMARK   12  A    between atoms: C_22  and  O_23
REMARK   13  A    between atoms: C_37  and  C_38
REMARK                            x       y       z     vdW  Elec       q    Type
REMARK                         _______ _______ _______ _____ _____    ______ ____
ROOT
ATOM      1  C   UNL     1      -7.933   2.596 128.268  0.00  0.00    +0.000 C 
ATOM      2  C   UNL     1      -8.946   2.087 129.138  0.00  0.00    +0.000 C 
ATOM      3  C   UNL     1      -7.571   1.539 129.332  0.00  0.00    +0.000 C 
ATOM      4  C   UNL     1      -6.005   2.513 128.413  0.00  0.00    +0.000 C 
ATOM      5  C   UNL     1      -6.601   2.681 129.613  0.00  0.00    +0.000 C 
ATOM      6  C   UNL     1      -6.738   3.896 130.469  0.00  0.00    +0.000 C 
ATOM      7  C   UNL     1      -5.675   1.083 130.015  0.00  0.00    +0.000 C 
ATOM      8  C   UNL     1      -5.676   0.020 128.586  0.00  0.00    +0.000 C 
ATOM      9  C   UNL     1      -6.982  -0.024 127.397  0.00  0.00    +0.000 C 
ATOM     10  F   UNL     1      -8.225  -0.034 128.064  0.00  0.00    +0.000 F 
ATOM     11  C   UNL     1      -7.483   1.388 126.896  0.00  0.00    +0.000 C 
ATOM     12  C   UNL     1      -8.838   1.213 126.169  0.00  0.00    +0.000 C 
ATOM     13  C   UNL     1      -8.795   0.069 125.217  0.00  0.00    +0.000 C 
ATOM     14  F   UNL     1      -9.982   0.079 124.560  0.00  0.00    +0.000 F 
ATOM     15  C   UNL     1      -8.704  -1.185 126.050  0.00  0.00    +0.000 C 
ATOM     16  C   UNL     1      -9.452  -2.286 125.825  0.00  0.00    +0.000 C 
ATOM     17  C   UNL     1      -8.904  -2.536 124.497  0.00  0.00    +0.000 C 
ATOM     18  O   UNL     1      -9.452  -2.292 123.444  0.00  0.00    +0.000 OA
ATOM     19  C   UNL     1      -7.529  -3.089 124.709  0.00  0.00    +0.000 C 
ATOM     20  C   UNL     1      -6.777  -2.554 125.762  0.00  0.00    +0.000 C 
ATOM     21  C   UNL     1      -7.410  -1.472 126.809  0.00  0.00    +0.000 C 
ATOM     22  C   UNL     1      -8.030  -2.106 128.221  0.00  0.00    +0.000 C 
ENDROOT
BRANCH   4  23
ATOM     23  C   UNL     1      -4.343   3.078 128.990  0.00  0.00    +0.000 C 
ATOM     24  O   UNL     1      -3.299   2.722 128.415  0.00  0.00    +0.000 OA
BRANCH  23  25
ATOM     25  C   UNL     1      -4.030   3.983 130.296  0.00  0.00    +0.000 C 
BRANCH  25  26
ATOM     26  O   UNL     1      -3.153   5.159 129.892  0.00  0.00    +0.000 OA
BRANCH  26  27
ATOM     27  C   UNL     1      -3.419   6.267 129.142  0.00  0.00    +0.000 C 
ATOM     28  C   UNL     1      -2.371   6.772 128.198  0.00  0.00    +0.000 C 
ATOM     29  O   UNL     1      -4.491   6.869 129.222  0.00  0.00    +0.000 OA
ENDBRANCH  26  27
ENDBRANCH  25  26
ENDBRANCH  23  25
ENDBRANCH   4  23
BRANCH   8  30
ATOM     30  O   UNL     1      -4.422   0.282 127.926  0.00  0.00    +0.000 OA
ATOM     31  H   UNL     1      -4.562   0.488 126.990  0.00  0.00    +0.000 HD
ENDBRANCH   8  30
BRANCH   4  32
ATOM     32  O   UNL     1      -6.226   4.009 127.667  0.00  0.00    +0.000 OA
BRANCH  32  33
ATOM     33  C   UNL     1      -5.625   4.480 126.524  0.00  0.00    +0.000 C 
ATOM     34  O   UNL     1      -5.392   5.661 126.302  0.00  0.00    +0.000 OA
BRANCH  33  35
ATOM     35  C   UNL     1      -5.106   3.557 125.465  0.00  0.00    +0.000 C 
BRANCH  35  36
ATOM     36  C   UNL     1      -5.740   4.072 124.126  0.00  0.00    +0.000 C 
ATOM     37  C   UNL     1      -6.907   3.259 123.637  0.00  0.00    +0.000 C 
ENDBRANCH  35  36
ENDBRANCH  33  35
ENDBRANCH  32  33
ENDBRANCH   4  32
TORSDOF 9
ENDMDL
MODEL 9
REMARK VINA RESULT:      -8.5      3.611      5.638
REMARK  Name = Difluprednate
REMARK  13 active torsions:
REMARK  status: ('A' for Active; 'I' for Inactive)
REMARK    1  A    between atoms: C_5  and  O_6
REMARK    2  A    between atoms: C_5  and  C_12
REMARK    3  A    between atoms: O_6  and  C_7
REMARK    4  A    between atoms: C_7  and  C_9
REMARK    5  A    between atoms: C_9  and  C_10
REMARK    6  A    between atoms: C_10  and  C_11
REMARK    7  A    between atoms: C_12  and  C_14
REMARK    8  A    between atoms: C_14  and  O_15
REMARK    9  A    between atoms: O_15  and  C_16
REMARK   10  A    between atoms: C_16  and  C_17
REMARK   11  A    between atoms: C_19  and  C_20
REMARK   12  A    between atoms: C_22  and  O_23
REMARK   13  A    between atoms: C_37  and  C_38
REMARK                            x       y       z     vdW  Elec       q    Type
REMARK                         _______ _______ _______ _____ _____    ______ ____
ROOT
ATOM      1  C   UNL     1      -6.642   1.279 126.744  0.00  0.00    +0.000 C 
ATOM      2  C   UNL     1      -5.368   1.810 127.115  0.00  0.00    +0.000 C 
ATOM      3  C   UNL     1      -5.731   0.489 127.707  0.00  0.00    +0.000 C 
ATOM      4  C   UNL     1      -7.340  -0.518 126.905  0.00  0.00    +0.000 C 
ATOM      5  C   UNL     1      -6.027  -0.507 126.590  0.00  0.00    +0.000 C 
ATOM      6  C   UNL     1      -5.337  -0.758 125.291  0.00  0.00    +0.000 C 
ATOM      7  C   UNL     1      -5.893  -1.515 128.184  0.00  0.00    +0.000 C 
ATOM      8  C   UNL     1      -7.053  -0.890 129.382  0.00  0.00    +0.000 C 
ATOM      9  C   UNL     1      -7.544   0.804 129.480  0.00  0.00    +0.000 C 
ATOM     10  F   UNL     1      -6.406   1.631 129.364  0.00  0.00    +0.000 F 
ATOM     11  C   UNL     1      -7.930   1.474 128.103  0.00  0.00    +0.000 C 
ATOM     12  C   UNL     1      -7.972   3.011 128.283  0.00  0.00    +0.000 C 
ATOM     13  C   UNL     1      -8.715   3.388 129.517  0.00  0.00    +0.000 C 
ATOM     14  F   UNL     1      -8.788   4.743 129.515  0.00  0.00    +0.000 F 
ATOM     15  C   UNL     1      -7.871   2.942 130.685  0.00  0.00    +0.000 C 
ATOM     16  C   UNL     1      -7.626   3.713 131.765  0.00  0.00    +0.000 C 
ATOM     17  C   UNL     1      -9.024   3.801 132.172  0.00  0.00    +0.000 C 
ATOM     18  O   UNL     1      -9.754   4.754 132.008  0.00  0.00    +0.000 OA
ATOM     19  C   UNL     1      -9.371   2.471 132.767  0.00  0.00    +0.000 C 
ATOM     20  C   UNL     1      -8.815   1.335 132.167  0.00  0.00    +0.000 C 
ATOM     21  C   UNL     1      -7.723   1.447 130.958  0.00  0.00    +0.000 C 
ATOM     22  C   UNL     1      -6.122   1.387 131.418  0.00  0.00    +0.000 C 
ENDROOT
BRANCH   4  23
ATOM     23  C   UNL     1      -7.608  -2.265 126.366  0.00  0.00    +0.000 C 
ATOM     24  O   UNL     1      -8.469  -2.987 126.902  0.00  0.00    +0.000 OA
BRANCH  23  25
ATOM     25  C   UNL     1      -6.753  -3.076 125.257  0.00  0.00    +0.000 C 
BRANCH  25  26
ATOM     26  O   UNL     1      -7.684  -3.544 124.148  0.00  0.00    +0.000 OA
BRANCH  26  27
ATOM     27  C   UNL     1      -8.666  -2.892 123.462  0.00  0.00    +0.000 C 
ATOM     28  C   UNL     1      -8.278  -1.847 122.460  0.00  0.00    +0.000 C 
ATOM     29  O   UNL     1      -9.861  -3.129 123.646  0.00  0.00    +0.000 OA
ENDBRANCH  26  27
ENDBRANCH  25  26
ENDBRANCH  23  25
ENDBRANCH   4  23
BRANCH   8  30
ATOM     30  O   UNL     1      -8.217  -1.729 129.248  0.00  0.00    +0.000 OA
ATOM     31  H   UNL     1      -8.779  -1.425 128.520  0.00  0.00    +0.000 HD
ENDBRANCH   8  30
BRANCH   4  32
ATOM     32  O   UNL     1      -8.076   0.006 125.482  0.00  0.00    +0.000 OA
BRANCH  32  33
ATOM     33  C   UNL     1      -9.391   0.361 125.291  0.00  0.00    +0.000 C 
ATOM     34  O   UNL     1     -10.343  -0.218 125.795  0.00  0.00    +0.000 OA
BRANCH  33  35
ATOM     35  C   UNL     1      -9.775   1.575 124.503  0.00  0.00    +0.000 C 
BRANCH  35  36
ATOM     36  C   UNL     1      -8.490   1.957 123.687  0.00  0.00    +0.000 C 
ATOM     37  C   UNL     1      -7.944   3.326 123.993  0.00  0.00    +0.000 C 
ENDBRANCH  35  36
ENDBRANCH  33  35
ENDBRANCH  32  33
ENDBRANCH   4  32
TORSDOF 9
ENDMDL
