MODEL 1
REMARK VINA RESULT:      -8.5      0.000      0.000
REMARK  Name = Diflorasone
REMARK  8 active torsions:
REMARK  status: ('A' for Active; 'I' for Inactive)
REMARK    1  A    between atoms: C_4  and  C_5
REMARK    2  A    between atoms: C_6  and  O_7
REMARK    3  A    between atoms: C_6  and  C_8
REMARK    4  A    between atoms: C_8  and  C_10
REMARK    5  A    between atoms: C_10  and  O_11
REMARK    6  A    between atoms: C_12  and  C_13
REMARK    7  A    between atoms: C_15  and  O_16
REMARK    8  A    between atoms: C_30  and  C_31
REMARK                            x       y       z     vdW  Elec       q    Type
REMARK                         _______ _______ _______ _____ _____    ______ ____
ROOT
ATOM      1  C   UNL     1      -9.349   6.636 131.571  0.00  0.00    +0.000 C 
ATOM      2  C   UNL     1      -9.319   6.054 132.919  0.00  0.00    +0.000 C 
ATOM      3  C   UNL     1      -9.684   4.838 132.093  0.00  0.00    +0.000 C 
ATOM      4  C   UNL     1      -9.109   3.329 133.160  0.00  0.00    +0.000 C 
ATOM      5  C   UNL     1     -10.062   5.559 130.177  0.00  0.00    +0.000 C 
ATOM      6  C   UNL     1     -10.850   5.870 131.189  0.00  0.00    +0.000 C 
ATOM      7  C   UNL     1     -12.078   6.578 131.555  0.00  0.00    +0.000 C 
ATOM      8  C   UNL     1     -11.029   4.024 130.807  0.00  0.00    +0.000 C 
ATOM      9  C   UNL     1      -9.409   3.464 130.087  0.00  0.00    +0.000 C 
ATOM     10  C   UNL     1      -7.829   4.428 130.371  0.00  0.00    +0.000 C 
ATOM     11  F   UNL     1      -7.872   4.602 131.769  0.00  0.00    +0.000 F 
ATOM     12  C   UNL     1      -7.887   6.076 130.567  0.00  0.00    +0.000 C 
ATOM     13  C   UNL     1      -6.658   6.495 131.442  0.00  0.00    +0.000 C 
ATOM     14  C   UNL     1      -5.394   5.817 130.981  0.00  0.00    +0.000 C 
ATOM     15  F   UNL     1      -5.298   5.981 129.637  0.00  0.00    +0.000 F 
ATOM     16  C   UNL     1      -5.450   4.397 131.352  0.00  0.00    +0.000 C 
ATOM     17  C   UNL     1      -4.637   3.627 132.128  0.00  0.00    +0.000 C 
ATOM     18  C   UNL     1      -3.507   3.710 131.314  0.00  0.00    +0.000 C 
ATOM     19  O   UNL     1      -2.557   4.245 131.834  0.00  0.00    +0.000 OA
ATOM     20  C   UNL     1      -3.920   2.743 130.157  0.00  0.00    +0.000 C 
ATOM     21  C   UNL     1      -5.308   2.669 129.799  0.00  0.00    +0.000 C 
ATOM     22  C   UNL     1      -6.398   3.551 130.629  0.00  0.00    +0.000 C 
ATOM     23  C   UNL     1      -6.822   2.925 131.998  0.00  0.00    +0.000 C 
ENDROOT
BRANCH   5  24
ATOM     24  O   UNL     1     -11.370   5.331 129.201  0.00  0.00    +0.000 OA
ATOM     25  H   UNL     1     -11.144   5.378 128.240  0.00  0.00    +0.000 HD
ENDBRANCH   5  24
BRANCH   5  26
ATOM     26  C   UNL     1     -10.019   6.872 128.813  0.00  0.00    +0.000 C 
ATOM     27  O   UNL     1      -9.676   6.451 127.664  0.00  0.00    +0.000 OA
BRANCH  26  28
ATOM     28  C   UNL     1     -10.443   8.410 128.689  0.00  0.00    +0.000 C 
BRANCH  28  29
ATOM     29  O   UNL     1     -11.659   8.746 127.911  0.00  0.00    +0.000 OA
ATOM     30  H   UNL     1     -12.327   8.033 127.914  0.00  0.00    +0.000 HD
ENDBRANCH  28  29
ENDBRANCH  26  28
ENDBRANCH   5  26
BRANCH   9  31
ATOM     31  O   UNL     1      -9.348   2.092 130.441  0.00  0.00    +0.000 OA
ATOM     32  H   UNL     1      -9.286   2.084 131.414  0.00  0.00    +0.000 HD
ENDBRANCH   9  31
TORSDOF 5
ENDMDL
MODEL 2
REMARK VINA RESULT:      -8.3      5.617      8.059
REMARK  Name = Diflorasone
REMARK  8 active torsions:
REMARK  status: ('A' for Active; 'I' for Inactive)
REMARK    1  A    between atoms: C_4  and  C_5
REMARK    2  A    between atoms: C_6  and  O_7
REMARK    3  A    between atoms: C_6  and  C_8
REMARK    4  A    between atoms: C_8  and  C_10
REMARK    5  A    between atoms: C_10  and  O_11
REMARK    6  A    between atoms: C_12  and  C_13
REMARK    7  A    between atoms: C_15  and  O_16
REMARK    8  A    between atoms: C_30  and  C_31
REMARK                            x       y       z     vdW  Elec       q    Type
REMARK                         _______ _______ _______ _____ _____    ______ ____
ROOT
ATOM      1  C   UNL     1      -6.410  -1.443 125.691  0.00  0.00    +0.000 C 
ATOM      2  C   UNL     1      -5.284  -0.521 125.890  0.00  0.00    +0.000 C 
ATOM      3  C   UNL     1      -6.456   0.418 126.081  0.00  0.00    +0.000 C 
ATOM      4  C   UNL     1      -5.757   1.863 127.162  0.00  0.00    +0.000 C 
ATOM      5  C   UNL     1      -8.141  -0.675 125.534  0.00  0.00    +0.000 C 
ATOM      6  C   UNL     1      -7.228  -0.340 124.641  0.00  0.00    +0.000 C 
ATOM      7  C   UNL     1      -6.894  -0.393 123.218  0.00  0.00    +0.000 C 
ATOM      8  C   UNL     1      -8.120   1.222 125.235  0.00  0.00    +0.000 C 
ATOM      9  C   UNL     1      -8.684   0.890 126.975  0.00  0.00    +0.000 C 
ATOM     10  C   UNL     1      -7.892  -0.445 128.022  0.00  0.00    +0.000 C 
ATOM     11  F   UNL     1      -6.527  -0.143 127.848  0.00  0.00    +0.000 F 
ATOM     12  C   UNL     1      -7.271  -1.805 127.299  0.00  0.00    +0.000 C 
ATOM     13  C   UNL     1      -6.123  -2.349 128.216  0.00  0.00    +0.000 C 
ATOM     14  C   UNL     1      -6.534  -2.365 129.665  0.00  0.00    +0.000 C 
ATOM     15  F   UNL     1      -7.748  -2.965 129.749  0.00  0.00    +0.000 F 
ATOM     16  C   UNL     1      -6.575  -0.984 130.166  0.00  0.00    +0.000 C 
ATOM     17  C   UNL     1      -5.913  -0.366 131.183  0.00  0.00    +0.000 C 
ATOM     18  C   UNL     1      -6.475  -1.109 132.221  0.00  0.00    +0.000 C 
ATOM     19  O   UNL     1      -5.679  -1.764 132.852  0.00  0.00    +0.000 OA
ATOM     20  C   UNL     1      -7.902  -0.475 132.284  0.00  0.00    +0.000 C 
ATOM     21  C   UNL     1      -8.491  -0.012 131.059  0.00  0.00    +0.000 C 
ATOM     22  C   UNL     1      -7.647  -0.123 129.671  0.00  0.00    +0.000 C 
ATOM     23  C   UNL     1      -6.588   1.011 129.471  0.00  0.00    +0.000 C 
ENDROOT
BRANCH   5  24
ATOM     24  O   UNL     1      -9.345  -0.302 124.473  0.00  0.00    +0.000 OA
ATOM     25  H   UNL     1      -9.841   0.515 124.728  0.00  0.00    +0.000 HD
ENDBRANCH   5  24
BRANCH   5  26
ATOM     26  C   UNL     1      -9.072  -2.268 125.110  0.00  0.00    +0.000 C 
ATOM     27  O   UNL     1     -10.057  -2.540 125.866  0.00  0.00    +0.000 OA
BRANCH  26  28
ATOM     28  C   UNL     1      -9.027  -3.341 123.923  0.00  0.00    +0.000 C 
BRANCH  28  29
ATOM     29  O   UNL     1     -10.287  -3.660 123.211  0.00  0.00    +0.000 OA
ATOM     30  H   UNL     1     -11.041  -3.106 123.496  0.00  0.00    +0.000 HD
ENDBRANCH  28  29
ENDBRANCH  26  28
ENDBRANCH   5  26
BRANCH   9  31
ATOM     31  O   UNL     1      -8.710   2.180 127.564  0.00  0.00    +0.000 OA
ATOM     32  H   UNL     1      -8.899   2.024 128.507  0.00  0.00    +0.000 HD
ENDBRANCH   9  31
TORSDOF 5
ENDMDL
MODEL 3
REMARK VINA RESULT:      -8.3      2.112      3.148
REMARK  Name = Diflorasone
REMARK  8 active torsions:
REMARK  status: ('A' for Active; 'I' for Inactive)
REMARK    1  A    between atoms: C_4  and  C_5
REMARK    2  A    between atoms: C_6  and  O_7
REMARK    3  A    between atoms: C_6  and  C_8
REMARK    4  A    between atoms: C_8  and  C_10
REMARK    5  A    between atoms: C_10  and  O_11
REMARK    6  A    between atoms: C_12  and  C_13
REMARK    7  A    between atoms: C_15  and  O_16
REMARK    8  A    between atoms: C_30  and  C_31
REMARK                            x       y       z     vdW  Elec       q    Type
REMARK                         _______ _______ _______ _____ _____    ______ ____
ROOT
ATOM      1  C   UNL     1      -7.835   4.289 132.195  0.00  0.00    +0.000 C 
ATOM      2  C   UNL     1      -7.062   3.124 132.646  0.00  0.00    +0.000 C 
ATOM      3  C   UNL     1      -7.069   2.896 131.150  0.00  0.00    +0.000 C 
ATOM      4  C   UNL     1      -5.515   1.792 130.812  0.00  0.00    +0.000 C 
ATOM      5  C   UNL     1      -8.387   4.310 130.377  0.00  0.00    +0.000 C 
ATOM      6  C   UNL     1      -8.817   3.328 131.148  0.00  0.00    +0.000 C 
ATOM      7  C   UNL     1     -10.017   2.718 131.723  0.00  0.00    +0.000 C 
ATOM      8  C   UNL     1      -8.220   2.609 129.500  0.00  0.00    +0.000 C 
ATOM      9  C   UNL     1      -6.898   3.751 128.863  0.00  0.00    +0.000 C 
ATOM     10  C   UNL     1      -5.980   4.916 130.005  0.00  0.00    +0.000 C 
ATOM     11  F   UNL     1      -5.608   4.035 131.040  0.00  0.00    +0.000 F 
ATOM     12  C   UNL     1      -6.740   5.531 131.348  0.00  0.00    +0.000 C 
ATOM     13  C   UNL     1      -5.639   5.841 132.418  0.00  0.00    +0.000 C 
ATOM     14  C   UNL     1      -4.458   6.550 131.807  0.00  0.00    +0.000 C 
ATOM     15  F   UNL     1      -4.929   7.586 131.067  0.00  0.00    +0.000 F 
ATOM     16  C   UNL     1      -3.700   5.597 130.986  0.00  0.00    +0.000 C 
ATOM     17  C   UNL     1      -2.406   5.174 131.045  0.00  0.00    +0.000 C 
ATOM     18  C   UNL     1      -1.818   6.404 130.748  0.00  0.00    +0.000 C 
ATOM     19  O   UNL     1      -1.122   6.849 131.631  0.00  0.00    +0.000 OA
ATOM     20  C   UNL     1      -2.098   6.489 129.213  0.00  0.00    +0.000 C 
ATOM     21  C   UNL     1      -3.310   5.904 128.713  0.00  0.00    +0.000 C 
ATOM     22  C   UNL     1      -4.317   5.143 129.741  0.00  0.00    +0.000 C 
ATOM     23  C   UNL     1      -3.884   3.684 130.105  0.00  0.00    +0.000 C 
ENDROOT
BRANCH   5  24
ATOM     24  O   UNL     1      -9.678   4.113 129.371  0.00  0.00    +0.000 OA
ATOM     25  H   UNL     1      -9.790   3.179 129.069  0.00  0.00    +0.000 HD
ENDBRANCH   5  24
BRANCH   5  26
ATOM     26  C   UNL     1      -9.453   5.872 130.468  0.00  0.00    +0.000 C 
ATOM     27  O   UNL     1      -9.252   6.723 129.546  0.00  0.00    +0.000 OA
BRANCH  26  28
ATOM     28  C   UNL     1     -10.685   6.369 131.362  0.00  0.00    +0.000 C 
BRANCH  28  29
ATOM     29  O   UNL     1     -10.512   6.430 132.832  0.00  0.00    +0.000 OA
ATOM     30  H   UNL     1     -11.339   6.640 133.309  0.00  0.00    +0.000 HD
ENDBRANCH  28  29
ENDBRANCH  26  28
ENDBRANCH   5  26
BRANCH   9  31
ATOM     31  O   UNL     1      -6.074   2.898 128.084  0.00  0.00    +0.000 OA
ATOM     32  H   UNL     1      -5.301   2.711 128.647  0.00  0.00    +0.000 HD
ENDBRANCH   9  31
TORSDOF 5
ENDMDL
MODEL 4
REMARK VINA RESULT:      -8.2      5.845      7.552
REMARK  Name = Diflorasone
REMARK  8 active torsions:
REMARK  status: ('A' for Active; 'I' for Inactive)
REMARK    1  A    between atoms: C_4  and  C_5
REMARK    2  A    between atoms: C_6  and  O_7
REMARK    3  A    between atoms: C_6  and  C_8
REMARK    4  A    between atoms: C_8  and  C_10
REMARK    5  A    between atoms: C_10  and  O_11
REMARK    6  A    between atoms: C_12  and  C_13
REMARK    7  A    between atoms: C_15  and  O_16
REMARK    8  A    between atoms: C_30  and  C_31
REMARK                            x       y       z     vdW  Elec       q    Type
REMARK                         _______ _______ _______ _____ _____    ______ ____
ROOT
ATOM      1  C   UNL     1      -8.783   1.496 125.684  0.00  0.00    +0.000 C 
ATOM      2  C   UNL     1      -9.814   0.463 125.519  0.00  0.00    +0.000 C 
ATOM      3  C   UNL     1      -8.660  -0.165 124.766  0.00  0.00    +0.000 C 
ATOM      4  C   UNL     1      -9.024  -2.065 124.801  0.00  0.00    +0.000 C 
ATOM      5  C   UNL     1      -7.201   1.315 124.648  0.00  0.00    +0.000 C 
ATOM      6  C   UNL     1      -8.350   1.441 124.012  0.00  0.00    +0.000 C 
ATOM      7  C   UNL     1      -9.103   2.296 123.093  0.00  0.00    +0.000 C 
ATOM      8  C   UNL     1      -7.353   0.037 123.223  0.00  0.00    +0.000 C 
ATOM      9  C   UNL     1      -6.275  -0.675 124.560  0.00  0.00    +0.000 C 
ATOM     10  C   UNL     1      -6.679  -0.435 126.372  0.00  0.00    +0.000 C 
ATOM     11  F   UNL     1      -8.038  -0.806 126.392  0.00  0.00    +0.000 F 
ATOM     12  C   UNL     1      -7.463   0.942 126.871  0.00  0.00    +0.000 C 
ATOM     13  C   UNL     1      -8.262   0.590 128.171  0.00  0.00    +0.000 C 
ATOM     14  C   UNL     1      -7.427  -0.214 129.133  0.00  0.00    +0.000 C 
ATOM     15  F   UNL     1      -6.233   0.415 129.276  0.00  0.00    +0.000 F 
ATOM     16  C   UNL     1      -7.264  -1.575 128.604  0.00  0.00    +0.000 C 
ATOM     17  C   UNL     1      -7.596  -2.794 129.113  0.00  0.00    +0.000 C 
ATOM     18  C   UNL     1      -6.727  -2.759 130.203  0.00  0.00    +0.000 C 
ATOM     19  O   UNL     1      -7.276  -2.787 131.279  0.00  0.00    +0.000 OA
ATOM     20  C   UNL     1      -5.363  -3.028 129.488  0.00  0.00    +0.000 C 
ATOM     21  C   UNL     1      -5.188  -2.525 128.155  0.00  0.00    +0.000 C 
ATOM     22  C   UNL     1      -6.414  -1.739 127.426  0.00  0.00    +0.000 C 
ATOM     23  C   UNL     1      -7.507  -2.679 126.818  0.00  0.00    +0.000 C 
ENDROOT
BRANCH   5  24
ATOM     24  O   UNL     1      -6.387   1.897 123.338  0.00  0.00    +0.000 OA
ATOM     25  H   UNL     1      -6.640   1.443 122.497  0.00  0.00    +0.000 HD
ENDBRANCH   5  24
BRANCH   5  26
ATOM     26  C   UNL     1      -6.409   2.967 125.127  0.00  0.00    +0.000 C 
ATOM     27  O   UNL     1      -5.218   2.894 125.562  0.00  0.00    +0.000 OA
BRANCH  26  28
ATOM     28  C   UNL     1      -6.814   4.511 125.002  0.00  0.00    +0.000 C 
BRANCH  28  29
ATOM     29  O   UNL     1      -8.247   4.875 125.098  0.00  0.00    +0.000 OA
ATOM     30  H   UNL     1      -8.528   5.516 124.414  0.00  0.00    +0.000 HD
ENDBRANCH  28  29
ENDBRANCH  26  28
ENDBRANCH   5  26
BRANCH   9  31
ATOM     31  O   UNL     1      -6.098  -2.023 124.156  0.00  0.00    +0.000 OA
ATOM     32  H   UNL     1      -5.259  -2.031 123.661  0.00  0.00    +0.000 HD
ENDBRANCH   9  31
TORSDOF 5
ENDMDL
MODEL 5
REMARK VINA RESULT:      -8.1      5.650      7.648
REMARK  Name = Diflorasone
REMARK  8 active torsions:
REMARK  status: ('A' for Active; 'I' for Inactive)
REMARK    1  A    between atoms: C_4  and  C_5
REMARK    2  A    between atoms: C_6  and  O_7
REMARK    3  A    between atoms: C_6  and  C_8
REMARK    4  A    between atoms: C_8  and  C_10
REMARK    5  A    between atoms: C_10  and  O_11
REMARK    6  A    between atoms: C_12  and  C_13
REMARK    7  A    between atoms: C_15  and  O_16
REMARK    8  A    between atoms: C_30  and  C_31
REMARK                            x       y       z     vdW  Elec       q    Type
REMARK                         _______ _______ _______ _____ _____    ______ ____
ROOT
ATOM      1  C   UNL     1      -8.613  -0.076 125.651  0.00  0.00    +0.000 C 
ATOM      2  C   UNL     1      -9.048   0.273 127.009  0.00  0.00    +0.000 C 
ATOM      3  C   UNL     1      -7.794  -0.521 127.309  0.00  0.00    +0.000 C 
ATOM      4  C   UNL     1      -7.222   0.101 129.050  0.00  0.00    +0.000 C 
ATOM      5  C   UNL     1      -7.212  -1.349 125.490  0.00  0.00    +0.000 C 
ATOM      6  C   UNL     1      -8.330  -1.725 126.082  0.00  0.00    +0.000 C 
ATOM      7  C   UNL     1      -9.461  -2.649 125.989  0.00  0.00    +0.000 C 
ATOM      8  C   UNL     1      -6.853  -2.311 127.113  0.00  0.00    +0.000 C 
ATOM      9  C   UNL     1      -5.471  -1.105 126.807  0.00  0.00    +0.000 C 
ATOM     10  C   UNL     1      -5.805   0.620 126.160  0.00  0.00    +0.000 C 
ATOM     11  F   UNL     1      -6.826   1.039 127.037  0.00  0.00    +0.000 F 
ATOM     12  C   UNL     1      -7.104   0.894 125.161  0.00  0.00    +0.000 C 
ATOM     13  C   UNL     1      -7.546   2.384 125.352  0.00  0.00    +0.000 C 
ATOM     14  C   UNL     1      -6.362   3.316 125.353  0.00  0.00    +0.000 C 
ATOM     15  F   UNL     1      -5.595   3.019 124.274  0.00  0.00    +0.000 F 
ATOM     16  C   UNL     1      -5.621   3.148 126.610  0.00  0.00    +0.000 C 
ATOM     17  C   UNL     1      -5.304   4.024 127.604  0.00  0.00    +0.000 C 
ATOM     18  C   UNL     1      -4.474   4.845 126.840  0.00  0.00    +0.000 C 
ATOM     19  O   UNL     1      -4.866   5.983 126.730  0.00  0.00    +0.000 OA
ATOM     20  C   UNL     1      -3.201   3.945 126.736  0.00  0.00    +0.000 C 
ATOM     21  C   UNL     1      -3.381   2.521 126.691  0.00  0.00    +0.000 C 
ATOM     22  C   UNL     1      -4.882   1.899 126.791  0.00  0.00    +0.000 C 
ATOM     23  C   UNL     1      -5.450   1.821 128.247  0.00  0.00    +0.000 C 
ENDROOT
BRANCH   5  24
ATOM     24  O   UNL     1      -6.865  -2.912 125.103  0.00  0.00    +0.000 OA
ATOM     25  H   UNL     1      -7.610  -3.366 124.636  0.00  0.00    +0.000 HD
ENDBRANCH   5  24
BRANCH   5  26
ATOM     26  C   UNL     1      -7.254  -1.516 123.604  0.00  0.00    +0.000 C 
ATOM     27  O   UNL     1      -6.123  -1.464 123.028  0.00  0.00    +0.000 OA
BRANCH  26  28
ATOM     28  C   UNL     1      -8.372  -1.849 122.508  0.00  0.00    +0.000 C 
BRANCH  28  29
ATOM     29  O   UNL     1      -9.758  -1.387 122.750  0.00  0.00    +0.000 OA
ATOM     30  H   UNL     1     -10.348  -1.520 121.981  0.00  0.00    +0.000 HD
ENDBRANCH  28  29
ENDBRANCH  26  28
ENDBRANCH   5  26
BRANCH   9  31
ATOM     31  O   UNL     1      -4.714  -1.162 128.005  0.00  0.00    +0.000 OA
ATOM     32  H   UNL     1      -4.609  -2.112 128.193  0.00  0.00    +0.000 HD
ENDBRANCH   9  31
TORSDOF 5
ENDMDL
MODEL 6
REMARK VINA RESULT:      -8.0      4.188      6.892
REMARK  Name = Diflorasone
REMARK  8 active torsions:
REMARK  status: ('A' for Active; 'I' for Inactive)
REMARK    1  A    between atoms: C_4  and  C_5
REMARK    2  A    between atoms: C_6  and  O_7
REMARK    3  A    between atoms: C_6  and  C_8
REMARK    4  A    between atoms: C_8  and  C_10
REMARK    5  A    between atoms: C_10  and  O_11
REMARK    6  A    between atoms: C_12  and  C_13
REMARK    7  A    between atoms: C_15  and  O_16
REMARK    8  A    between atoms: C_30  and  C_31
REMARK                            x       y       z     vdW  Elec       q    Type
REMARK                         _______ _______ _______ _____ _____    ______ ____
ROOT
ATOM      1  C   UNL     1      -5.257   4.971 132.500  0.00  0.00    +0.000 C 
ATOM      2  C   UNL     1      -5.819   6.193 131.911  0.00  0.00    +0.000 C 
ATOM      3  C   UNL     1      -4.336   6.471 131.780  0.00  0.00    +0.000 C 
ATOM      4  C   UNL     1      -4.200   7.742 130.327  0.00  0.00    +0.000 C 
ATOM      5  C   UNL     1      -3.389   4.955 132.848  0.00  0.00    +0.000 C 
ATOM      6  C   UNL     1      -4.129   5.860 133.461  0.00  0.00    +0.000 C 
ATOM      7  C   UNL     1      -4.582   6.321 134.775  0.00  0.00    +0.000 C 
ATOM      8  C   UNL     1      -2.576   6.693 132.770  0.00  0.00    +0.000 C 
ATOM      9  C   UNL     1      -2.064   5.719 131.271  0.00  0.00    +0.000 C 
ATOM     10  C   UNL     1      -3.274   4.616 130.362  0.00  0.00    +0.000 C 
ATOM     11  F   UNL     1      -4.364   5.496 130.202  0.00  0.00    +0.000 F 
ATOM     12  C   UNL     1      -4.509   3.879 131.193  0.00  0.00    +0.000 C 
ATOM     13  C   UNL     1      -5.688   3.649 130.188  0.00  0.00    +0.000 C 
ATOM     14  C   UNL     1      -5.196   3.089 128.879  0.00  0.00    +0.000 C 
ATOM     15  F   UNL     1      -4.385   2.036 129.152  0.00  0.00    +0.000 F 
ATOM     16  C   UNL     1      -4.487   4.144 128.142  0.00  0.00    +0.000 C 
ATOM     17  C   UNL     1      -4.700   4.697 126.916  0.00  0.00    +0.000 C 
ATOM     18  C   UNL     1      -4.442   3.546 126.170  0.00  0.00    +0.000 C 
ATOM     19  O   UNL     1      -5.386   3.146 125.531  0.00  0.00    +0.000 OA
ATOM     20  C   UNL     1      -2.884   3.486 126.272  0.00  0.00    +0.000 C 
ATOM     21  C   UNL     1      -2.265   3.958 127.478  0.00  0.00    +0.000 C 
ATOM     22  C   UNL     1      -3.192   4.574 128.667  0.00  0.00    +0.000 C 
ATOM     23  C   UNL     1      -3.635   6.056 128.434  0.00  0.00    +0.000 C 
ENDROOT
BRANCH   5  24
ATOM     24  O   UNL     1      -2.251   5.051 134.035  0.00  0.00    +0.000 OA
ATOM     25  H   UNL     1      -2.142   4.202 134.531  0.00  0.00    +0.000 HD
ENDBRANCH   5  24
BRANCH   5  26
ATOM     26  C   UNL     1      -3.325   3.288 133.743  0.00  0.00    +0.000 C 
ATOM     27  O   UNL     1      -2.557   2.420 133.222  0.00  0.00    +0.000 OA
BRANCH  26  28
ATOM     28  C   UNL     1      -3.906   2.699 135.113  0.00  0.00    +0.000 C 
BRANCH  28  29
ATOM     29  O   UNL     1      -3.312   3.162 136.389  0.00  0.00    +0.000 OA
ATOM     30  H   UNL     1      -2.754   3.959 136.287  0.00  0.00    +0.000 HD
ENDBRANCH  28  29
ENDBRANCH  26  28
ENDBRANCH   5  26
BRANCH   9  31
ATOM     31  O   UNL     1      -1.402   6.679 130.465  0.00  0.00    +0.000 OA
ATOM     32  H   UNL     1      -0.454   6.466 130.544  0.00  0.00    +0.000 HD
ENDBRANCH   9  31
TORSDOF 5
ENDMDL
MODEL 7
REMARK VINA RESULT:      -7.9      5.359      7.402
REMARK  Name = Diflorasone
REMARK  8 active torsions:
REMARK  status: ('A' for Active; 'I' for Inactive)
REMARK    1  A    between atoms: C_4  and  C_5
REMARK    2  A    between atoms: C_6  and  O_7
REMARK    3  A    between atoms: C_6  and  C_8
REMARK    4  A    between atoms: C_8  and  C_10
REMARK    5  A    between atoms: C_10  and  O_11
REMARK    6  A    between atoms: C_12  and  C_13
REMARK    7  A    between atoms: C_15  and  O_16
REMARK    8  A    between atoms: C_30  and  C_31
REMARK                            x       y       z     vdW  Elec       q    Type
REMARK                         _______ _______ _______ _____ _____    ______ ____
ROOT
ATOM      1  C   UNL     1      -6.545   0.483 125.190  0.00  0.00    +0.000 C 
ATOM      2  C   UNL     1      -5.203   0.798 125.698  0.00  0.00    +0.000 C 
ATOM      3  C   UNL     1      -6.063   1.602 126.651  0.00  0.00    +0.000 C 
ATOM      4  C   UNL     1      -4.975   1.814 128.237  0.00  0.00    +0.000 C 
ATOM      5  C   UNL     1      -7.994   1.501 125.878  0.00  0.00    +0.000 C 
ATOM      6  C   UNL     1      -7.035   2.139 125.233  0.00  0.00    +0.000 C 
ATOM      7  C   UNL     1      -6.748   2.957 124.054  0.00  0.00    +0.000 C 
ATOM      8  C   UNL     1      -7.447   3.080 126.824  0.00  0.00    +0.000 C 
ATOM      9  C   UNL     1      -8.059   1.823 128.050  0.00  0.00    +0.000 C 
ATOM     10  C   UNL     1      -7.659   0.003 127.865  0.00  0.00    +0.000 C 
ATOM     11  F   UNL     1      -6.266   0.057 127.660  0.00  0.00    +0.000 F 
ATOM     12  C   UNL     1      -7.452  -0.650 126.352  0.00  0.00    +0.000 C 
ATOM     13  C   UNL     1      -6.491  -1.880 126.492  0.00  0.00    +0.000 C 
ATOM     14  C   UNL     1      -6.872  -2.748 127.663  0.00  0.00    +0.000 C 
ATOM     15  F   UNL     1      -8.204  -2.994 127.586  0.00  0.00    +0.000 F 
ATOM     16  C   UNL     1      -6.518  -2.054 128.909  0.00  0.00    +0.000 C 
ATOM     17  C   UNL     1      -5.696  -2.397 129.939  0.00  0.00    +0.000 C 
ATOM     18  C   UNL     1      -6.431  -3.501 130.374  0.00  0.00    +0.000 C 
ATOM     19  O   UNL     1      -5.842  -4.553 130.295  0.00  0.00    +0.000 OA
ATOM     20  C   UNL     1      -7.622  -2.785 131.088  0.00  0.00    +0.000 C 
ATOM     21  C   UNL     1      -8.074  -1.530 130.557  0.00  0.00    +0.000 C 
ATOM     22  C   UNL     1      -7.313  -0.882 129.272  0.00  0.00    +0.000 C 
ATOM     23  C   UNL     1      -5.982  -0.138 129.622  0.00  0.00    +0.000 C 
ENDROOT
BRANCH   5  24
ATOM     24  O   UNL     1      -9.059   2.710 125.534  0.00  0.00    +0.000 OA
ATOM     25  H   UNL     1      -8.841   3.557 125.996  0.00  0.00    +0.000 HD
ENDBRANCH   5  24
BRANCH   5  26
ATOM     26  C   UNL     1      -9.339   0.801 124.744  0.00  0.00    +0.000 C 
ATOM     27  O   UNL     1     -10.378   0.369 125.335  0.00  0.00    +0.000 OA
BRANCH  26  28
ATOM     28  C   UNL     1      -9.581   0.724 123.164  0.00  0.00    +0.000 C 
BRANCH  28  29
ATOM     29  O   UNL     1     -10.948   0.431 122.672  0.00  0.00    +0.000 OA
ATOM     30  H   UNL     1     -11.500   1.232 122.571  0.00  0.00    +0.000 HD
ENDBRANCH  28  29
ENDBRANCH  26  28
ENDBRANCH   5  26
BRANCH   9  31
ATOM     31  O   UNL     1      -7.715   2.390 129.303  0.00  0.00    +0.000 OA
ATOM     32  H   UNL     1      -8.226   3.219 129.354  0.00  0.00    +0.000 HD
ENDBRANCH   9  31
TORSDOF 5
ENDMDL
MODEL 8
REMARK VINA RESULT:      -7.9      6.493      9.608
REMARK  Name = Diflorasone
REMARK  8 active torsions:
REMARK  status: ('A' for Active; 'I' for Inactive)
REMARK    1  A    between atoms: C_4  and  C_5
REMARK    2  A    between atoms: C_6  and  O_7
REMARK    3  A    between atoms: C_6  and  C_8
REMARK    4  A    between atoms: C_8  and  C_10
REMARK    5  A    between atoms: C_10  and  O_11
REMARK    6  A    between atoms: C_12  and  C_13
REMARK    7  A    between atoms: C_15  and  O_16
REMARK    8  A    between atoms: C_30  and  C_31
REMARK                            x       y       z     vdW  Elec       q    Type
REMARK                         _______ _______ _______ _____ _____    ______ ____
ROOT
ATOM      1  C   UNL     1      -7.741  -2.295 131.165  0.00  0.00    +0.000 C 
ATOM      2  C   UNL     1      -8.414  -1.011 130.929  0.00  0.00    +0.000 C 
ATOM      3  C   UNL     1      -7.027  -0.704 130.405  0.00  0.00    +0.000 C 
ATOM      4  C   UNL     1      -7.285   0.748 129.151  0.00  0.00    +0.000 C 
ATOM      5  C   UNL     1      -5.855  -2.338 130.942  0.00  0.00    +0.000 C 
ATOM      6  C   UNL     1      -6.355  -1.529 131.857  0.00  0.00    +0.000 C 
ATOM      7  C   UNL     1      -6.389  -1.249 133.293  0.00  0.00    +0.000 C 
ATOM      8  C   UNL     1      -5.048  -0.597 130.852  0.00  0.00    +0.000 C 
ATOM      9  C   UNL     1      -5.027  -1.361 129.157  0.00  0.00    +0.000 C 
ATOM     10  C   UNL     1      -6.483  -2.346 128.511  0.00  0.00    +0.000 C 
ATOM     11  F   UNL     1      -7.545  -1.463 128.792  0.00  0.00    +0.000 F 
ATOM     12  C   UNL     1      -7.441  -3.197 129.567  0.00  0.00    +0.000 C 
ATOM     13  C   UNL     1      -8.869  -3.305 128.932  0.00  0.00    +0.000 C 
ATOM     14  C   UNL     1      -8.799  -3.683 127.475  0.00  0.00    +0.000 C 
ATOM     15  F   UNL     1      -7.975  -4.755 127.360  0.00  0.00    +0.000 F 
ATOM     16  C   UNL     1      -8.306  -2.533 126.705  0.00  0.00    +0.000 C 
ATOM     17  C   UNL     1      -8.852  -1.826 125.677  0.00  0.00    +0.000 C 
ATOM     18  C   UNL     1      -8.858  -2.866 124.747  0.00  0.00    +0.000 C 
ATOM     19  O   UNL     1      -9.960  -3.188 124.367  0.00  0.00    +0.000 OA
ATOM     20  C   UNL     1      -7.341  -2.925 124.377  0.00  0.00    +0.000 C 
ATOM     21  C   UNL     1      -6.383  -2.609 125.398  0.00  0.00    +0.000 C 
ATOM     22  C   UNL     1      -6.902  -2.164 126.875  0.00  0.00    +0.000 C 
ATOM     23  C   UNL     1      -7.350  -0.668 126.976  0.00  0.00    +0.000 C 
ENDROOT
BRANCH   5  24
ATOM     24  O   UNL     1      -4.416  -2.389 131.744  0.00  0.00    +0.000 OA
ATOM     25  H   UNL     1      -3.936  -1.524 131.726  0.00  0.00    +0.000 HD
ENDBRANCH   5  24
BRANCH   5  26
ATOM     26  C   UNL     1      -5.581  -4.108 131.557  0.00  0.00    +0.000 C 
ATOM     27  O   UNL     1      -5.034  -4.895 130.722  0.00  0.00    +0.000 OA
BRANCH  26  28
ATOM     28  C   UNL     1      -5.743  -4.875 132.953  0.00  0.00    +0.000 C 
BRANCH  28  29
ATOM     29  O   UNL     1      -4.936  -4.417 134.107  0.00  0.00    +0.000 OA
ATOM     30  H   UNL     1      -4.130  -4.952 134.250  0.00  0.00    +0.000 HD
ENDBRANCH  28  29
ENDBRANCH  26  28
ENDBRANCH   5  26
BRANCH   9  31
ATOM     31  O   UNL     1      -4.602  -0.297 128.322  0.00  0.00    +0.000 OA
ATOM     32  H   UNL     1      -3.661  -0.477 128.143  0.00  0.00    +0.000 HD
ENDBRANCH   9  31
TORSDOF 5
ENDMDL
MODEL 9
REMARK VINA RESULT:      -7.7      2.551      6.729
REMARK  Name = Diflorasone
REMARK  8 active torsions:
REMARK  status: ('A' for Active; 'I' for Inactive)
REMARK    1  A    between atoms: C_4  and  C_5
REMARK    2  A    between atoms: C_6  and  O_7
REMARK    3  A    between atoms: C_6  and  C_8
REMARK    4  A    between atoms: C_8  and  C_10
REMARK    5  A    between atoms: C_10  and  O_11
REMARK    6  A    between atoms: C_12  and  C_13
REMARK    7  A    between atoms: C_15  and  O_16
REMARK    8  A    between atoms: C_30  and  C_31
REMARK                            x       y       z     vdW  Elec       q    Type
REMARK                         _______ _______ _______ _____ _____    ______ ____
ROOT
ATOM      1  C   UNL     1      -3.575   6.564 131.432  0.00  0.00    +0.000 C 
ATOM      2  C   UNL     1      -3.538   5.736 130.219  0.00  0.00    +0.000 C 
ATOM      3  C   UNL     1      -3.253   4.695 131.282  0.00  0.00    +0.000 C 
ATOM      4  C   UNL     1      -3.799   3.017 130.487  0.00  0.00    +0.000 C 
ATOM      5  C   UNL     1      -2.973   5.764 133.047  0.00  0.00    +0.000 C 
ATOM      6  C   UNL     1      -2.118   5.866 132.046  0.00  0.00    +0.000 C 
ATOM      7  C   UNL     1      -0.854   6.476 131.632  0.00  0.00    +0.000 C 
ATOM      8  C   UNL     1      -2.008   4.125 132.783  0.00  0.00    +0.000 C 
ATOM      9  C   UNL     1      -3.682   3.732 133.491  0.00  0.00    +0.000 C 
ATOM     10  C   UNL     1      -5.218   4.644 132.930  0.00  0.00    +0.000 C 
ATOM     11  F   UNL     1      -5.086   4.548 131.530  0.00  0.00    +0.000 F 
ATOM     12  C   UNL     1      -5.108   6.224 132.429  0.00  0.00    +0.000 C 
ATOM     13  C   UNL     1      -6.272   6.484 131.413  0.00  0.00    +0.000 C 
ATOM     14  C   UNL     1      -7.577   5.921 131.914  0.00  0.00    +0.000 C 
ATOM     15  F   UNL     1      -7.750   6.340 133.193  0.00  0.00    +0.000 F 
ATOM     16  C   UNL     1      -7.534   4.456 131.823  0.00  0.00    +0.000 C 
ATOM     17  C   UNL     1      -8.317   3.562 131.157  0.00  0.00    +0.000 C 
ATOM     18  C   UNL     1      -9.491   3.813 131.867  0.00  0.00    +0.000 C 
ATOM     19  O   UNL     1     -10.395   4.251 131.195  0.00  0.00    +0.000 OA
ATOM     20  C   UNL     1      -9.173   3.080 133.210  0.00  0.00    +0.000 C 
ATOM     21  C   UNL     1      -7.810   3.059 133.663  0.00  0.00    +0.000 C 
ATOM     22  C   UNL     1      -6.652   3.752 132.752  0.00  0.00    +0.000 C 
ATOM     23  C   UNL     1      -6.161   2.871 131.556  0.00  0.00    +0.000 C 
ENDROOT
BRANCH   5  24
ATOM     24  O   UNL     1      -1.733   5.710 134.129  0.00  0.00    +0.000 OA
ATOM     25  H   UNL     1      -1.728   6.483 134.746  0.00  0.00    +0.000 HD
ENDBRANCH   5  24
BRANCH   5  26
ATOM     26  C   UNL     1      -3.067   7.313 134.132  0.00  0.00    +0.000 C 
ATOM     27  O   UNL     1      -3.724   7.182 135.211  0.00  0.00    +0.000 OA
BRANCH  26  28
ATOM     28  C   UNL     1      -2.399   8.768 134.112  0.00  0.00    +0.000 C 
BRANCH  28  29
ATOM     29  O   UNL     1      -2.365   9.512 132.832  0.00  0.00    +0.000 OA
ATOM     30  H   UNL     1      -3.181   9.404 132.302  0.00  0.00    +0.000 HD
ENDBRANCH  28  29
ENDBRANCH  26  28
ENDBRANCH   5  26
BRANCH   9  31
ATOM     31  O   UNL     1      -3.754   2.319 133.400  0.00  0.00    +0.000 OA
ATOM     32  H   UNL     1      -4.504   2.067 133.970  0.00  0.00    +0.000 HD
ENDBRANCH   9  31
TORSDOF 5
ENDMDL
