MODEL 1
REMARK VINA RESULT:      -7.6      0.000      0.000
REMARK  Name = Diflunisal
REMARK  4 active torsions:
REMARK  status: ('A' for Active; 'I' for Inactive)
REMARK    1  A    between atoms: O_1  and  C_2
REMARK    2  A    between atoms: C_2  and  C_4
REMARK    3  A    between atoms: C_5  and  O_6
REMARK    4  A    between atoms: C_9  and  C_11
REMARK                            x       y       z     vdW  Elec       q    Type
REMARK                         _______ _______ _______ _____ _____    ______ ____
ROOT
ATOM      1  C   UNL     1      -9.037   1.784 123.382  0.00  0.00    +0.000 A 
ATOM      2  C   UNL     1      -8.146   1.613 124.444  0.00  0.00    +0.000 A 
ATOM      3  C   UNL     1      -6.876   2.186 124.386  0.00  0.00    +0.000 A 
ATOM      4  C   UNL     1      -6.486   2.922 123.263  0.00  0.00    +0.000 A 
ATOM      5  C   UNL     1      -7.353   3.095 122.173  0.00  0.00    +0.000 A 
ATOM      6  C   UNL     1      -8.631   2.508 122.246  0.00  0.00    +0.000 A 
ENDROOT
BRANCH   5   7
ATOM      7  C   UNL     1      -6.924   3.862 120.993  0.00  0.00    +0.000 A 
ATOM      8  C   UNL     1      -5.656   4.464 120.927  0.00  0.00    +0.000 A 
ATOM      9  F   UNL     1      -4.794   4.324 121.946  0.00  0.00    +0.000 F 
ATOM     10  C   UNL     1      -5.247   5.199 119.817  0.00  0.00    +0.000 A 
ATOM     11  C   UNL     1      -6.114   5.335 118.744  0.00  0.00    +0.000 A 
ATOM     12  F   UNL     1      -5.737   6.050 117.675  0.00  0.00    +0.000 F 
ATOM     13  C   UNL     1      -7.370   4.741 118.761  0.00  0.00    +0.000 A 
ATOM     14  C   UNL     1      -7.775   4.008 119.881  0.00  0.00    +0.000 A 
ENDBRANCH   5   7
BRANCH   1  15
ATOM     15  C   UNL     1     -10.386   1.177 123.376  0.00  0.00    +0.000 C 
ATOM     16  O   UNL     1     -10.753   0.389 122.518  0.00  0.00    +0.000 OA
BRANCH  15  17
ATOM     17  O   UNL     1     -11.156   1.546 124.423  0.00  0.00    +0.000 OA
ATOM     18  H   UNL     1     -10.683   1.666 125.273  0.00  0.00    +0.000 HD
ENDBRANCH  15  17
ENDBRANCH   1  15
BRANCH   2  19
ATOM     19  O   UNL     1      -8.435   0.899 125.574  0.00  0.00    +0.000 OA
ATOM     20  H   UNL     1      -9.400   0.851 125.712  0.00  0.00    +0.000 HD
ENDBRANCH   2  19
TORSDOF 4
ENDMDL
MODEL 2
REMARK VINA RESULT:      -7.6      8.737     10.722
REMARK  Name = Diflunisal
REMARK  4 active torsions:
REMARK  status: ('A' for Active; 'I' for Inactive)
REMARK    1  A    between atoms: O_1  and  C_2
REMARK    2  A    between atoms: C_2  and  C_4
REMARK    3  A    between atoms: C_5  and  O_6
REMARK    4  A    between atoms: C_9  and  C_11
REMARK                            x       y       z     vdW  Elec       q    Type
REMARK                         _______ _______ _______ _____ _____    ______ ____
ROOT
ATOM      1  C   UNL     1     -11.588   7.511 127.914  0.00  0.00    +0.000 A 
ATOM      2  C   UNL     1     -12.777   7.941 128.507  0.00  0.00    +0.000 A 
ATOM      3  C   UNL     1     -12.881   7.999 129.895  0.00  0.00    +0.000 A 
ATOM      4  C   UNL     1     -11.802   7.619 130.699  0.00  0.00    +0.000 A 
ATOM      5  C   UNL     1     -10.601   7.166 130.132  0.00  0.00    +0.000 A 
ATOM      6  C   UNL     1     -10.513   7.111 128.728  0.00  0.00    +0.000 A 
ENDROOT
BRANCH   5   7
ATOM      7  C   UNL     1      -9.478   6.758 130.991  0.00  0.00    +0.000 A 
ATOM      8  C   UNL     1      -9.687   6.081 132.204  0.00  0.00    +0.000 A 
ATOM      9  F   UNL     1     -10.934   5.770 132.592  0.00  0.00    +0.000 F 
ATOM     10  C   UNL     1      -8.630   5.699 133.026  0.00  0.00    +0.000 A 
ATOM     11  C   UNL     1      -7.333   5.990 132.632  0.00  0.00    +0.000 A 
ATOM     12  F   UNL     1      -6.307   5.638 133.419  0.00  0.00    +0.000 F 
ATOM     13  C   UNL     1      -7.080   6.642 131.431  0.00  0.00    +0.000 A 
ATOM     14  C   UNL     1      -8.148   7.026 130.613  0.00  0.00    +0.000 A 
ENDBRANCH   5   7
BRANCH   1  15
ATOM     15  C   UNL     1     -11.429   7.403 126.447  0.00  0.00    +0.000 C 
ATOM     16  O   UNL     1     -10.535   7.964 125.835  0.00  0.00    +0.000 OA
BRANCH  15  17
ATOM     17  O   UNL     1     -12.341   6.599 125.857  0.00  0.00    +0.000 OA
ATOM     18  H   UNL     1     -13.214   6.553 126.300  0.00  0.00    +0.000 HD
ENDBRANCH  15  17
ENDBRANCH   1  15
BRANCH   2  19
ATOM     19  O   UNL     1     -13.887   8.319 127.802  0.00  0.00    +0.000 OA
ATOM     20  H   UNL     1     -14.698   8.009 128.248  0.00  0.00    +0.000 HD
ENDBRANCH   2  19
TORSDOF 4
ENDMDL
MODEL 3
REMARK VINA RESULT:      -7.3      9.004     11.381
REMARK  Name = Diflunisal
REMARK  4 active torsions:
REMARK  status: ('A' for Active; 'I' for Inactive)
REMARK    1  A    between atoms: O_1  and  C_2
REMARK    2  A    between atoms: C_2  and  C_4
REMARK    3  A    between atoms: C_5  and  O_6
REMARK    4  A    between atoms: C_9  and  C_11
REMARK                            x       y       z     vdW  Elec       q    Type
REMARK                         _______ _______ _______ _____ _____    ______ ____
ROOT
ATOM      1  C   UNL     1     -11.041   7.222 129.087  0.00  0.00    +0.000 A 
ATOM      2  C   UNL     1     -12.258   7.704 129.573  0.00  0.00    +0.000 A 
ATOM      3  C   UNL     1     -12.638   7.437 130.887  0.00  0.00    +0.000 A 
ATOM      4  C   UNL     1     -11.810   6.678 131.719  0.00  0.00    +0.000 A 
ATOM      5  C   UNL     1     -10.590   6.164 131.253  0.00  0.00    +0.000 A 
ATOM      6  C   UNL     1     -10.222   6.441 129.923  0.00  0.00    +0.000 A 
ENDROOT
BRANCH   5   7
ATOM      7  C   UNL     1      -9.734   5.357 132.137  0.00  0.00    +0.000 A 
ATOM      8  C   UNL     1      -9.653   3.960 132.007  0.00  0.00    +0.000 A 
ATOM      9  F   UNL     1     -10.347   3.335 131.043  0.00  0.00    +0.000 F 
ATOM     10  C   UNL     1      -8.852   3.188 132.844  0.00  0.00    +0.000 A 
ATOM     11  C   UNL     1      -8.109   3.817 133.832  0.00  0.00    +0.000 A 
ATOM     12  F   UNL     1      -7.344   3.085 134.652  0.00  0.00    +0.000 F 
ATOM     13  C   UNL     1      -8.147   5.198 133.984  0.00  0.00    +0.000 A 
ATOM     14  C   UNL     1      -8.957   5.966 133.141  0.00  0.00    +0.000 A 
ENDBRANCH   5   7
BRANCH   1  15
ATOM     15  C   UNL     1     -10.599   7.450 127.694  0.00  0.00    +0.000 C 
ATOM     16  O   UNL     1     -10.902   8.448 127.059  0.00  0.00    +0.000 OA
BRANCH  15  17
ATOM     17  O   UNL     1      -9.801   6.475 127.206  0.00  0.00    +0.000 OA
ATOM     18  H   UNL     1     -10.102   6.062 126.369  0.00  0.00    +0.000 HD
ENDBRANCH  15  17
ENDBRANCH   1  15
BRANCH   2  19
ATOM     19  O   UNL     1     -13.137   8.443 128.828  0.00  0.00    +0.000 OA
ATOM     20  H   UNL     1     -12.668   8.921 128.118  0.00  0.00    +0.000 HD
ENDBRANCH   2  19
TORSDOF 4
ENDMDL
MODEL 4
REMARK VINA RESULT:      -7.3      9.595     10.434
REMARK  Name = Diflunisal
REMARK  4 active torsions:
REMARK  status: ('A' for Active; 'I' for Inactive)
REMARK    1  A    between atoms: O_1  and  C_2
REMARK    2  A    between atoms: C_2  and  C_4
REMARK    3  A    between atoms: C_5  and  O_6
REMARK    4  A    between atoms: C_9  and  C_11
REMARK                            x       y       z     vdW  Elec       q    Type
REMARK                         _______ _______ _______ _____ _____    ______ ____
ROOT
ATOM      1  C   UNL     1      -8.920   4.257 132.039  0.00  0.00    +0.000 A 
ATOM      2  C   UNL     1      -7.633   4.761 132.240  0.00  0.00    +0.000 A 
ATOM      3  C   UNL     1      -7.310   6.042 131.795  0.00  0.00    +0.000 A 
ATOM      4  C   UNL     1      -8.266   6.822 131.139  0.00  0.00    +0.000 A 
ATOM      5  C   UNL     1      -9.562   6.336 130.907  0.00  0.00    +0.000 A 
ATOM      6  C   UNL     1      -9.872   5.039 131.360  0.00  0.00    +0.000 A 
ENDROOT
BRANCH   5   7
ATOM      7  C   UNL     1     -10.555   7.163 130.205  0.00  0.00    +0.000 A 
ATOM      8  C   UNL     1     -11.837   7.385 130.737  0.00  0.00    +0.000 A 
ATOM      9  F   UNL     1     -12.171   6.856 131.924  0.00  0.00    +0.000 F 
ATOM     10  C   UNL     1     -12.785   8.159 130.074  0.00  0.00    +0.000 A 
ATOM     11  C   UNL     1     -12.453   8.734 128.856  0.00  0.00    +0.000 A 
ATOM     12  F   UNL     1     -13.360   9.472 128.203  0.00  0.00    +0.000 F 
ATOM     13  C   UNL     1     -11.190   8.555 128.303  0.00  0.00    +0.000 A 
ATOM     14  C   UNL     1     -10.245   7.772 128.974  0.00  0.00    +0.000 A 
ENDBRANCH   5   7
BRANCH   1  15
ATOM     15  C   UNL     1      -9.311   2.895 132.464  0.00  0.00    +0.000 C 
ATOM     16  O   UNL     1      -8.711   2.273 133.325  0.00  0.00    +0.000 OA
BRANCH  15  17
ATOM     17  O   UNL     1     -10.412   2.422 131.839  0.00  0.00    +0.000 OA
ATOM     18  H   UNL     1     -10.423   1.455 131.677  0.00  0.00    +0.000 HD
ENDBRANCH  15  17
ENDBRANCH   1  15
BRANCH   2  19
ATOM     19  O   UNL     1      -6.630   4.065 132.858  0.00  0.00    +0.000 OA
ATOM     20  H   UNL     1      -6.599   3.145 132.533  0.00  0.00    +0.000 HD
ENDBRANCH   2  19
TORSDOF 4
ENDMDL
MODEL 5
REMARK VINA RESULT:      -7.2      4.262      6.608
REMARK  Name = Diflunisal
REMARK  4 active torsions:
REMARK  status: ('A' for Active; 'I' for Inactive)
REMARK    1  A    between atoms: O_1  and  C_2
REMARK    2  A    between atoms: C_2  and  C_4
REMARK    3  A    between atoms: C_5  and  O_6
REMARK    4  A    between atoms: C_9  and  C_11
REMARK                            x       y       z     vdW  Elec       q    Type
REMARK                         _______ _______ _______ _____ _____    ______ ____
ROOT
ATOM      1  C   UNL     1      -6.952   2.887 122.890  0.00  0.00    +0.000 A 
ATOM      2  C   UNL     1      -6.308   3.563 123.928  0.00  0.00    +0.000 A 
ATOM      3  C   UNL     1      -5.952   2.879 125.089  0.00  0.00    +0.000 A 
ATOM      4  C   UNL     1      -6.248   1.519 125.225  0.00  0.00    +0.000 A 
ATOM      5  C   UNL     1      -6.910   0.818 124.206  0.00  0.00    +0.000 A 
ATOM      6  C   UNL     1      -7.265   1.524 123.040  0.00  0.00    +0.000 A 
ENDROOT
BRANCH   5   7
ATOM      7  C   UNL     1      -7.226  -0.610 124.366  0.00  0.00    +0.000 A 
ATOM      8  C   UNL     1      -8.412  -1.037 124.987  0.00  0.00    +0.000 A 
ATOM      9  F   UNL     1      -9.300  -0.133 125.428  0.00  0.00    +0.000 F 
ATOM     10  C   UNL     1      -8.713  -2.387 125.150  0.00  0.00    +0.000 A 
ATOM     11  C   UNL     1      -7.819  -3.337 124.681  0.00  0.00    +0.000 A 
ATOM     12  F   UNL     1      -8.091  -4.639 124.843  0.00  0.00    +0.000 F 
ATOM     13  C   UNL     1      -6.642  -2.958 124.045  0.00  0.00    +0.000 A 
ATOM     14  C   UNL     1      -6.346  -1.600 123.889  0.00  0.00    +0.000 A 
ENDBRANCH   5   7
BRANCH   1  15
ATOM     15  C   UNL     1      -7.378   3.567 121.647  0.00  0.00    +0.000 C 
ATOM     16  O   UNL     1      -6.593   3.895 120.771  0.00  0.00    +0.000 OA
BRANCH  15  17
ATOM     17  O   UNL     1      -8.712   3.758 121.557  0.00  0.00    +0.000 OA
ATOM     18  H   UNL     1      -9.122   3.482 120.710  0.00  0.00    +0.000 HD
ENDBRANCH  15  17
ENDBRANCH   1  15
BRANCH   2  19
ATOM     19  O   UNL     1      -5.991   4.894 123.891  0.00  0.00    +0.000 OA
ATOM     20  H   UNL     1      -5.160   5.035 123.399  0.00  0.00    +0.000 HD
ENDBRANCH   2  19
TORSDOF 4
ENDMDL
MODEL 6
REMARK VINA RESULT:      -7.2      9.959     10.878
REMARK  Name = Diflunisal
REMARK  4 active torsions:
REMARK  status: ('A' for Active; 'I' for Inactive)
REMARK    1  A    between atoms: O_1  and  C_2
REMARK    2  A    between atoms: C_2  and  C_4
REMARK    3  A    between atoms: C_5  and  O_6
REMARK    4  A    between atoms: C_9  and  C_11
REMARK                            x       y       z     vdW  Elec       q    Type
REMARK                         _______ _______ _______ _____ _____    ______ ____
ROOT
ATOM      1  C   UNL     1      -7.193   6.521 131.580  0.00  0.00    +0.000 A 
ATOM      2  C   UNL     1      -7.503   5.889 132.787  0.00  0.00    +0.000 A 
ATOM      3  C   UNL     1      -8.835   5.669 133.135  0.00  0.00    +0.000 A 
ATOM      4  C   UNL     1      -9.864   6.088 132.286  0.00  0.00    +0.000 A 
ATOM      5  C   UNL     1      -9.583   6.741 131.076  0.00  0.00    +0.000 A 
ATOM      6  C   UNL     1      -8.233   6.958 130.740  0.00  0.00    +0.000 A 
ENDROOT
BRANCH   5   7
ATOM      7  C   UNL     1     -10.676   7.187 130.198  0.00  0.00    +0.000 A 
ATOM      8  C   UNL     1     -12.021   6.909 130.497  0.00  0.00    +0.000 A 
ATOM      9  F   UNL     1     -12.334   6.244 131.620  0.00  0.00    +0.000 F 
ATOM     10  C   UNL     1     -13.060   7.320 129.667  0.00  0.00    +0.000 A 
ATOM     11  C   UNL     1     -12.759   8.029 128.513  0.00  0.00    +0.000 A 
ATOM     12  F   UNL     1     -13.749   8.420 127.700  0.00  0.00    +0.000 F 
ATOM     13  C   UNL     1     -11.444   8.339 128.189  0.00  0.00    +0.000 A 
ATOM     14  C   UNL     1     -10.406   7.919 129.027  0.00  0.00    +0.000 A 
ENDBRANCH   5   7
BRANCH   1  15
ATOM     15  C   UNL     1      -5.800   6.805 131.172  0.00  0.00    +0.000 C 
ATOM     16  O   UNL     1      -4.843   6.186 131.609  0.00  0.00    +0.000 OA
BRANCH  15  17
ATOM     17  O   UNL     1      -5.691   7.784 130.248  0.00  0.00    +0.000 OA
ATOM     18  H   UNL     1      -6.240   8.580 130.408  0.00  0.00    +0.000 HD
ENDBRANCH  15  17
ENDBRANCH   1  15
BRANCH   2  19
ATOM     19  O   UNL     1      -6.566   5.459 133.685  0.00  0.00    +0.000 OA
ATOM     20  H   UNL     1      -5.672   5.737 133.408  0.00  0.00    +0.000 HD
ENDBRANCH   2  19
TORSDOF 4
ENDMDL
MODEL 7
REMARK VINA RESULT:      -7.1      9.110     10.182
REMARK  Name = Diflunisal
REMARK  4 active torsions:
REMARK  status: ('A' for Active; 'I' for Inactive)
REMARK    1  A    between atoms: O_1  and  C_2
REMARK    2  A    between atoms: C_2  and  C_4
REMARK    3  A    between atoms: C_5  and  O_6
REMARK    4  A    between atoms: C_9  and  C_11
REMARK                            x       y       z     vdW  Elec       q    Type
REMARK                         _______ _______ _______ _____ _____    ______ ____
ROOT
ATOM      1  C   UNL     1     -11.251   7.595 130.072  0.00  0.00    +0.000 A 
ATOM      2  C   UNL     1     -11.947   7.079 131.167  0.00  0.00    +0.000 A 
ATOM      3  C   UNL     1     -11.283   6.293 132.107  0.00  0.00    +0.000 A 
ATOM      4  C   UNL     1      -9.923   6.009 131.952  0.00  0.00    +0.000 A 
ATOM      5  C   UNL     1      -9.201   6.499 130.852  0.00  0.00    +0.000 A 
ATOM      6  C   UNL     1      -9.887   7.289 129.911  0.00  0.00    +0.000 A 
ENDROOT
BRANCH   5   7
ATOM      7  C   UNL     1      -7.773   6.182 130.696  0.00  0.00    +0.000 A 
ATOM      8  C   UNL     1      -7.345   4.974 130.118  0.00  0.00    +0.000 A 
ATOM      9  F   UNL     1      -8.249   4.089 129.670  0.00  0.00    +0.000 F 
ATOM     10  C   UNL     1      -5.996   4.664 129.975  0.00  0.00    +0.000 A 
ATOM     11  C   UNL     1      -5.046   5.576 130.410  0.00  0.00    +0.000 A 
ATOM     12  F   UNL     1      -3.744   5.284 130.289  0.00  0.00    +0.000 F 
ATOM     13  C   UNL     1      -5.425   6.789 130.971  0.00  0.00    +0.000 A 
ATOM     14  C   UNL     1      -6.783   7.091 131.115  0.00  0.00    +0.000 A 
ENDBRANCH   5   7
BRANCH   1  15
ATOM     15  C   UNL     1     -11.910   8.412 129.029  0.00  0.00    +0.000 C 
ATOM     16  O   UNL     1     -13.104   8.666 129.045  0.00  0.00    +0.000 OA
BRANCH  15  17
ATOM     17  O   UNL     1     -11.064   8.878 128.084  0.00  0.00    +0.000 OA
ATOM     18  H   UNL     1     -10.278   8.319 127.908  0.00  0.00    +0.000 HD
ENDBRANCH  15  17
ENDBRANCH   1  15
BRANCH   2  19
ATOM     19  O   UNL     1     -13.280   7.293 131.392  0.00  0.00    +0.000 OA
ATOM     20  H   UNL     1     -13.820   6.795 130.749  0.00  0.00    +0.000 HD
ENDBRANCH   2  19
TORSDOF 4
ENDMDL
MODEL 8
REMARK VINA RESULT:      -6.9      6.170      8.716
REMARK  Name = Diflunisal
REMARK  4 active torsions:
REMARK  status: ('A' for Active; 'I' for Inactive)
REMARK    1  A    between atoms: O_1  and  C_2
REMARK    2  A    between atoms: C_2  and  C_4
REMARK    3  A    between atoms: C_5  and  O_6
REMARK    4  A    between atoms: C_9  and  C_11
REMARK                            x       y       z     vdW  Elec       q    Type
REMARK                         _______ _______ _______ _____ _____    ______ ____
ROOT
ATOM      1  C   UNL     1      -9.290  -0.162 124.779  0.00  0.00    +0.000 A 
ATOM      2  C   UNL     1      -9.360  -1.008 123.670  0.00  0.00    +0.000 A 
ATOM      3  C   UNL     1      -8.821  -2.291 123.738  0.00  0.00    +0.000 A 
ATOM      4  C   UNL     1      -8.199  -2.733 124.910  0.00  0.00    +0.000 A 
ATOM      5  C   UNL     1      -8.097  -1.899 126.034  0.00  0.00    +0.000 A 
ATOM      6  C   UNL     1      -8.646  -0.605 125.948  0.00  0.00    +0.000 A 
ENDROOT
BRANCH   5   7
ATOM      7  C   UNL     1      -7.430  -2.372 127.257  0.00  0.00    +0.000 A 
ATOM      8  C   UNL     1      -8.085  -3.209 128.177  0.00  0.00    +0.000 A 
ATOM      9  F   UNL     1      -9.342  -3.615 127.936  0.00  0.00    +0.000 F 
ATOM     10  C   UNL     1      -7.463  -3.653 129.340  0.00  0.00    +0.000 A 
ATOM     11  C   UNL     1      -6.157  -3.264 129.596  0.00  0.00    +0.000 A 
ATOM     12  F   UNL     1      -5.552  -3.676 130.718  0.00  0.00    +0.000 F 
ATOM     13  C   UNL     1      -5.467  -2.452 128.704  0.00  0.00    +0.000 A 
ATOM     14  C   UNL     1      -6.100  -2.006 127.540  0.00  0.00    +0.000 A 
ENDBRANCH   5   7
BRANCH   1  15
ATOM     15  C   UNL     1      -9.821   1.219 124.755  0.00  0.00    +0.000 C 
ATOM     16  O   UNL     1      -9.220   2.166 125.237  0.00  0.00    +0.000 OA
BRANCH  15  17
ATOM     17  O   UNL     1     -11.007   1.338 124.120  0.00  0.00    +0.000 OA
ATOM     18  H   UNL     1     -10.959   1.402 123.143  0.00  0.00    +0.000 HD
ENDBRANCH  15  17
ENDBRANCH   1  15
BRANCH   2  19
ATOM     19  O   UNL     1      -9.936  -0.658 122.479  0.00  0.00    +0.000 OA
ATOM     20  H   UNL     1     -10.565  -1.346 122.187  0.00  0.00    +0.000 HD
ENDBRANCH   2  19
TORSDOF 4
ENDMDL
MODEL 9
REMARK VINA RESULT:      -6.9      4.333      6.573
REMARK  Name = Diflunisal
REMARK  4 active torsions:
REMARK  status: ('A' for Active; 'I' for Inactive)
REMARK    1  A    between atoms: O_1  and  C_2
REMARK    2  A    between atoms: C_2  and  C_4
REMARK    3  A    between atoms: C_5  and  O_6
REMARK    4  A    between atoms: C_9  and  C_11
REMARK                            x       y       z     vdW  Elec       q    Type
REMARK                         _______ _______ _______ _____ _____    ______ ____
ROOT
ATOM      1  C   UNL     1      -6.197   2.847 124.917  0.00  0.00    +0.000 A 
ATOM      2  C   UNL     1      -5.135   2.655 125.805  0.00  0.00    +0.000 A 
ATOM      3  C   UNL     1      -4.853   1.378 126.286  0.00  0.00    +0.000 A 
ATOM      4  C   UNL     1      -5.636   0.288 125.893  0.00  0.00    +0.000 A 
ATOM      5  C   UNL     1      -6.720   0.453 125.017  0.00  0.00    +0.000 A 
ATOM      6  C   UNL     1      -6.993   1.750 124.541  0.00  0.00    +0.000 A 
ENDROOT
BRANCH   5   7
ATOM      7  C   UNL     1      -7.542  -0.701 124.620  0.00  0.00    +0.000 A 
ATOM      8  C   UNL     1      -7.408  -1.301 123.356  0.00  0.00    +0.000 A 
ATOM      9  F   UNL     1      -6.495  -0.838 122.488  0.00  0.00    +0.000 F 
ATOM     10  C   UNL     1      -8.188  -2.387 122.971  0.00  0.00    +0.000 A 
ATOM     11  C   UNL     1      -9.121  -2.896 123.862  0.00  0.00    +0.000 A 
ATOM     12  F   UNL     1      -9.886  -3.933 123.499  0.00  0.00    +0.000 F 
ATOM     13  C   UNL     1      -9.274  -2.343 125.128  0.00  0.00    +0.000 A 
ATOM     14  C   UNL     1      -8.489  -1.249 125.506  0.00  0.00    +0.000 A 
ENDBRANCH   5   7
BRANCH   1  15
ATOM     15  C   UNL     1      -6.560   4.183 124.396  0.00  0.00    +0.000 C 
ATOM     16  O   UNL     1      -5.740   4.952 123.919  0.00  0.00    +0.000 OA
BRANCH  15  17
ATOM     17  O   UNL     1      -7.881   4.456 124.463  0.00  0.00    +0.000 OA
ATOM     18  H   UNL     1      -8.395   4.255 123.653  0.00  0.00    +0.000 HD
ENDBRANCH  15  17
ENDBRANCH   1  15
BRANCH   2  19
ATOM     19  O   UNL     1      -4.326   3.662 126.255  0.00  0.00    +0.000 OA
ATOM     20  H   UNL     1      -3.549   3.763 125.673  0.00  0.00    +0.000 HD
ENDBRANCH   2  19
TORSDOF 4
ENDMDL
