MODEL 1
REMARK VINA RESULT:     -11.9      0.000      0.000
REMARK  Name = Dihydroergocristine
REMARK  9 active torsions:
REMARK  status: ('A' for Active; 'I' for Inactive)
REMARK    1  A    between atoms: C_9  and  C_10
REMARK    2  A    between atoms: C_10  and  C_11
REMARK    3  A    between atoms: C_20  and  N_21
REMARK    4  A    between atoms: C_20  and  C_46
REMARK    5  A    between atoms: C_22  and  C_24
REMARK    6  A    between atoms: N_26  and  C_27
REMARK    7  A    between atoms: C_44  and  O_45
REMARK    8  A    between atoms: C_46  and  C_47
REMARK    9  A    between atoms: C_46  and  C_48
REMARK                            x       y       z     vdW  Elec       q    Type
REMARK                         _______ _______ _______ _____ _____    ______ ____
ROOT
ATOM      1  C   UNL     1      -8.161  -1.536 125.059  0.00  0.00    +0.000 C 
ATOM      2  C   UNL     1      -8.910  -2.869 125.238  0.00  0.00    +0.000 C 
ATOM      3  C   UNL     1      -9.377  -3.319 123.866  0.00  0.00    +0.000 C 
ATOM      4  C   UNL     1      -8.780  -2.359 122.874  0.00  0.00    +0.000 C 
ATOM      5  N   UNL     1      -8.284  -1.256 123.651  0.00  0.00    +0.000 N 
ATOM      6  C   UNL     1      -8.622   0.015 123.354  0.00  0.00    +0.000 C 
ATOM      7  O   UNL     1      -9.470   0.235 122.500  0.00  0.00    +0.000 OA
ATOM      8  C   UNL     1      -8.056   1.081 124.260  0.00  0.00    +0.000 C 
ATOM      9  N   UNL     1      -7.407   0.370 125.499  0.00  0.00    +0.000 N 
ATOM     10  C   UNL     1      -6.717   1.055 126.521  0.00  0.00    +0.000 C 
ATOM     11  O   UNL     1      -5.911   0.464 127.220  0.00  0.00    +0.000 OA
ATOM     12  C   UNL     1      -6.915   2.534 126.405  0.00  0.00    +0.000 C 
ATOM     13  O   UNL     1      -8.485   1.530 126.457  0.00  0.00    +0.000 OA
ATOM     14  C   UNL     1      -8.491  -0.180 126.164  0.00  0.00    +0.000 C 
ENDROOT
BRANCH  12  15
ATOM     15  N   UNL     1      -6.531   3.905 127.109  0.00  0.00    +0.000 N 
ATOM     16  C   UNL     1      -7.940   4.643 127.536  0.00  0.00    +0.000 C 
ATOM     17  O   UNL     1      -8.611   4.885 126.526  0.00  0.00    +0.000 OA
ATOM     18  H   UNL     1      -5.889   3.685 127.975  0.00  0.00    +0.000 HD
BRANCH  16  19
ATOM     19  C   UNL     1      -8.772   4.852 129.258  0.00  0.00    +0.000 C 
ATOM     20  C   UNL     1      -8.577   3.586 130.044  0.00  0.00    +0.000 C 
ATOM     21  N   UNL     1      -9.378   3.662 131.287  0.00  0.00    +0.000 NA
ATOM     22  C   UNL     1      -9.137   2.460 132.032  0.00  0.00    +0.000 C 
ATOM     23  C   UNL     1      -9.041   4.823 132.342  0.00  0.00    +0.000 C 
ATOM     24  C   UNL     1      -8.051   4.887 133.304  0.00  0.00    +0.000 C 
ATOM     25  C   UNL     1      -7.537   4.027 134.323  0.00  0.00    +0.000 A 
ATOM     26  C   UNL     1      -6.508   3.437 133.578  0.00  0.00    +0.000 A 
ATOM     27  N   UNL     1      -6.491   2.511 134.538  0.00  0.00    +0.000 N 
ATOM     28  C   UNL     1      -5.656   3.002 135.406  0.00  0.00    +0.000 A 
ATOM     29  C   UNL     1      -4.535   2.247 135.756  0.00  0.00    +0.000 A 
ATOM     30  C   UNL     1      -3.825   3.213 136.208  0.00  0.00    +0.000 A 
ATOM     31  C   UNL     1      -4.526   4.758 135.413  0.00  0.00    +0.000 A 
ATOM     32  C   UNL     1      -5.897   5.602 134.369  0.00  0.00    +0.000 A 
ATOM     33  C   UNL     1      -6.402   4.427 135.168  0.00  0.00    +0.000 A 
ATOM     34  C   UNL     1      -7.364   5.912 132.674  0.00  0.00    +0.000 C 
ATOM     35  C   UNL     1      -8.341   5.943 130.853  0.00  0.00    +0.000 C 
ATOM     36  H   UNL     1      -7.229   2.196 135.120  0.00  0.00    +0.000 HD
ENDBRANCH  16  19
ENDBRANCH  12  15
BRANCH  12  37
ATOM     37  C   UNL     1      -5.323   3.155 125.699  0.00  0.00    +0.000 C 
ATOM     38  C   UNL     1      -3.992   2.772 126.271  0.00  0.00    +0.000 C 
ATOM     39  C   UNL     1      -5.440   4.447 124.978  0.00  0.00    +0.000 C 
ENDBRANCH  12  37
BRANCH  14  40
ATOM     40  O   UNL     1      -8.324  -0.918 127.398  0.00  0.00    +0.000 OA
ATOM     41  H   UNL     1      -7.815  -1.758 127.298  0.00  0.00    +0.000 HD
ENDBRANCH  14  40
BRANCH   8  42
ATOM     42  C   UNL     1      -6.980   1.919 123.710  0.00  0.00    +0.000 C 
BRANCH  42  43
ATOM     43  C   UNL     1      -7.222   2.732 122.524  0.00  0.00    +0.000 A 
ATOM     44  C   UNL     1      -8.468   3.189 122.205  0.00  0.00    +0.000 A 
ATOM     45  C   UNL     1      -8.697   3.656 120.944  0.00  0.00    +0.000 A 
ATOM     46  C   UNL     1      -7.640   4.034 120.150  0.00  0.00    +0.000 A 
ATOM     47  C   UNL     1      -6.364   3.726 120.519  0.00  0.00    +0.000 A 
ATOM     48  C   UNL     1      -6.176   3.060 121.683  0.00  0.00    +0.000 A 
ENDBRANCH  42  43
ENDBRANCH   8  42
TORSDOF 6
ENDMDL
MODEL 2
REMARK VINA RESULT:     -11.7      2.295      3.037
REMARK  Name = Dihydroergocristine
REMARK  9 active torsions:
REMARK  status: ('A' for Active; 'I' for Inactive)
REMARK    1  A    between atoms: C_9  and  C_10
REMARK    2  A    between atoms: C_10  and  C_11
REMARK    3  A    between atoms: C_20  and  N_21
REMARK    4  A    between atoms: C_20  and  C_46
REMARK    5  A    between atoms: C_22  and  C_24
REMARK    6  A    between atoms: N_26  and  C_27
REMARK    7  A    between atoms: C_44  and  O_45
REMARK    8  A    between atoms: C_46  and  C_47
REMARK    9  A    between atoms: C_46  and  C_48
REMARK                            x       y       z     vdW  Elec       q    Type
REMARK                         _______ _______ _______ _____ _____    ______ ____
ROOT
ATOM      1  C   UNL     1      -8.159  -0.987 124.672  0.00  0.00    +0.000 C 
ATOM      2  C   UNL     1      -8.330  -2.512 124.539  0.00  0.00    +0.000 C 
ATOM      3  C   UNL     1      -8.975  -2.783 123.193  0.00  0.00    +0.000 C 
ATOM      4  C   UNL     1      -9.038  -1.464 122.473  0.00  0.00    +0.000 C 
ATOM      5  N   UNL     1      -8.753  -0.466 123.466  0.00  0.00    +0.000 N 
ATOM      6  C   UNL     1      -9.570   0.591 123.650  0.00  0.00    +0.000 C 
ATOM      7  O   UNL     1     -10.642   0.639 123.064  0.00  0.00    +0.000 OA
ATOM      8  C   UNL     1      -9.173   1.555 124.741  0.00  0.00    +0.000 C 
ATOM      9  N   UNL     1      -8.007   0.904 125.564  0.00  0.00    +0.000 N 
ATOM     10  C   UNL     1      -7.338   1.554 126.621  0.00  0.00    +0.000 C 
ATOM     11  O   UNL     1      -6.220   1.196 126.953  0.00  0.00    +0.000 OA
ATOM     12  C   UNL     1      -8.050   2.810 127.017  0.00  0.00    +0.000 C 
ATOM     13  O   UNL     1      -9.107   1.273 127.006  0.00  0.00    +0.000 OA
ATOM     14  C   UNL     1      -8.612  -0.174 126.189  0.00  0.00    +0.000 C 
ENDROOT
BRANCH  12  15
ATOM     15  N   UNL     1      -7.976   4.017 128.047  0.00  0.00    +0.000 N 
ATOM     16  C   UNL     1      -8.522   3.454 129.495  0.00  0.00    +0.000 C 
ATOM     17  O   UNL     1      -9.699   3.088 129.388  0.00  0.00    +0.000 OA
ATOM     18  H   UNL     1      -6.937   4.371 128.096  0.00  0.00    +0.000 HD
BRANCH  16  19
ATOM     19  C   UNL     1      -7.567   3.000 131.102  0.00  0.00    +0.000 C 
ATOM     20  C   UNL     1      -6.118   2.799 130.761  0.00  0.00    +0.000 C 
ATOM     21  N   UNL     1      -5.413   2.260 131.946  0.00  0.00    +0.000 NA
ATOM     22  C   UNL     1      -4.029   2.120 131.602  0.00  0.00    +0.000 C 
ATOM     23  C   UNL     1      -5.372   3.151 133.280  0.00  0.00    +0.000 C 
ATOM     24  C   UNL     1      -4.548   4.208 133.615  0.00  0.00    +0.000 C 
ATOM     25  C   UNL     1      -3.147   4.485 133.574  0.00  0.00    +0.000 A 
ATOM     26  C   UNL     1      -3.107   5.102 132.318  0.00  0.00    +0.000 A 
ATOM     27  N   UNL     1      -1.792   4.891 132.376  0.00  0.00    +0.000 N 
ATOM     28  C   UNL     1      -1.348   5.957 132.974  0.00  0.00    +0.000 A 
ATOM     29  C   UNL     1      -0.392   6.740 132.324  0.00  0.00    +0.000 A 
ATOM     30  C   UNL     1      -0.590   7.818 132.988  0.00  0.00    +0.000 A 
ATOM     31  C   UNL     1      -2.322   7.663 133.685  0.00  0.00    +0.000 A 
ATOM     32  C   UNL     1      -3.881   6.592 134.010  0.00  0.00    +0.000 A 
ATOM     33  C   UNL     1      -2.606   5.788 133.991  0.00  0.00    +0.000 A 
ATOM     34  C   UNL     1      -5.569   5.145 133.588  0.00  0.00    +0.000 C 
ATOM     35  C   UNL     1      -7.074   4.021 132.725  0.00  0.00    +0.000 C 
ATOM     36  H   UNL     1      -1.291   4.173 132.840  0.00  0.00    +0.000 HD
ENDBRANCH  16  19
ENDBRANCH  12  15
BRANCH  12  37
ATOM     37  C   UNL     1      -7.024   4.166 126.292  0.00  0.00    +0.000 C 
ATOM     38  C   UNL     1      -5.608   4.412 126.719  0.00  0.00    +0.000 C 
ATOM     39  C   UNL     1      -7.811   5.303 125.754  0.00  0.00    +0.000 C 
ENDBRANCH  12  37
BRANCH  14  40
ATOM     40  O   UNL     1      -7.872  -1.044 127.079  0.00  0.00    +0.000 OA
ATOM     41  H   UNL     1      -8.019  -2.007 126.914  0.00  0.00    +0.000 HD
ENDBRANCH  14  40
BRANCH   8  42
ATOM     42  C   UNL     1      -8.642   2.859 124.316  0.00  0.00    +0.000 C 
BRANCH  42  43
ATOM     43  C   UNL     1      -7.965   2.987 123.031  0.00  0.00    +0.000 A 
ATOM     44  C   UNL     1      -6.634   2.721 122.887  0.00  0.00    +0.000 A 
ATOM     45  C   UNL     1      -5.991   3.161 121.767  0.00  0.00    +0.000 A 
ATOM     46  C   UNL     1      -6.716   3.496 120.647  0.00  0.00    +0.000 A 
ATOM     47  C   UNL     1      -8.071   3.620 120.721  0.00  0.00    +0.000 A 
ATOM     48  C   UNL     1      -8.672   3.389 121.914  0.00  0.00    +0.000 A 
ENDBRANCH  42  43
ENDBRANCH   8  42
TORSDOF 6
ENDMDL
MODEL 3
REMARK VINA RESULT:     -11.6      3.509     10.270
REMARK  Name = Dihydroergocristine
REMARK  9 active torsions:
REMARK  status: ('A' for Active; 'I' for Inactive)
REMARK    1  A    between atoms: C_9  and  C_10
REMARK    2  A    between atoms: C_10  and  C_11
REMARK    3  A    between atoms: C_20  and  N_21
REMARK    4  A    between atoms: C_20  and  C_46
REMARK    5  A    between atoms: C_22  and  C_24
REMARK    6  A    between atoms: N_26  and  C_27
REMARK    7  A    between atoms: C_44  and  O_45
REMARK    8  A    between atoms: C_46  and  C_47
REMARK    9  A    between atoms: C_46  and  C_48
REMARK                            x       y       z     vdW  Elec       q    Type
REMARK                         _______ _______ _______ _____ _____    ______ ____
ROOT
ATOM      1  C   UNL     1      -5.427   4.660 133.357  0.00  0.00    +0.000 C 
ATOM      2  C   UNL     1      -6.332   3.979 134.400  0.00  0.00    +0.000 C 
ATOM      3  C   UNL     1      -5.437   3.458 135.509  0.00  0.00    +0.000 C 
ATOM      4  C   UNL     1      -4.050   3.959 135.213  0.00  0.00    +0.000 C 
ATOM      5  N   UNL     1      -4.095   4.450 133.864  0.00  0.00    +0.000 N 
ATOM      6  C   UNL     1      -3.198   4.043 132.943  0.00  0.00    +0.000 C 
ATOM      7  O   UNL     1      -2.415   3.142 133.212  0.00  0.00    +0.000 OA
ATOM      8  C   UNL     1      -3.366   4.612 131.555  0.00  0.00    +0.000 C 
ATOM      9  N   UNL     1      -4.746   5.356 131.500  0.00  0.00    +0.000 N 
ATOM     10  C   UNL     1      -5.205   6.072 130.375  0.00  0.00    +0.000 C 
ATOM     11  O   UNL     1      -6.054   6.938 130.502  0.00  0.00    +0.000 OA
ATOM     12  C   UNL     1      -4.343   5.805 129.181  0.00  0.00    +0.000 C 
ATOM     13  O   UNL     1      -5.022   4.284 130.018  0.00  0.00    +0.000 OA
ATOM     14  C   UNL     1      -5.673   4.334 131.625  0.00  0.00    +0.000 C 
ENDROOT
BRANCH  12  15
ATOM     15  N   UNL     1      -4.192   6.169 127.642  0.00  0.00    +0.000 N 
ATOM     16  C   UNL     1      -4.605   4.826 126.783  0.00  0.00    +0.000 C 
ATOM     17  O   UNL     1      -3.832   3.899 127.054  0.00  0.00    +0.000 OA
ATOM     18  H   UNL     1      -4.842   7.028 127.421  0.00  0.00    +0.000 HD
BRANCH  16  19
ATOM     19  C   UNL     1      -6.190   4.427 125.768  0.00  0.00    +0.000 C 
ATOM     20  C   UNL     1      -5.830   3.464 124.672  0.00  0.00    +0.000 C 
ATOM     21  N   UNL     1      -6.993   3.305 123.769  0.00  0.00    +0.000 NA
ATOM     22  C   UNL     1      -6.633   2.350 122.762  0.00  0.00    +0.000 C 
ATOM     23  C   UNL     1      -8.353   2.704 124.376  0.00  0.00    +0.000 C 
ATOM     24  C   UNL     1      -8.712   1.393 124.619  0.00  0.00    +0.000 C 
ATOM     25  C   UNL     1      -8.668   0.156 123.905  0.00  0.00    +0.000 A 
ATOM     26  C   UNL     1      -7.430  -0.297 124.378  0.00  0.00    +0.000 A 
ATOM     27  N   UNL     1      -7.471  -1.148 123.352  0.00  0.00    +0.000 N 
ATOM     28  C   UNL     1      -8.097  -2.175 123.845  0.00  0.00    +0.000 A 
ATOM     29  C   UNL     1      -7.462  -3.419 123.823  0.00  0.00    +0.000 A 
ATOM     30  C   UNL     1      -8.160  -3.971 124.745  0.00  0.00    +0.000 A 
ATOM     31  C   UNL     1      -8.866  -2.556 125.749  0.00  0.00    +0.000 A 
ATOM     32  C   UNL     1      -9.172  -0.673 125.962  0.00  0.00    +0.000 A 
ATOM     33  C   UNL     1      -9.118  -1.103 124.518  0.00  0.00    +0.000 A 
ATOM     34  C   UNL     1      -8.721   1.544 125.996  0.00  0.00    +0.000 C 
ATOM     35  C   UNL     1      -7.838   3.405 126.166  0.00  0.00    +0.000 C 
ATOM     36  H   UNL     1      -7.909  -1.046 122.469  0.00  0.00    +0.000 HD
ENDBRANCH  16  19
ENDBRANCH  12  15
BRANCH  12  37
ATOM     37  C   UNL     1      -3.309   7.329 129.014  0.00  0.00    +0.000 C 
ATOM     38  C   UNL     1      -3.871   8.703 129.224  0.00  0.00    +0.000 C 
ATOM     39  C   UNL     1      -2.133   7.172 128.123  0.00  0.00    +0.000 C 
ENDBRANCH  12  37
BRANCH  14  40
ATOM     40  O   UNL     1      -7.096   4.598 131.599  0.00  0.00    +0.000 OA
ATOM     41  H   UNL     1      -7.639   3.915 132.062  0.00  0.00    +0.000 HD
ENDBRANCH  14  40
BRANCH   8  42
ATOM     42  C   UNL     1      -2.386   5.621 131.125  0.00  0.00    +0.000 C 
BRANCH  42  43
ATOM     43  C   UNL     1      -1.857   6.580 132.088  0.00  0.00    +0.000 A 
ATOM     44  C   UNL     1      -2.600   7.633 132.538  0.00  0.00    +0.000 A 
ATOM     45  C   UNL     1      -1.967   8.664 133.169  0.00  0.00    +0.000 A 
ATOM     46  C   UNL     1      -0.710   8.479 133.695  0.00  0.00    +0.000 A 
ATOM     47  C   UNL     1       0.002   7.358 133.386  0.00  0.00    +0.000 A 
ATOM     48  C   UNL     1      -0.570   6.440 132.570  0.00  0.00    +0.000 A 
ENDBRANCH  42  43
ENDBRANCH   8  42
TORSDOF 6
ENDMDL
MODEL 4
REMARK VINA RESULT:     -11.5      3.425      6.810
REMARK  Name = Dihydroergocristine
REMARK  9 active torsions:
REMARK  status: ('A' for Active; 'I' for Inactive)
REMARK    1  A    between atoms: C_9  and  C_10
REMARK    2  A    between atoms: C_10  and  C_11
REMARK    3  A    between atoms: C_20  and  N_21
REMARK    4  A    between atoms: C_20  and  C_46
REMARK    5  A    between atoms: C_22  and  C_24
REMARK    6  A    between atoms: N_26  and  C_27
REMARK    7  A    between atoms: C_44  and  O_45
REMARK    8  A    between atoms: C_46  and  C_47
REMARK    9  A    between atoms: C_46  and  C_48
REMARK                            x       y       z     vdW  Elec       q    Type
REMARK                         _______ _______ _______ _____ _____    ______ ____
ROOT
ATOM      1  C   UNL     1      -8.502  -0.247 125.315  0.00  0.00    +0.000 C 
ATOM      2  C   UNL     1      -8.831   0.171 123.869  0.00  0.00    +0.000 C 
ATOM      3  C   UNL     1      -9.047  -1.098 123.066  0.00  0.00    +0.000 C 
ATOM      4  C   UNL     1      -9.008  -2.238 124.046  0.00  0.00    +0.000 C 
ATOM      5  N   UNL     1      -8.480  -1.686 125.263  0.00  0.00    +0.000 N 
ATOM      6  C   UNL     1      -7.435  -2.259 125.894  0.00  0.00    +0.000 C 
ATOM      7  O   UNL     1      -6.833  -3.181 125.361  0.00  0.00    +0.000 OA
ATOM      8  C   UNL     1      -6.959  -1.569 127.149  0.00  0.00    +0.000 C 
ATOM      9  N   UNL     1      -7.679  -0.179 127.242  0.00  0.00    +0.000 N 
ATOM     10  C   UNL     1      -7.528   0.710 128.326  0.00  0.00    +0.000 C 
ATOM     11  O   UNL     1      -8.377   1.557 128.549  0.00  0.00    +0.000 OA
ATOM     12  C   UNL     1      -6.411   0.278 129.223  0.00  0.00    +0.000 C 
ATOM     13  O   UNL     1      -5.952   0.462 127.425  0.00  0.00    +0.000 OA
ATOM     14  C   UNL     1      -7.153   0.532 126.175  0.00  0.00    +0.000 C 
ENDROOT
BRANCH  12  15
ATOM     15  N   UNL     1      -5.635   0.698 130.544  0.00  0.00    +0.000 N 
ATOM     16  C   UNL     1      -5.492   2.339 130.523  0.00  0.00    +0.000 C 
ATOM     17  O   UNL     1      -4.830   2.690 129.539  0.00  0.00    +0.000 OA
ATOM     18  H   UNL     1      -6.203   0.334 131.413  0.00  0.00    +0.000 HD
BRANCH  16  19
ATOM     19  C   UNL     1      -6.421   3.689 131.530  0.00  0.00    +0.000 C 
ATOM     20  C   UNL     1      -6.455   4.955 130.721  0.00  0.00    +0.000 C 
ATOM     21  N   UNL     1      -6.990   6.050 131.562  0.00  0.00    +0.000 NA
ATOM     22  C   UNL     1      -7.050   7.231 130.751  0.00  0.00    +0.000 C 
ATOM     23  C   UNL     1      -8.486   5.917 132.128  0.00  0.00    +0.000 C 
ATOM     24  C   UNL     1      -9.695   6.173 131.510  0.00  0.00    +0.000 C 
ATOM     25  C   UNL     1     -10.254   7.227 130.722  0.00  0.00    +0.000 A 
ATOM     26  C   UNL     1      -9.934   6.714 129.458  0.00  0.00    +0.000 A 
ATOM     27  N   UNL     1     -10.174   7.949 129.016  0.00  0.00    +0.000 N 
ATOM     28  C   UNL     1     -11.449   7.929 128.762  0.00  0.00    +0.000 A 
ATOM     29  C   UNL     1     -11.879   8.237 127.470  0.00  0.00    +0.000 A 
ATOM     30  C   UNL     1     -13.030   7.678 127.546  0.00  0.00    +0.000 A 
ATOM     31  C   UNL     1     -12.878   6.414 128.920  0.00  0.00    +0.000 A 
ATOM     32  C   UNL     1     -11.870   5.666 130.373  0.00  0.00    +0.000 A 
ATOM     33  C   UNL     1     -11.616   7.139 130.174  0.00  0.00    +0.000 A 
ATOM     34  C   UNL     1     -10.087   4.845 131.497  0.00  0.00    +0.000 C 
ATOM     35  C   UNL     1      -8.315   3.935 132.051  0.00  0.00    +0.000 C 
ATOM     36  H   UNL     1     -10.073   8.816 129.487  0.00  0.00    +0.000 HD
ENDBRANCH  16  19
ENDBRANCH  12  15
BRANCH  12  37
ATOM     37  C   UNL     1      -7.260  -0.462 130.689  0.00  0.00    +0.000 C 
ATOM     38  C   UNL     1      -8.638  -0.046 131.109  0.00  0.00    +0.000 C 
ATOM     39  C   UNL     1      -6.338  -1.004 131.717  0.00  0.00    +0.000 C 
ENDBRANCH  12  37
BRANCH  14  40
ATOM     40  O   UNL     1      -7.546   1.901 125.912  0.00  0.00    +0.000 OA
ATOM     41  H   UNL     1      -6.916   2.395 125.334  0.00  0.00    +0.000 HD
ENDBRANCH  14  40
BRANCH   8  42
ATOM     42  C   UNL     1      -7.265  -2.228 128.428  0.00  0.00    +0.000 C 
BRANCH  42  43
ATOM     43  C   UNL     1      -6.264  -3.071 129.072  0.00  0.00    +0.000 A 
ATOM     44  C   UNL     1      -6.606  -4.038 129.972  0.00  0.00    +0.000 A 
ATOM     45  C   UNL     1      -5.637  -4.565 130.775  0.00  0.00    +0.000 A 
ATOM     46  C   UNL     1      -4.313  -4.435 130.428  0.00  0.00    +0.000 A 
ATOM     47  C   UNL     1      -3.950  -3.587 129.423  0.00  0.00    +0.000 A 
ATOM     48  C   UNL     1      -4.924  -2.901 128.780  0.00  0.00    +0.000 A 
ENDBRANCH  42  43
ENDBRANCH   8  42
TORSDOF 6
ENDMDL
MODEL 5
REMARK VINA RESULT:     -11.4      2.687      3.345
REMARK  Name = Dihydroergocristine
REMARK  9 active torsions:
REMARK  status: ('A' for Active; 'I' for Inactive)
REMARK    1  A    between atoms: C_9  and  C_10
REMARK    2  A    between atoms: C_10  and  C_11
REMARK    3  A    between atoms: C_20  and  N_21
REMARK    4  A    between atoms: C_20  and  C_46
REMARK    5  A    between atoms: C_22  and  C_24
REMARK    6  A    between atoms: N_26  and  C_27
REMARK    7  A    between atoms: C_44  and  O_45
REMARK    8  A    between atoms: C_46  and  C_47
REMARK    9  A    between atoms: C_46  and  C_48
REMARK                            x       y       z     vdW  Elec       q    Type
REMARK                         _______ _______ _______ _____ _____    ______ ____
ROOT
ATOM      1  C   UNL     1      -8.251  -1.273 124.813  0.00  0.00    +0.000 C 
ATOM      2  C   UNL     1      -8.956  -2.633 124.972  0.00  0.00    +0.000 C 
ATOM      3  C   UNL     1      -9.375  -3.095 123.589  0.00  0.00    +0.000 C 
ATOM      4  C   UNL     1      -8.790  -2.111 122.613  0.00  0.00    +0.000 C 
ATOM      5  N   UNL     1      -8.352  -0.994 123.403  0.00  0.00    +0.000 N 
ATOM      6  C   UNL     1      -8.728   0.265 123.102  0.00  0.00    +0.000 C 
ATOM      7  O   UNL     1      -9.563   0.458 122.229  0.00  0.00    +0.000 OA
ATOM      8  C   UNL     1      -8.220   1.348 124.023  0.00  0.00    +0.000 C 
ATOM      9  N   UNL     1      -7.575   0.657 125.275  0.00  0.00    +0.000 N 
ATOM     10  C   UNL     1      -6.933   1.362 126.314  0.00  0.00    +0.000 C 
ATOM     11  O   UNL     1      -6.124   0.798 127.031  0.00  0.00    +0.000 OA
ATOM     12  C   UNL     1      -7.181   2.833 126.197  0.00  0.00    +0.000 C 
ATOM     13  O   UNL     1      -8.716   1.774 126.211  0.00  0.00    +0.000 OA
ATOM     14  C   UNL     1      -8.654   0.066 125.913  0.00  0.00    +0.000 C 
ENDROOT
BRANCH  12  15
ATOM     15  N   UNL     1      -6.862   4.215 126.913  0.00  0.00    +0.000 N 
ATOM     16  C   UNL     1      -7.478   4.125 128.438  0.00  0.00    +0.000 C 
ATOM     17  O   UNL     1      -8.704   3.972 128.388  0.00  0.00    +0.000 OA
ATOM     18  H   UNL     1      -5.773   4.369 126.906  0.00  0.00    +0.000 HD
BRANCH  16  19
ATOM     19  C   UNL     1      -6.596   3.896 130.133  0.00  0.00    +0.000 C 
ATOM     20  C   UNL     1      -7.415   2.964 130.980  0.00  0.00    +0.000 C 
ATOM     21  N   UNL     1      -6.852   2.936 132.349  0.00  0.00    +0.000 NA
ATOM     22  C   UNL     1      -7.628   2.008 133.119  0.00  0.00    +0.000 C 
ATOM     23  C   UNL     1      -5.349   2.410 132.545  0.00  0.00    +0.000 C 
ATOM     24  C   UNL     1      -4.863   1.118 132.617  0.00  0.00    +0.000 C 
ATOM     25  C   UNL     1      -5.208  -0.082 133.312  0.00  0.00    +0.000 A 
ATOM     26  C   UNL     1      -6.026  -0.649 132.326  0.00  0.00    +0.000 A 
ATOM     27  N   UNL     1      -6.468  -1.442 133.301  0.00  0.00    +0.000 N 
ATOM     28  C   UNL     1      -5.639  -2.443 133.267  0.00  0.00    +0.000 A 
ATOM     29  C   UNL     1      -6.149  -3.728 133.071  0.00  0.00    +0.000 A 
ATOM     30  C   UNL     1      -5.062  -4.271 132.662  0.00  0.00    +0.000 A 
ATOM     31  C   UNL     1      -4.007  -2.859 132.030  0.00  0.00    +0.000 A 
ATOM     32  C   UNL     1      -3.712  -0.971 131.848  0.00  0.00    +0.000 A 
ATOM     33  C   UNL     1      -4.462  -1.333 133.105  0.00  0.00    +0.000 A 
ATOM     34  C   UNL     1      -4.174   1.202 131.418  0.00  0.00    +0.000 C 
ATOM     35  C   UNL     1      -4.929   2.981 130.686  0.00  0.00    +0.000 C 
ATOM     36  H   UNL     1      -6.533  -1.265 134.275  0.00  0.00    +0.000 HD
ENDBRANCH  16  19
ENDBRANCH  12  15
BRANCH  12  37
ATOM     37  C   UNL     1      -5.597   3.513 125.530  0.00  0.00    +0.000 C 
ATOM     38  C   UNL     1      -4.268   3.199 126.150  0.00  0.00    +0.000 C 
ATOM     39  C   UNL     1      -5.747   4.786 124.782  0.00  0.00    +0.000 C 
ENDBRANCH  12  37
BRANCH  14  40
ATOM     40  O   UNL     1      -8.490  -0.669 127.150  0.00  0.00    +0.000 OA
ATOM     41  H   UNL     1      -7.561  -0.956 127.326  0.00  0.00    +0.000 HD
ENDBRANCH  14  40
BRANCH   8  42
ATOM     42  C   UNL     1      -7.162   2.225 123.500  0.00  0.00    +0.000 C 
BRANCH  42  43
ATOM     43  C   UNL     1      -7.379   2.975 122.268  0.00  0.00    +0.000 A 
ATOM     44  C   UNL     1      -8.623   3.379 121.879  0.00  0.00    +0.000 A 
ATOM     45  C   UNL     1      -8.814   3.779 120.589  0.00  0.00    +0.000 A 
ATOM     46  C   UNL     1      -7.735   4.151 119.820  0.00  0.00    +0.000 A 
ATOM     47  C   UNL     1      -6.468   3.900 120.253  0.00  0.00    +0.000 A 
ATOM     48  C   UNL     1      -6.309   3.294 121.455  0.00  0.00    +0.000 A 
ENDBRANCH  42  43
ENDBRANCH   8  42
TORSDOF 6
ENDMDL
MODEL 6
REMARK VINA RESULT:     -11.3      1.673      2.556
REMARK  Name = Dihydroergocristine
REMARK  9 active torsions:
REMARK  status: ('A' for Active; 'I' for Inactive)
REMARK    1  A    between atoms: C_9  and  C_10
REMARK    2  A    between atoms: C_10  and  C_11
REMARK    3  A    between atoms: C_20  and  N_21
REMARK    4  A    between atoms: C_20  and  C_46
REMARK    5  A    between atoms: C_22  and  C_24
REMARK    6  A    between atoms: N_26  and  C_27
REMARK    7  A    between atoms: C_44  and  O_45
REMARK    8  A    between atoms: C_46  and  C_47
REMARK    9  A    between atoms: C_46  and  C_48
REMARK                            x       y       z     vdW  Elec       q    Type
REMARK                         _______ _______ _______ _____ _____    ______ ____
ROOT
ATOM      1  C   UNL     1      -8.061  -1.033 124.445  0.00  0.00    +0.000 C 
ATOM      2  C   UNL     1      -8.412  -2.522 124.274  0.00  0.00    +0.000 C 
ATOM      3  C   UNL     1      -9.340  -2.638 123.079  0.00  0.00    +0.000 C 
ATOM      4  C   UNL     1      -9.410  -1.271 122.456  0.00  0.00    +0.000 C 
ATOM      5  N   UNL     1      -8.829  -0.376 123.418  0.00  0.00    +0.000 N 
ATOM      6  C   UNL     1      -9.479   0.735 123.821  0.00  0.00    +0.000 C 
ATOM      7  O   UNL     1     -10.637   0.922 123.474  0.00  0.00    +0.000 OA
ATOM      8  C   UNL     1      -8.773   1.580 124.853  0.00  0.00    +0.000 C 
ATOM      9  N   UNL     1      -7.538   0.769 125.381  0.00  0.00    +0.000 N 
ATOM     10  C   UNL     1      -6.605   1.279 126.308  0.00  0.00    +0.000 C 
ATOM     11  O   UNL     1      -5.486   0.799 126.381  0.00  0.00    +0.000 OA
ATOM     12  C   UNL     1      -7.090   2.562 126.906  0.00  0.00    +0.000 C 
ATOM     13  O   UNL     1      -8.279   1.133 127.037  0.00  0.00    +0.000 OA
ATOM     14  C   UNL     1      -8.112  -0.292 126.063  0.00  0.00    +0.000 C 
ENDROOT
BRANCH  12  15
ATOM     15  N   UNL     1      -6.685   3.682 127.958  0.00  0.00    +0.000 N 
ATOM     16  C   UNL     1      -7.680   3.508 129.259  0.00  0.00    +0.000 C 
ATOM     17  O   UNL     1      -8.855   3.685 128.916  0.00  0.00    +0.000 OA
ATOM     18  H   UNL     1      -5.624   3.551 128.217  0.00  0.00    +0.000 HD
BRANCH  16  19
ATOM     19  C   UNL     1      -7.337   2.790 131.011  0.00  0.00    +0.000 C 
ATOM     20  C   UNL     1      -6.033   3.346 131.511  0.00  0.00    +0.000 C 
ATOM     21  N   UNL     1      -5.664   2.651 132.767  0.00  0.00    +0.000 NA
ATOM     22  C   UNL     1      -4.442   3.232 133.240  0.00  0.00    +0.000 C 
ATOM     23  C   UNL     1      -6.647   2.783 134.028  0.00  0.00    +0.000 C 
ATOM     24  C   UNL     1      -6.771   3.802 134.953  0.00  0.00    +0.000 C 
ATOM     25  C   UNL     1      -5.887   4.587 135.757  0.00  0.00    +0.000 A 
ATOM     26  C   UNL     1      -5.729   5.665 134.876  0.00  0.00    +0.000 A 
ATOM     27  N   UNL     1      -4.671   5.980 135.623  0.00  0.00    +0.000 N 
ATOM     28  C   UNL     1      -5.178   6.739 136.549  0.00  0.00    +0.000 A 
ATOM     29  C   UNL     1      -4.675   8.033 136.702  0.00  0.00    +0.000 A 
ATOM     30  C   UNL     1      -5.683   8.524 137.323  0.00  0.00    +0.000 A 
ATOM     31  C   UNL     1      -7.126   7.413 136.886  0.00  0.00    +0.000 A 
ATOM     32  C   UNL     1      -7.784   5.800 136.079  0.00  0.00    +0.000 A 
ATOM     33  C   UNL     1      -6.388   5.657 136.633  0.00  0.00    +0.000 A 
ATOM     34  C   UNL     1      -8.037   4.171 134.529  0.00  0.00    +0.000 C 
ATOM     35  C   UNL     1      -8.172   3.073 132.783  0.00  0.00    +0.000 C 
ATOM     36  H   UNL     1      -4.074   5.388 136.149  0.00  0.00    +0.000 HD
ENDBRANCH  16  19
ENDBRANCH  12  15
BRANCH  12  37
ATOM     37  C   UNL     1      -6.096   3.869 126.054  0.00  0.00    +0.000 C 
ATOM     38  C   UNL     1      -4.603   3.939 126.167  0.00  0.00    +0.000 C 
ATOM     39  C   UNL     1      -6.846   5.118 125.774  0.00  0.00    +0.000 C 
ENDBRANCH  12  37
BRANCH  14  40
ATOM     40  O   UNL     1      -7.301  -1.286 126.734  0.00  0.00    +0.000 OA
ATOM     41  H   UNL     1      -7.116  -1.080 127.682  0.00  0.00    +0.000 HD
ENDBRANCH  14  40
BRANCH   8  42
ATOM     42  C   UNL     1      -8.206   2.857 124.394  0.00  0.00    +0.000 C 
BRANCH  42  43
ATOM     43  C   UNL     1      -7.746   2.997 123.017  0.00  0.00    +0.000 A 
ATOM     44  C   UNL     1      -6.452   2.748 122.660  0.00  0.00    +0.000 A 
ATOM     45  C   UNL     1      -6.001   3.198 121.454  0.00  0.00    +0.000 A 
ATOM     46  C   UNL     1      -6.900   3.530 120.467  0.00  0.00    +0.000 A 
ATOM     47  C   UNL     1      -8.227   3.637 120.758  0.00  0.00    +0.000 A 
ATOM     48  C   UNL     1      -8.626   3.395 122.030  0.00  0.00    +0.000 A 
ENDBRANCH  42  43
ENDBRANCH   8  42
TORSDOF 6
ENDMDL
MODEL 7
REMARK VINA RESULT:     -11.3      4.350      8.492
REMARK  Name = Dihydroergocristine
REMARK  9 active torsions:
REMARK  status: ('A' for Active; 'I' for Inactive)
REMARK    1  A    between atoms: C_9  and  C_10
REMARK    2  A    between atoms: C_10  and  C_11
REMARK    3  A    between atoms: C_20  and  N_21
REMARK    4  A    between atoms: C_20  and  C_46
REMARK    5  A    between atoms: C_22  and  C_24
REMARK    6  A    between atoms: N_26  and  C_27
REMARK    7  A    between atoms: C_44  and  O_45
REMARK    8  A    between atoms: C_46  and  C_47
REMARK    9  A    between atoms: C_46  and  C_48
REMARK                            x       y       z     vdW  Elec       q    Type
REMARK                         _______ _______ _______ _____ _____    ______ ____
ROOT
ATOM      1  C   UNL     1      -3.979   5.051 130.871  0.00  0.00    +0.000 C 
ATOM      2  C   UNL     1      -2.522   5.519 130.690  0.00  0.00    +0.000 C 
ATOM      3  C   UNL     1      -2.425   6.929 131.242  0.00  0.00    +0.000 C 
ATOM      4  C   UNL     1      -3.751   7.232 131.882  0.00  0.00    +0.000 C 
ATOM      5  N   UNL     1      -4.643   6.197 131.438  0.00  0.00    +0.000 N 
ATOM      6  C   UNL     1      -5.834   6.493 130.880  0.00  0.00    +0.000 C 
ATOM      7  O   UNL     1      -6.111   7.656 130.619  0.00  0.00    +0.000 OA
ATOM      8  C   UNL     1      -6.668   5.317 130.432  0.00  0.00    +0.000 C 
ATOM      9  N   UNL     1      -5.775   4.031 130.512  0.00  0.00    +0.000 N 
ATOM     10  C   UNL     1      -6.247   2.731 130.234  0.00  0.00    +0.000 C 
ATOM     11  O   UNL     1      -5.665   1.757 130.680  0.00  0.00    +0.000 OA
ATOM     12  C   UNL     1      -7.606   2.777 129.608  0.00  0.00    +0.000 C 
ATOM     13  O   UNL     1      -6.311   3.811 128.754  0.00  0.00    +0.000 OA
ATOM     14  C   UNL     1      -4.819   4.236 129.530  0.00  0.00    +0.000 C 
ENDROOT
BRANCH  12  15
ATOM     15  N   UNL     1      -8.744   1.837 129.021  0.00  0.00    +0.000 N 
ATOM     16  C   UNL     1      -8.008   0.749 128.026  0.00  0.00    +0.000 C 
ATOM     17  O   UNL     1      -7.454   1.340 127.093  0.00  0.00    +0.000 OA
ATOM     18  H   UNL     1      -9.267   1.355 129.859  0.00  0.00    +0.000 HD
BRANCH  16  19
ATOM     19  C   UNL     1      -7.629  -1.121 128.278  0.00  0.00    +0.000 C 
ATOM     20  C   UNL     1      -6.152  -1.286 128.498  0.00  0.00    +0.000 C 
ATOM     21  N   UNL     1      -5.823  -2.731 128.496  0.00  0.00    +0.000 NA
ATOM     22  C   UNL     1      -4.418  -2.856 128.750  0.00  0.00    +0.000 C 
ATOM     23  C   UNL     1      -6.485  -3.665 129.621  0.00  0.00    +0.000 C 
ATOM     24  C   UNL     1      -6.117  -3.865 130.937  0.00  0.00    +0.000 C 
ATOM     25  C   UNL     1      -4.906  -4.138 131.645  0.00  0.00    +0.000 A 
ATOM     26  C   UNL     1      -4.557  -2.816 131.949  0.00  0.00    +0.000 A 
ATOM     27  N   UNL     1      -3.344  -3.309 132.204  0.00  0.00    +0.000 N 
ATOM     28  C   UNL     1      -3.416  -3.636 133.460  0.00  0.00    +0.000 A 
ATOM     29  C   UNL     1      -2.504  -3.070 134.352  0.00  0.00    +0.000 A 
ATOM     30  C   UNL     1      -3.180  -3.272 135.422  0.00  0.00    +0.000 A 
ATOM     31  C   UNL     1      -4.957  -3.460 134.859  0.00  0.00    +0.000 A 
ATOM     32  C   UNL     1      -6.226  -3.653 133.432  0.00  0.00    +0.000 A 
ATOM     33  C   UNL     1      -4.880  -4.253 133.111  0.00  0.00    +0.000 A 
ATOM     34  C   UNL     1      -7.247  -3.253 131.453  0.00  0.00    +0.000 C 
ATOM     35  C   UNL     1      -8.020  -2.403 129.735  0.00  0.00    +0.000 C 
ATOM     36  H   UNL     1      -2.893  -4.100 131.812  0.00  0.00    +0.000 HD
ENDBRANCH  16  19
ENDBRANCH  12  15
BRANCH  12  37
ATOM     37  C   UNL     1      -8.754   2.285 130.972  0.00  0.00    +0.000 C 
ATOM     38  C   UNL     1      -8.494   1.094 131.844  0.00  0.00    +0.000 C 
ATOM     39  C   UNL     1     -10.156   2.729 130.777  0.00  0.00    +0.000 C 
ENDBRANCH  12  37
BRANCH  14  40
ATOM     40  O   UNL     1      -3.794   3.251 129.256  0.00  0.00    +0.000 OA
ATOM     41  H   UNL     1      -4.146   2.360 129.015  0.00  0.00    +0.000 HD
ENDBRANCH  14  40
BRANCH   8  42
ATOM     42  C   UNL     1      -7.853   4.995 131.241  0.00  0.00    +0.000 C 
BRANCH  42  43
ATOM     43  C   UNL     1      -9.065   5.796 131.112  0.00  0.00    +0.000 A 
ATOM     44  C   UNL     1      -9.887   6.035 132.174  0.00  0.00    +0.000 A 
ATOM     45  C   UNL     1     -11.148   6.501 131.940  0.00  0.00    +0.000 A 
ATOM     46  C   UNL     1     -11.448   7.091 130.735  0.00  0.00    +0.000 A 
ATOM     47  C   UNL     1     -10.573   7.002 129.693  0.00  0.00    +0.000 A 
ATOM     48  C   UNL     1      -9.410   6.337 129.888  0.00  0.00    +0.000 A 
ENDBRANCH  42  43
ENDBRANCH   8  42
TORSDOF 6
ENDMDL
MODEL 8
REMARK VINA RESULT:     -11.2      3.006      4.056
REMARK  Name = Dihydroergocristine
REMARK  9 active torsions:
REMARK  status: ('A' for Active; 'I' for Inactive)
REMARK    1  A    between atoms: C_9  and  C_10
REMARK    2  A    between atoms: C_10  and  C_11
REMARK    3  A    between atoms: C_20  and  N_21
REMARK    4  A    between atoms: C_20  and  C_46
REMARK    5  A    between atoms: C_22  and  C_24
REMARK    6  A    between atoms: N_26  and  C_27
REMARK    7  A    between atoms: C_44  and  O_45
REMARK    8  A    between atoms: C_46  and  C_47
REMARK    9  A    between atoms: C_46  and  C_48
REMARK                            x       y       z     vdW  Elec       q    Type
REMARK                         _______ _______ _______ _____ _____    ______ ____
ROOT
ATOM      1  C   UNL     1      -7.974  -0.883 124.691  0.00  0.00    +0.000 C 
ATOM      2  C   UNL     1      -8.249  -2.395 124.592  0.00  0.00    +0.000 C 
ATOM      3  C   UNL     1      -9.016  -2.636 123.305  0.00  0.00    +0.000 C 
ATOM      4  C   UNL     1      -9.055  -1.321 122.576  0.00  0.00    +0.000 C 
ATOM      5  N   UNL     1      -8.629  -0.335 123.531  0.00  0.00    +0.000 N 
ATOM      6  C   UNL     1      -9.362   0.772 123.766  0.00  0.00    +0.000 C 
ATOM      7  O   UNL     1     -10.473   0.883 123.267  0.00  0.00    +0.000 OA
ATOM      8  C   UNL     1      -8.820   1.718 124.810  0.00  0.00    +0.000 C 
ATOM      9  N   UNL     1      -7.634   1.001 125.544  0.00  0.00    +0.000 N 
ATOM     10  C   UNL     1      -6.842   1.616 126.536  0.00  0.00    +0.000 C 
ATOM     11  O   UNL     1      -5.725   1.191 126.782  0.00  0.00    +0.000 OA
ATOM     12  C   UNL     1      -7.441   2.916 126.972  0.00  0.00    +0.000 C 
ATOM     13  O   UNL     1      -8.588   1.449 127.065  0.00  0.00    +0.000 OA
ATOM     14  C   UNL     1      -8.251  -0.033 126.229  0.00  0.00    +0.000 C 
ENDROOT
BRANCH  12  15
ATOM     15  N   UNL     1      -7.210   4.124 127.977  0.00  0.00    +0.000 N 
ATOM     16  C   UNL     1      -6.513   3.501 129.333  0.00  0.00    +0.000 C 
ATOM     17  O   UNL     1      -7.275   2.680 129.859  0.00  0.00    +0.000 OA
ATOM     18  H   UNL     1      -6.575   4.874 127.483  0.00  0.00    +0.000 HD
BRANCH  16  19
ATOM     19  C   UNL     1      -4.699   3.601 129.968  0.00  0.00    +0.000 C 
ATOM     20  C   UNL     1      -4.155   4.967 129.657  0.00  0.00    +0.000 C 
ATOM     21  N   UNL     1      -2.706   4.989 129.961  0.00  0.00    +0.000 NA
ATOM     22  C   UNL     1      -2.227   6.314 129.696  0.00  0.00    +0.000 C 
ATOM     23  C   UNL     1      -2.240   4.726 131.474  0.00  0.00    +0.000 C 
ATOM     24  C   UNL     1      -2.198   5.589 132.552  0.00  0.00    +0.000 C 
ATOM     25  C   UNL     1      -1.725   6.914 132.802  0.00  0.00    +0.000 A 
ATOM     26  C   UNL     1      -2.920   7.598 132.546  0.00  0.00    +0.000 A 
ATOM     27  N   UNL     1      -2.154   8.686 132.462  0.00  0.00    +0.000 N 
ATOM     28  C   UNL     1      -2.110   9.111 133.690  0.00  0.00    +0.000 A 
ATOM     29  C   UNL     1      -2.546  10.409 133.964  0.00  0.00    +0.000 A 
ATOM     30  C   UNL     1      -2.760  10.244 135.217  0.00  0.00    +0.000 A 
ATOM     31  C   UNL     1      -2.993   8.400 135.443  0.00  0.00    +0.000 A 
ATOM     32  C   UNL     1      -2.909   6.623 134.722  0.00  0.00    +0.000 A 
ATOM     33  C   UNL     1      -1.892   7.556 134.115  0.00  0.00    +0.000 A 
ATOM     34  C   UNL     1      -3.200   4.932 133.247  0.00  0.00    +0.000 C 
ATOM     35  C   UNL     1      -3.892   3.657 131.774  0.00  0.00    +0.000 C 
ATOM     36  H   UNL     1      -1.206   8.766 132.183  0.00  0.00    +0.000 HD
ENDBRANCH  16  19
ENDBRANCH  12  15
BRANCH  12  37
ATOM     37  C   UNL     1      -6.395   4.200 126.151  0.00  0.00    +0.000 C 
ATOM     38  C   UNL     1      -6.986   5.323 125.352  0.00  0.00    +0.000 C 
ATOM     39  C   UNL     1      -5.018   3.749 125.829  0.00  0.00    +0.000 C 
ENDBRANCH  12  37
BRANCH  14  40
ATOM     40  O   UNL     1      -7.497  -0.940 127.068  0.00  0.00    +0.000 OA
ATOM     41  H   UNL     1      -7.440  -0.659 128.013  0.00  0.00    +0.000 HD
ENDBRANCH  14  40
BRANCH   8  42
ATOM     42  C   UNL     1      -8.244   2.982 124.327  0.00  0.00    +0.000 C 
BRANCH  42  43
ATOM     43  C   UNL     1      -7.735   3.079 122.964  0.00  0.00    +0.000 A 
ATOM     44  C   UNL     1      -6.447   2.753 122.651  0.00  0.00    +0.000 A 
ATOM     45  C   UNL     1      -5.935   3.163 121.454  0.00  0.00    +0.000 A 
ATOM     46  C   UNL     1      -6.783   3.530 120.435  0.00  0.00    +0.000 A 
ATOM     47  C   UNL     1      -8.111   3.714 120.684  0.00  0.00    +0.000 A 
ATOM     48  C   UNL     1      -8.562   3.512 121.945  0.00  0.00    +0.000 A 
ENDBRANCH  42  43
ENDBRANCH   8  42
TORSDOF 6
ENDMDL
MODEL 9
REMARK VINA RESULT:     -11.2      3.863      6.166
REMARK  Name = Dihydroergocristine
REMARK  9 active torsions:
REMARK  status: ('A' for Active; 'I' for Inactive)
REMARK    1  A    between atoms: C_9  and  C_10
REMARK    2  A    between atoms: C_10  and  C_11
REMARK    3  A    between atoms: C_20  and  N_21
REMARK    4  A    between atoms: C_20  and  C_46
REMARK    5  A    between atoms: C_22  and  C_24
REMARK    6  A    between atoms: N_26  and  C_27
REMARK    7  A    between atoms: C_44  and  O_45
REMARK    8  A    between atoms: C_46  and  C_47
REMARK    9  A    between atoms: C_46  and  C_48
REMARK                            x       y       z     vdW  Elec       q    Type
REMARK                         _______ _______ _______ _____ _____    ______ ____
ROOT
ATOM      1  C   UNL     1      -8.825  -0.223 125.032  0.00  0.00    +0.000 C 
ATOM      2  C   UNL     1      -9.160   0.026 123.549  0.00  0.00    +0.000 C 
ATOM      3  C   UNL     1      -9.184  -1.323 122.854  0.00  0.00    +0.000 C 
ATOM      4  C   UNL     1      -9.026  -2.363 123.929  0.00  0.00    +0.000 C 
ATOM      5  N   UNL     1      -8.613  -1.647 125.104  0.00  0.00    +0.000 N 
ATOM      6  C   UNL     1      -7.522  -2.021 125.803  0.00  0.00    +0.000 C 
ATOM      7  O   UNL     1      -6.789  -2.896 125.363  0.00  0.00    +0.000 OA
ATOM      8  C   UNL     1      -7.180  -1.173 127.004  0.00  0.00    +0.000 C 
ATOM      9  N   UNL     1      -8.078   0.113 126.962  0.00  0.00    +0.000 N 
ATOM     10  C   UNL     1      -8.078   1.100 127.968  0.00  0.00    +0.000 C 
ATOM     11  O   UNL     1      -9.036   1.842 128.101  0.00  0.00    +0.000 OA
ATOM     12  C   UNL     1      -6.941   0.896 128.921  0.00  0.00    +0.000 C 
ATOM     13  O   UNL     1      -6.456   0.989 127.123  0.00  0.00    +0.000 OA
ATOM     14  C   UNL     1      -7.616   0.796 125.849  0.00  0.00    +0.000 C 
ENDROOT
BRANCH  12  15
ATOM     15  N   UNL     1      -6.269   1.522 130.216  0.00  0.00    +0.000 N 
ATOM     16  C   UNL     1      -4.882   2.266 129.732  0.00  0.00    +0.000 C 
ATOM     17  O   UNL     1      -4.109   1.436 129.239  0.00  0.00    +0.000 OA
ATOM     18  H   UNL     1      -6.983   2.220 130.678  0.00  0.00    +0.000 HD
BRANCH  16  19
ATOM     19  C   UNL     1      -4.470   4.134 129.524  0.00  0.00    +0.000 C 
ATOM     20  C   UNL     1      -5.009   4.881 130.711  0.00  0.00    +0.000 C 
ATOM     21  N   UNL     1      -4.872   6.336 130.467  0.00  0.00    +0.000 NA
ATOM     22  C   UNL     1      -5.355   7.018 131.633  0.00  0.00    +0.000 C 
ATOM     23  C   UNL     1      -3.399   6.941 130.271  0.00  0.00    +0.000 C 
ATOM     24  C   UNL     1      -2.450   7.290 131.212  0.00  0.00    +0.000 C 
ATOM     25  C   UNL     1      -2.424   8.035 132.432  0.00  0.00    +0.000 A 
ATOM     26  C   UNL     1      -2.630   6.968 133.315  0.00  0.00    +0.000 A 
ATOM     27  N   UNL     1      -2.936   7.909 134.209  0.00  0.00    +0.000 N 
ATOM     28  C   UNL     1      -1.784   8.197 134.740  0.00  0.00    +0.000 A 
ATOM     29  C   UNL     1      -1.629   8.056 136.120  0.00  0.00    +0.000 A 
ATOM     30  C   UNL     1      -0.350   7.983 136.132  0.00  0.00    +0.000 A 
ATOM     31  C   UNL     1       0.132   7.436 134.407  0.00  0.00    +0.000 A 
ATOM     32  C   UNL     1      -0.364   7.085 132.586  0.00  0.00    +0.000 A 
ATOM     33  C   UNL     1      -1.193   8.170 133.225  0.00  0.00    +0.000 A 
ATOM     34  C   UNL     1      -1.571   6.283 130.848  0.00  0.00    +0.000 C 
ATOM     35  C   UNL     1      -2.785   5.172 129.598  0.00  0.00    +0.000 C 
ATOM     36  H   UNL     1      -3.325   8.809 134.066  0.00  0.00    +0.000 HD
ENDBRANCH  16  19
ENDBRANCH  12  15
BRANCH  12  37
ATOM     37  C   UNL     1      -7.732   0.173 130.428  0.00  0.00    +0.000 C 
ATOM     38  C   UNL     1      -8.995   0.729 131.013  0.00  0.00    +0.000 C 
ATOM     39  C   UNL     1      -6.792  -0.546 131.323  0.00  0.00    +0.000 C 
ENDBRANCH  12  37
BRANCH  14  40
ATOM     40  O   UNL     1      -8.176   2.074 125.461  0.00  0.00    +0.000 OA
ATOM     41  H   UNL     1      -9.050   2.007 125.006  0.00  0.00    +0.000 HD
ENDBRANCH  14  40
BRANCH   8  42
ATOM     42  C   UNL     1      -7.436  -1.759 128.328  0.00  0.00    +0.000 C 
BRANCH  42  43
ATOM     43  C   UNL     1      -6.488  -2.707 128.902  0.00  0.00    +0.000 A 
ATOM     44  C   UNL     1      -6.895  -3.751 129.681  0.00  0.00    +0.000 A 
ATOM     45  C   UNL     1      -5.972  -4.401 130.447  0.00  0.00    +0.000 A 
ATOM     46  C   UNL     1      -4.633  -4.288 130.152  0.00  0.00    +0.000 A 
ATOM     47  C   UNL     1      -4.207  -3.352 129.257  0.00  0.00    +0.000 A 
ATOM     48  C   UNL     1      -5.135  -2.561 128.666  0.00  0.00    +0.000 A 
ENDBRANCH  42  43
ENDBRANCH   8  42
TORSDOF 6
ENDMDL
