MODEL 1
REMARK VINA RESULT:     -10.1      0.000      0.000
REMARK  Name = Dihydro-alpha-ergocryptine
REMARK  11 active torsions:
REMARK  status: ('A' for Active; 'I' for Inactive)
REMARK    1  A    between atoms: C_9  and  C_10
REMARK    2  A    between atoms: C_10  and  C_11
REMARK    3  A    between atoms: C_11  and  C_12
REMARK    4  A    between atoms: C_11  and  C_13
REMARK    5  A    between atoms: C_17  and  N_18
REMARK    6  A    between atoms: C_17  and  C_43
REMARK    7  A    between atoms: C_19  and  C_21
REMARK    8  A    between atoms: N_23  and  C_24
REMARK    9  A    between atoms: C_41  and  O_42
REMARK   10  A    between atoms: C_43  and  C_44
REMARK   11  A    between atoms: C_43  and  C_45
REMARK                            x       y       z     vdW  Elec       q    Type
REMARK                         _______ _______ _______ _____ _____    ______ ____
ROOT
ATOM      1  C   UNL     1      -7.683   2.903 123.386  0.00  0.00    +0.000 C 
ATOM      2  C   UNL     1      -8.629   3.099 122.164  0.00  0.00    +0.000 C 
ATOM      3  C   UNL     1      -7.750   3.505 120.952  0.00  0.00    +0.000 C 
ATOM      4  C   UNL     1      -6.318   3.380 121.400  0.00  0.00    +0.000 C 
ATOM      5  N   UNL     1      -6.389   3.261 122.838  0.00  0.00    +0.000 N 
ATOM      6  C   UNL     1      -5.686   4.069 123.654  0.00  0.00    +0.000 C 
ATOM      7  O   UNL     1      -5.075   5.038 123.231  0.00  0.00    +0.000 OA
ATOM      8  C   UNL     1      -5.816   3.610 125.119  0.00  0.00    +0.000 C 
ATOM      9  N   UNL     1      -6.968   2.542 125.372  0.00  0.00    +0.000 N 
ATOM     10  C   UNL     1      -7.381   1.944 126.574  0.00  0.00    +0.000 C 
ATOM     11  O   UNL     1      -8.121   0.949 126.593  0.00  0.00    +0.000 OA
ATOM     12  C   UNL     1      -6.853   2.658 127.757  0.00  0.00    +0.000 C 
ATOM     13  O   UNL     1      -7.589   3.841 126.674  0.00  0.00    +0.000 OA
ATOM     14  C   UNL     1      -8.072   3.336 125.140  0.00  0.00    +0.000 C 
ENDROOT
BRANCH  12  15
ATOM     15  N   UNL     1      -7.172   2.842 129.231  0.00  0.00    +0.000 N 
ATOM     16  C   UNL     1      -8.396   2.180 129.602  0.00  0.00    +0.000 C 
ATOM     17  O   UNL     1      -9.397   2.737 129.142  0.00  0.00    +0.000 OA
ATOM     18  H   UNL     1      -6.341   2.549 129.759  0.00  0.00    +0.000 HD
BRANCH  16  19
ATOM     19  C   UNL     1      -8.677   0.738 130.488  0.00  0.00    +0.000 C 
ATOM     20  C   UNL     1      -7.946  -0.547 129.825  0.00  0.00    +0.000 C 
ATOM     21  N   UNL     1      -7.969  -2.023 130.803  0.00  0.00    +0.000 NA
ATOM     22  C   UNL     1      -7.387  -3.246 130.209  0.00  0.00    +0.000 C 
ATOM     23  C   UNL     1      -7.166  -2.049 132.189  0.00  0.00    +0.000 C 
ATOM     24  C   UNL     1      -5.744  -1.556 133.253  0.00  0.00    +0.000 C 
ATOM     25  C   UNL     1      -4.593  -2.259 132.759  0.00  0.00    +0.000 A 
ATOM     26  C   UNL     1      -3.771  -3.096 133.283  0.00  0.00    +0.000 A 
ATOM     27  N   UNL     1      -3.148  -3.705 132.237  0.00  0.00    +0.000 N 
ATOM     28  C   UNL     1      -3.644  -3.182 131.042  0.00  0.00    +0.000 A 
ATOM     29  C   UNL     1      -3.465  -3.700 129.760  0.00  0.00    +0.000 A 
ATOM     30  C   UNL     1      -4.256  -3.050 128.823  0.00  0.00    +0.000 A 
ATOM     31  C   UNL     1      -5.192  -1.928 129.227  0.00  0.00    +0.000 A 
ATOM     32  C   UNL     1      -5.406  -1.306 130.668  0.00  0.00    +0.000 A 
ATOM     33  C   UNL     1      -4.475  -2.104 131.387  0.00  0.00    +0.000 A 
ATOM     34  C   UNL     1      -6.901  -0.706 131.729  0.00  0.00    +0.000 C 
ATOM     35  C   UNL     1      -8.101   0.445 131.843  0.00  0.00    +0.000 C 
ATOM     36  H   UNL     1      -2.561  -4.505 132.304  0.00  0.00    +0.000 HD
ENDBRANCH  16  19
ENDBRANCH  12  15
BRANCH  12  37
ATOM     37  C   UNL     1      -5.484   1.711 128.063  0.00  0.00    +0.000 C 
ATOM     38  C   UNL     1      -5.017   0.425 127.380  0.00  0.00    +0.000 C 
ATOM     39  C   UNL     1      -4.732   2.068 129.378  0.00  0.00    +0.000 C 
ENDBRANCH  12  37
BRANCH  14  40
ATOM     40  O   UNL     1      -9.393   2.814 125.193  0.00  0.00    +0.000 OA
ATOM     41  H   UNL     1      -9.645   2.562 124.284  0.00  0.00    +0.000 HD
ENDBRANCH  14  40
BRANCH   8  42
ATOM     42  C   UNL     1      -4.629   3.041 125.770  0.00  0.00    +0.000 C 
BRANCH  42  43
ATOM     43  C   UNL     1      -3.462   3.906 126.089  0.00  0.00    +0.000 C 
ATOM     44  C   UNL     1      -3.884   4.900 127.143  0.00  0.00    +0.000 C 
ATOM     45  C   UNL     1      -2.309   3.078 126.644  0.00  0.00    +0.000 C 
ENDBRANCH  42  43
ENDBRANCH   8  42
TORSDOF 6
ENDMDL
MODEL 2
REMARK VINA RESULT:      -9.7      3.796      7.721
REMARK  Name = Dihydro-alpha-ergocryptine
REMARK  11 active torsions:
REMARK  status: ('A' for Active; 'I' for Inactive)
REMARK    1  A    between atoms: C_9  and  C_10
REMARK    2  A    between atoms: C_10  and  C_11
REMARK    3  A    between atoms: C_11  and  C_12
REMARK    4  A    between atoms: C_11  and  C_13
REMARK    5  A    between atoms: C_17  and  N_18
REMARK    6  A    between atoms: C_17  and  C_43
REMARK    7  A    between atoms: C_19  and  C_21
REMARK    8  A    between atoms: N_23  and  C_24
REMARK    9  A    between atoms: C_41  and  O_42
REMARK   10  A    between atoms: C_43  and  C_44
REMARK   11  A    between atoms: C_43  and  C_45
REMARK                            x       y       z     vdW  Elec       q    Type
REMARK                         _______ _______ _______ _____ _____    ______ ____
ROOT
ATOM      1  C   UNL     1      -4.694   5.447 132.294  0.00  0.00    +0.000 C 
ATOM      2  C   UNL     1      -3.637   6.407 132.916  0.00  0.00    +0.000 C 
ATOM      3  C   UNL     1      -3.961   6.544 134.426  0.00  0.00    +0.000 C 
ATOM      4  C   UNL     1      -5.061   5.559 134.720  0.00  0.00    +0.000 C 
ATOM      5  N   UNL     1      -5.558   5.162 133.423  0.00  0.00    +0.000 N 
ATOM      6  C   UNL     1      -6.864   5.237 133.108  0.00  0.00    +0.000 C 
ATOM      7  O   UNL     1      -7.673   5.786 133.840  0.00  0.00    +0.000 OA
ATOM      8  C   UNL     1      -7.132   4.592 131.735  0.00  0.00    +0.000 C 
ATOM      9  N   UNL     1      -5.821   4.298 130.882  0.00  0.00    +0.000 N 
ATOM     10  C   UNL     1      -5.701   3.755 129.592  0.00  0.00    +0.000 C 
ATOM     11  O   UNL     1      -4.616   3.351 129.148  0.00  0.00    +0.000 OA
ATOM     12  C   UNL     1      -6.990   3.763 128.865  0.00  0.00    +0.000 C 
ATOM     13  O   UNL     1      -6.717   5.373 129.537  0.00  0.00    +0.000 OA
ATOM     14  C   UNL     1      -5.432   5.591 130.605  0.00  0.00    +0.000 C 
ENDROOT
BRANCH  12  15
ATOM     15  N   UNL     1      -7.510   3.736 127.438  0.00  0.00    +0.000 N 
ATOM     16  C   UNL     1      -6.438   3.718 126.477  0.00  0.00    +0.000 C 
ATOM     17  O   UNL     1      -5.834   4.792 126.416  0.00  0.00    +0.000 OA
ATOM     18  H   UNL     1      -8.168   2.950 127.372  0.00  0.00    +0.000 HD
BRANCH  16  19
ATOM     19  C   UNL     1      -5.829   2.454 125.487  0.00  0.00    +0.000 C 
ATOM     20  C   UNL     1      -5.933   1.005 126.202  0.00  0.00    +0.000 C 
ATOM     21  N   UNL     1      -5.565  -0.382 125.165  0.00  0.00    +0.000 NA
ATOM     22  C   UNL     1      -5.567  -1.723 125.789  0.00  0.00    +0.000 C 
ATOM     23  C   UNL     1      -6.539  -0.712 123.935  0.00  0.00    +0.000 C 
ATOM     24  C   UNL     1      -8.207  -0.771 123.153  0.00  0.00    +0.000 C 
ATOM     25  C   UNL     1      -8.932  -1.829 123.802  0.00  0.00    +0.000 A 
ATOM     26  C   UNL     1      -9.486  -2.910 123.385  0.00  0.00    +0.000 A 
ATOM     27  N   UNL     1      -9.661  -3.684 124.491  0.00  0.00    +0.000 N 
ATOM     28  C   UNL     1      -9.178  -3.001 125.609  0.00  0.00    +0.000 A 
ATOM     29  C   UNL     1      -8.936  -3.529 126.875  0.00  0.00    +0.000 A 
ATOM     30  C   UNL     1      -8.272  -2.627 127.695  0.00  0.00    +0.000 A 
ATOM     31  C   UNL     1      -7.876  -1.252 127.192  0.00  0.00    +0.000 A 
ATOM     32  C   UNL     1      -8.151  -0.617 125.767  0.00  0.00    +0.000 A 
ATOM     33  C   UNL     1      -8.854  -1.704 125.179  0.00  0.00    +0.000 A 
ATOM     34  C   UNL     1      -7.173   0.457 124.498  0.00  0.00    +0.000 C 
ATOM     35  C   UNL     1      -6.494   1.956 124.237  0.00  0.00    +0.000 C 
ATOM     36  H   UNL     1      -9.931  -4.641 124.486  0.00  0.00    +0.000 HD
ENDBRANCH  16  19
ENDBRANCH  12  15
BRANCH  12  37
ATOM     37  C   UNL     1      -7.502   2.184 129.195  0.00  0.00    +0.000 C 
ATOM     38  C   UNL     1      -6.730   1.019 129.815  0.00  0.00    +0.000 C 
ATOM     39  C   UNL     1      -8.869   1.802 128.555  0.00  0.00    +0.000 C 
ENDBRANCH  12  37
BRANCH  14  40
ATOM     40  O   UNL     1      -4.241   5.876 129.883  0.00  0.00    +0.000 OA
ATOM     41  H   UNL     1      -3.491   5.748 130.495  0.00  0.00    +0.000 HD
ENDBRANCH  14  40
BRANCH   8  42
ATOM     42  C   UNL     1      -7.890   3.334 131.702  0.00  0.00    +0.000 C 
BRANCH  42  43
ATOM     43  C   UNL     1      -9.311   3.303 132.141  0.00  0.00    +0.000 C 
ATOM     44  C   UNL     1     -10.137   4.052 131.124  0.00  0.00    +0.000 C 
ATOM     45  C   UNL     1      -9.825   1.870 132.216  0.00  0.00    +0.000 C 
ENDBRANCH  42  43
ENDBRANCH   8  42
TORSDOF 6
ENDMDL
MODEL 3
REMARK VINA RESULT:      -9.5      3.990      7.667
REMARK  Name = Dihydro-alpha-ergocryptine
REMARK  11 active torsions:
REMARK  status: ('A' for Active; 'I' for Inactive)
REMARK    1  A    between atoms: C_9  and  C_10
REMARK    2  A    between atoms: C_10  and  C_11
REMARK    3  A    between atoms: C_11  and  C_12
REMARK    4  A    between atoms: C_11  and  C_13
REMARK    5  A    between atoms: C_17  and  N_18
REMARK    6  A    between atoms: C_17  and  C_43
REMARK    7  A    between atoms: C_19  and  C_21
REMARK    8  A    between atoms: N_23  and  C_24
REMARK    9  A    between atoms: C_41  and  O_42
REMARK   10  A    between atoms: C_43  and  C_44
REMARK   11  A    between atoms: C_43  and  C_45
REMARK                            x       y       z     vdW  Elec       q    Type
REMARK                         _______ _______ _______ _____ _____    ______ ____
ROOT
ATOM      1  C   UNL     1      -3.783   6.596 131.671  0.00  0.00    +0.000 C 
ATOM      2  C   UNL     1      -2.991   7.920 131.890  0.00  0.00    +0.000 C 
ATOM      3  C   UNL     1      -2.824   8.118 133.419  0.00  0.00    +0.000 C 
ATOM      4  C   UNL     1      -3.344   6.865 134.073  0.00  0.00    +0.000 C 
ATOM      5  N   UNL     1      -4.067   6.175 133.029  0.00  0.00    +0.000 N 
ATOM      6  C   UNL     1      -5.341   5.775 133.192  0.00  0.00    +0.000 C 
ATOM      7  O   UNL     1      -6.001   6.105 134.165  0.00  0.00    +0.000 OA
ATOM      8  C   UNL     1      -5.802   4.920 131.996  0.00  0.00    +0.000 C 
ATOM      9  N   UNL     1      -4.831   4.980 130.736  0.00  0.00    +0.000 N 
ATOM     10  C   UNL     1      -4.960   4.361 129.482  0.00  0.00    +0.000 C 
ATOM     11  O   UNL     1      -4.014   4.291 128.683  0.00  0.00    +0.000 OA
ATOM     12  C   UNL     1      -6.332   3.855 129.253  0.00  0.00    +0.000 C 
ATOM     13  O   UNL     1      -6.438   5.530 129.797  0.00  0.00    +0.000 OA
ATOM     14  C   UNL     1      -5.038   6.288 130.349  0.00  0.00    +0.000 C 
ENDROOT
BRANCH  12  15
ATOM     15  N   UNL     1      -7.248   3.489 128.098  0.00  0.00    +0.000 N 
ATOM     16  C   UNL     1      -6.589   3.627 126.825  0.00  0.00    +0.000 C 
ATOM     17  O   UNL     1      -6.392   4.805 126.516  0.00  0.00    +0.000 OA
ATOM     18  H   UNL     1      -7.623   2.553 128.295  0.00  0.00    +0.000 HD
BRANCH  16  19
ATOM     19  C   UNL     1      -5.979   2.450 125.735  0.00  0.00    +0.000 C 
ATOM     20  C   UNL     1      -6.022   0.954 126.353  0.00  0.00    +0.000 C 
ATOM     21  N   UNL     1      -5.651  -0.350 125.214  0.00  0.00    +0.000 NA
ATOM     22  C   UNL     1      -5.598  -1.730 125.746  0.00  0.00    +0.000 C 
ATOM     23  C   UNL     1      -6.654  -0.625 123.994  0.00  0.00    +0.000 C 
ATOM     24  C   UNL     1      -8.343  -0.679 123.260  0.00  0.00    +0.000 C 
ATOM     25  C   UNL     1      -9.020  -1.798 123.857  0.00  0.00    +0.000 A 
ATOM     26  C   UNL     1      -9.558  -2.864 123.385  0.00  0.00    +0.000 A 
ATOM     27  N   UNL     1      -9.677  -3.715 124.441  0.00  0.00    +0.000 N 
ATOM     28  C   UNL     1      -9.178  -3.095 125.587  0.00  0.00    +0.000 A 
ATOM     29  C   UNL     1      -8.882  -3.698 126.808  0.00  0.00    +0.000 A 
ATOM     30  C   UNL     1      -8.217  -2.835 127.666  0.00  0.00    +0.000 A 
ATOM     31  C   UNL     1      -7.873  -1.419 127.246  0.00  0.00    +0.000 A 
ATOM     32  C   UNL     1      -8.209  -0.698 125.876  0.00  0.00    +0.000 A 
ATOM     33  C   UNL     1      -8.901  -1.763 125.237  0.00  0.00    +0.000 A 
ATOM     34  C   UNL     1      -7.301   0.485 124.654  0.00  0.00    +0.000 C 
ATOM     35  C   UNL     1      -6.669   2.017 124.474  0.00  0.00    +0.000 C 
ATOM     36  H   UNL     1      -9.922  -4.677 124.380  0.00  0.00    +0.000 HD
ENDBRANCH  16  19
ENDBRANCH  12  15
BRANCH  12  37
ATOM     37  C   UNL     1      -6.115   2.245 129.730  0.00  0.00    +0.000 C 
ATOM     38  C   UNL     1      -4.825   1.436 129.869  0.00  0.00    +0.000 C 
ATOM     39  C   UNL     1      -7.427   1.411 129.802  0.00  0.00    +0.000 C 
ENDBRANCH  12  37
BRANCH  14  40
ATOM     40  O   UNL     1      -4.333   6.865 129.257  0.00  0.00    +0.000 OA
ATOM     41  H   UNL     1      -4.613   7.798 129.190  0.00  0.00    +0.000 HD
ENDBRANCH  14  40
BRANCH   8  42
ATOM     42  C   UNL     1      -6.033   3.488 132.222  0.00  0.00    +0.000 C 
BRANCH  42  43
ATOM     43  C   UNL     1      -6.733   3.026 133.451  0.00  0.00    +0.000 C 
ATOM     44  C   UNL     1      -8.219   3.144 133.221  0.00  0.00    +0.000 C 
ATOM     45  C   UNL     1      -6.406   1.566 133.746  0.00  0.00    +0.000 C 
ENDBRANCH  42  43
ENDBRANCH   8  42
TORSDOF 6
ENDMDL
MODEL 4
REMARK VINA RESULT:      -9.3      3.019      6.119
REMARK  Name = Dihydro-alpha-ergocryptine
REMARK  11 active torsions:
REMARK  status: ('A' for Active; 'I' for Inactive)
REMARK    1  A    between atoms: C_9  and  C_10
REMARK    2  A    between atoms: C_10  and  C_11
REMARK    3  A    between atoms: C_11  and  C_12
REMARK    4  A    between atoms: C_11  and  C_13
REMARK    5  A    between atoms: C_17  and  N_18
REMARK    6  A    between atoms: C_17  and  C_43
REMARK    7  A    between atoms: C_19  and  C_21
REMARK    8  A    between atoms: N_23  and  C_24
REMARK    9  A    between atoms: C_41  and  O_42
REMARK   10  A    between atoms: C_43  and  C_44
REMARK   11  A    between atoms: C_43  and  C_45
REMARK                            x       y       z     vdW  Elec       q    Type
REMARK                         _______ _______ _______ _____ _____    ______ ____
ROOT
ATOM      1  C   UNL     1      -8.202   2.077 124.024  0.00  0.00    +0.000 C 
ATOM      2  C   UNL     1      -8.589   2.808 122.704  0.00  0.00    +0.000 C 
ATOM      3  C   UNL     1      -9.648   1.937 121.979  0.00  0.00    +0.000 C 
ATOM      4  C   UNL     1     -10.004   0.820 122.924  0.00  0.00    +0.000 C 
ATOM      5  N   UNL     1      -8.978   0.855 123.941  0.00  0.00    +0.000 N 
ATOM      6  C   UNL     1      -8.261  -0.237 124.265  0.00  0.00    +0.000 C 
ATOM      7  O   UNL     1      -8.331  -1.270 123.617  0.00  0.00    +0.000 OA
ATOM      8  C   UNL     1      -7.368   0.041 125.489  0.00  0.00    +0.000 C 
ATOM      9  N   UNL     1      -7.241   1.580 125.871  0.00  0.00    +0.000 N 
ATOM     10  C   UNL     1      -6.491   2.186 126.893  0.00  0.00    +0.000 C 
ATOM     11  O   UNL     1      -6.676   3.363 127.235  0.00  0.00    +0.000 OA
ATOM     12  C   UNL     1      -5.477   1.266 127.455  0.00  0.00    +0.000 C 
ATOM     13  O   UNL     1      -5.337   1.244 125.695  0.00  0.00    +0.000 OA
ATOM     14  C   UNL     1      -6.519   2.028 124.785  0.00  0.00    +0.000 C 
ENDROOT
BRANCH  12  15
ATOM     15  N   UNL     1      -4.160   1.323 128.209  0.00  0.00    +0.000 N 
ATOM     16  C   UNL     1      -3.718   2.678 128.417  0.00  0.00    +0.000 C 
ATOM     17  O   UNL     1      -3.340   3.220 127.375  0.00  0.00    +0.000 OA
ATOM     18  H   UNL     1      -4.277   0.767 129.065  0.00  0.00    +0.000 HD
BRANCH  16  19
ATOM     19  C   UNL     1      -3.708   3.660 129.824  0.00  0.00    +0.000 C 
ATOM     20  C   UNL     1      -4.919   4.736 129.835  0.00  0.00    +0.000 C 
ATOM     21  N   UNL     1      -5.140   5.617 131.355  0.00  0.00    +0.000 NA
ATOM     22  C   UNL     1      -6.180   6.667 131.393  0.00  0.00    +0.000 C 
ATOM     23  C   UNL     1      -5.597   4.809 132.662  0.00  0.00    +0.000 C 
ATOM     24  C   UNL     1      -6.539   3.459 133.491  0.00  0.00    +0.000 C 
ATOM     25  C   UNL     1      -7.928   3.823 133.427  0.00  0.00    +0.000 A 
ATOM     26  C   UNL     1      -8.834   4.028 134.314  0.00  0.00    +0.000 A 
ATOM     27  N   UNL     1      -9.821   4.719 133.681  0.00  0.00    +0.000 N 
ATOM     28  C   UNL     1      -9.457   4.919 132.348  0.00  0.00    +0.000 A 
ATOM     29  C   UNL     1     -10.054   5.786 131.435  0.00  0.00    +0.000 A 
ATOM     30  C   UNL     1      -9.322   5.887 130.260  0.00  0.00    +0.000 A 
ATOM     31  C   UNL     1      -8.025   5.125 130.074  0.00  0.00    +0.000 A 
ATOM     32  C   UNL     1      -7.329   4.121 131.083  0.00  0.00    +0.000 A 
ATOM     33  C   UNL     1      -8.283   4.178 132.135  0.00  0.00    +0.000 A 
ATOM     34  C   UNL     1      -5.532   3.752 131.679  0.00  0.00    +0.000 C 
ATOM     35  C   UNL     1      -4.043   3.174 131.204  0.00  0.00    +0.000 C 
ATOM     36  H   UNL     1     -10.595   5.155 134.126  0.00  0.00    +0.000 HD
ENDBRANCH  16  19
ENDBRANCH  12  15
BRANCH  12  37
ATOM     37  C   UNL     1      -6.339   0.688 128.792  0.00  0.00    +0.000 C 
ATOM     38  C   UNL     1      -7.697   1.129 129.340  0.00  0.00    +0.000 C 
ATOM     39  C   UNL     1      -5.525  -0.252 129.728  0.00  0.00    +0.000 C 
ENDBRANCH  12  37
BRANCH  14  40
ATOM     40  O   UNL     1      -6.180   3.399 124.626  0.00  0.00    +0.000 OA
ATOM     41  H   UNL     1      -5.450   3.594 125.244  0.00  0.00    +0.000 HD
ENDBRANCH  14  40
BRANCH   8  42
ATOM     42  C   UNL     1      -7.701  -0.632 126.751  0.00  0.00    +0.000 C 
BRANCH  42  43
ATOM     43  C   UNL     1      -7.528  -2.104 126.885  0.00  0.00    +0.000 C 
ATOM     44  C   UNL     1      -6.058  -2.420 126.768  0.00  0.00    +0.000 C 
ATOM     45  C   UNL     1      -8.018  -2.586 128.245  0.00  0.00    +0.000 C 
ENDBRANCH  42  43
ENDBRANCH   8  42
TORSDOF 6
ENDMDL
MODEL 5
REMARK VINA RESULT:      -9.1      1.676      2.191
REMARK  Name = Dihydro-alpha-ergocryptine
REMARK  11 active torsions:
REMARK  status: ('A' for Active; 'I' for Inactive)
REMARK    1  A    between atoms: C_9  and  C_10
REMARK    2  A    between atoms: C_10  and  C_11
REMARK    3  A    between atoms: C_11  and  C_12
REMARK    4  A    between atoms: C_11  and  C_13
REMARK    5  A    between atoms: C_17  and  N_18
REMARK    6  A    between atoms: C_17  and  C_43
REMARK    7  A    between atoms: C_19  and  C_21
REMARK    8  A    between atoms: N_23  and  C_24
REMARK    9  A    between atoms: C_41  and  O_42
REMARK   10  A    between atoms: C_43  and  C_44
REMARK   11  A    between atoms: C_43  and  C_45
REMARK                            x       y       z     vdW  Elec       q    Type
REMARK                         _______ _______ _______ _____ _____    ______ ____
ROOT
ATOM      1  C   UNL     1      -7.699   2.029 125.652  0.00  0.00    +0.000 C 
ATOM      2  C   UNL     1      -8.847   1.798 124.626  0.00  0.00    +0.000 C 
ATOM      3  C   UNL     1      -8.240   1.930 123.206  0.00  0.00    +0.000 C 
ATOM      4  C   UNL     1      -6.750   2.057 123.386  0.00  0.00    +0.000 C 
ATOM      5  N   UNL     1      -6.571   2.333 124.793  0.00  0.00    +0.000 N 
ATOM      6  C   UNL     1      -5.860   3.392 125.225  0.00  0.00    +0.000 C 
ATOM      7  O   UNL     1      -5.462   4.256 124.461  0.00  0.00    +0.000 OA
ATOM      8  C   UNL     1      -5.688   3.345 126.756  0.00  0.00    +0.000 C 
ATOM      9  N   UNL     1      -6.629   2.292 127.489  0.00  0.00    +0.000 N 
ATOM     10  C   UNL     1      -6.757   2.014 128.860  0.00  0.00    +0.000 C 
ATOM     11  O   UNL     1      -7.343   1.002 129.274  0.00  0.00    +0.000 OA
ATOM     12  C   UNL     1      -6.145   3.069 129.698  0.00  0.00    +0.000 C 
ATOM     13  O   UNL     1      -7.200   3.840 128.511  0.00  0.00    +0.000 OA
ATOM     14  C   UNL     1      -7.853   2.892 127.280  0.00  0.00    +0.000 C 
ENDROOT
BRANCH  12  15
ATOM     15  N   UNL     1      -6.243   3.623 131.109  0.00  0.00    +0.000 N 
ATOM     16  C   UNL     1      -7.321   3.020 131.849  0.00  0.00    +0.000 C 
ATOM     17  O   UNL     1      -8.432   3.378 131.449  0.00  0.00    +0.000 OA
ATOM     18  H   UNL     1      -5.314   3.527 131.536  0.00  0.00    +0.000 HD
BRANCH  16  19
ATOM     19  C   UNL     1      -7.314   1.853 133.108  0.00  0.00    +0.000 C 
ATOM     20  C   UNL     1      -7.563   0.350 132.560  0.00  0.00    +0.000 C 
ATOM     21  N   UNL     1      -7.322  -0.942 133.746  0.00  0.00    +0.000 NA
ATOM     22  C   UNL     1      -7.614  -2.327 133.319  0.00  0.00    +0.000 C 
ATOM     23  C   UNL     1      -5.850  -1.198 134.327  0.00  0.00    +0.000 C 
ATOM     24  C   UNL     1      -4.016  -1.236 134.147  0.00  0.00    +0.000 C 
ATOM     25  C   UNL     1      -3.705  -2.360 133.306  0.00  0.00    +0.000 A 
ATOM     26  C   UNL     1      -2.996  -3.419 133.467  0.00  0.00    +0.000 A 
ATOM     27  N   UNL     1      -3.397  -4.281 132.493  0.00  0.00    +0.000 N 
ATOM     28  C   UNL     1      -4.396  -3.677 131.729  0.00  0.00    +0.000 A 
ATOM     29  C   UNL     1      -5.243  -4.296 130.811  0.00  0.00    +0.000 A 
ATOM     30  C   UNL     1      -6.250  -3.445 130.378  0.00  0.00    +0.000 A 
ATOM     31  C   UNL     1      -6.359  -2.026 130.900  0.00  0.00    +0.000 A 
ATOM     32  C   UNL     1      -5.405  -1.288 131.927  0.00  0.00    +0.000 A 
ATOM     33  C   UNL     1      -4.480  -2.342 132.158  0.00  0.00    +0.000 A 
ATOM     34  C   UNL     1      -5.615  -0.093 133.427  0.00  0.00    +0.000 C 
ATOM     35  C   UNL     1      -6.093   1.439 133.878  0.00  0.00    +0.000 C 
ATOM     36  H   UNL     1      -3.144  -5.241 132.435  0.00  0.00    +0.000 HD
ENDBRANCH  16  19
ENDBRANCH  12  15
BRANCH  12  37
ATOM     37  C   UNL     1      -4.630   2.364 129.966  0.00  0.00    +0.000 C 
ATOM     38  C   UNL     1      -4.148   0.945 129.663  0.00  0.00    +0.000 C 
ATOM     39  C   UNL     1      -3.677   3.205 130.864  0.00  0.00    +0.000 C 
ENDBRANCH  12  37
BRANCH  14  40
ATOM     40  O   UNL     1      -9.065   2.293 127.717  0.00  0.00    +0.000 OA
ATOM     41  H   UNL     1      -8.901   1.914 128.603  0.00  0.00    +0.000 HD
ENDBRANCH  14  40
BRANCH   8  42
ATOM     42  C   UNL     1      -4.345   3.081 127.289  0.00  0.00    +0.000 C 
BRANCH  42  43
ATOM     43  C   UNL     1      -3.187   3.901 126.843  0.00  0.00    +0.000 C 
ATOM     44  C   UNL     1      -3.107   5.125 127.721  0.00  0.00    +0.000 C 
ATOM     45  C   UNL     1      -1.884   3.122 126.983  0.00  0.00    +0.000 C 
ENDBRANCH  42  43
ENDBRANCH   8  42
TORSDOF 6
ENDMDL
MODEL 6
REMARK VINA RESULT:      -8.9      2.225      3.928
REMARK  Name = Dihydro-alpha-ergocryptine
REMARK  11 active torsions:
REMARK  status: ('A' for Active; 'I' for Inactive)
REMARK    1  A    between atoms: C_9  and  C_10
REMARK    2  A    between atoms: C_10  and  C_11
REMARK    3  A    between atoms: C_11  and  C_12
REMARK    4  A    between atoms: C_11  and  C_13
REMARK    5  A    between atoms: C_17  and  N_18
REMARK    6  A    between atoms: C_17  and  C_43
REMARK    7  A    between atoms: C_19  and  C_21
REMARK    8  A    between atoms: N_23  and  C_24
REMARK    9  A    between atoms: C_41  and  O_42
REMARK   10  A    between atoms: C_43  and  C_44
REMARK   11  A    between atoms: C_43  and  C_45
REMARK                            x       y       z     vdW  Elec       q    Type
REMARK                         _______ _______ _______ _____ _____    ______ ____
ROOT
ATOM      1  C   UNL     1      -5.639  -1.176 125.134  0.00  0.00    +0.000 C 
ATOM      2  C   UNL     1      -5.127  -2.646 125.186  0.00  0.00    +0.000 C 
ATOM      3  C   UNL     1      -5.724  -3.394 123.966  0.00  0.00    +0.000 C 
ATOM      4  C   UNL     1      -6.419  -2.356 123.125  0.00  0.00    +0.000 C 
ATOM      5  N   UNL     1      -6.513  -1.192 123.977  0.00  0.00    +0.000 N 
ATOM      6  C   UNL     1      -7.685  -0.569 124.204  0.00  0.00    +0.000 C 
ATOM      7  O   UNL     1      -8.748  -1.040 123.830  0.00  0.00    +0.000 OA
ATOM      8  C   UNL     1      -7.466   0.731 125.001  0.00  0.00    +0.000 C 
ATOM      9  N   UNL     1      -6.016   0.869 125.642  0.00  0.00    +0.000 N 
ATOM     10  C   UNL     1      -5.492   1.894 126.449  0.00  0.00    +0.000 C 
ATOM     11  O   UNL     1      -4.277   1.997 126.673  0.00  0.00    +0.000 OA
ATOM     12  C   UNL     1      -6.555   2.772 126.987  0.00  0.00    +0.000 C 
ATOM     13  O   UNL     1      -7.007   1.094 127.297  0.00  0.00    +0.000 OA
ATOM     14  C   UNL     1      -6.088  -0.130 126.590  0.00  0.00    +0.000 C 
ENDROOT
BRANCH  12  15
ATOM     15  N   UNL     1      -6.784   3.728 128.145  0.00  0.00    +0.000 N 
ATOM     16  C   UNL     1      -7.767   3.227 129.070  0.00  0.00    +0.000 C 
ATOM     17  O   UNL     1      -8.911   3.246 128.606  0.00  0.00    +0.000 OA
ATOM     18  H   UNL     1      -5.864   3.932 128.554  0.00  0.00    +0.000 HD
BRANCH  16  19
ATOM     19  C   UNL     1      -7.601   2.550 130.638  0.00  0.00    +0.000 C 
ATOM     20  C   UNL     1      -8.015   0.985 130.683  0.00  0.00    +0.000 C 
ATOM     21  N   UNL     1      -7.638   0.141 132.194  0.00  0.00    +0.000 NA
ATOM     22  C   UNL     1      -8.067  -1.269 132.316  0.00  0.00    +0.000 C 
ATOM     23  C   UNL     1      -6.102  -0.061 132.607  0.00  0.00    +0.000 C 
ATOM     24  C   UNL     1      -4.331  -0.349 132.189  0.00  0.00    +0.000 C 
ATOM     25  C   UNL     1      -4.225  -1.713 131.751  0.00  0.00    +0.000 A 
ATOM     26  C   UNL     1      -3.552  -2.728 132.161  0.00  0.00    +0.000 A 
ATOM     27  N   UNL     1      -4.156  -3.817 131.613  0.00  0.00    +0.000 N 
ATOM     28  C   UNL     1      -5.240  -3.399 130.840  0.00  0.00    +0.000 A 
ATOM     29  C   UNL     1      -6.261  -4.195 130.324  0.00  0.00    +0.000 A 
ATOM     30  C   UNL     1      -7.284  -3.435 129.775  0.00  0.00    +0.000 A 
ATOM     31  C   UNL     1      -7.232  -1.919 129.786  0.00  0.00    +0.000 A 
ATOM     32  C   UNL     1      -6.081  -0.987 130.348  0.00  0.00    +0.000 A 
ATOM     33  C   UNL     1      -5.183  -1.996 130.791  0.00  0.00    +0.000 A 
ATOM     34  C   UNL     1      -5.972   0.652 131.358  0.00  0.00    +0.000 C 
ATOM     35  C   UNL     1      -6.289   2.288 131.319  0.00  0.00    +0.000 C 
ATOM     36  H   UNL     1      -3.964  -4.763 131.853  0.00  0.00    +0.000 HD
ENDBRANCH  16  19
ENDBRANCH  12  15
BRANCH  12  37
ATOM     37  C   UNL     1      -6.500   4.010 125.835  0.00  0.00    +0.000 C 
ATOM     38  C   UNL     1      -5.298   4.602 125.098  0.00  0.00    +0.000 C 
ATOM     39  C   UNL     1      -7.823   4.817 125.691  0.00  0.00    +0.000 C 
ENDBRANCH  12  37
BRANCH  14  40
ATOM     40  O   UNL     1      -4.982  -0.451 127.424  0.00  0.00    +0.000 OA
ATOM     41  H   UNL     1      -4.558  -1.250 127.052  0.00  0.00    +0.000 HD
ENDBRANCH  14  40
BRANCH   8  42
ATOM     42  C   UNL     1      -7.693   2.007 124.311  0.00  0.00    +0.000 C 
BRANCH  42  43
ATOM     43  C   UNL     1      -7.697   2.066 122.825  0.00  0.00    +0.000 C 
ATOM     44  C   UNL     1      -9.009   2.663 122.379  0.00  0.00    +0.000 C 
ATOM     45  C   UNL     1      -6.566   2.951 122.313  0.00  0.00    +0.000 C 
ENDBRANCH  42  43
ENDBRANCH   8  42
TORSDOF 6
ENDMDL
MODEL 7
REMARK VINA RESULT:      -8.9      3.499      6.485
REMARK  Name = Dihydro-alpha-ergocryptine
REMARK  11 active torsions:
REMARK  status: ('A' for Active; 'I' for Inactive)
REMARK    1  A    between atoms: C_9  and  C_10
REMARK    2  A    between atoms: C_10  and  C_11
REMARK    3  A    between atoms: C_11  and  C_12
REMARK    4  A    between atoms: C_11  and  C_13
REMARK    5  A    between atoms: C_17  and  N_18
REMARK    6  A    between atoms: C_17  and  C_43
REMARK    7  A    between atoms: C_19  and  C_21
REMARK    8  A    between atoms: N_23  and  C_24
REMARK    9  A    between atoms: C_41  and  O_42
REMARK   10  A    between atoms: C_43  and  C_44
REMARK   11  A    between atoms: C_43  and  C_45
REMARK                            x       y       z     vdW  Elec       q    Type
REMARK                         _______ _______ _______ _____ _____    ______ ____
ROOT
ATOM      1  C   UNL     1      -5.593  -2.278 125.215  0.00  0.00    +0.000 C 
ATOM      2  C   UNL     1      -5.099  -3.751 125.103  0.00  0.00    +0.000 C 
ATOM      3  C   UNL     1      -4.964  -4.086 123.595  0.00  0.00    +0.000 C 
ATOM      4  C   UNL     1      -5.198  -2.801 122.847  0.00  0.00    +0.000 C 
ATOM      5  N   UNL     1      -5.768  -1.902 123.825  0.00  0.00    +0.000 N 
ATOM      6  C   UNL     1      -6.926  -1.253 123.605  0.00  0.00    +0.000 C 
ATOM      7  O   UNL     1      -7.632  -1.503 122.640  0.00  0.00    +0.000 OA
ATOM      8  C   UNL     1      -7.205  -0.239 124.730  0.00  0.00    +0.000 C 
ATOM      9  N   UNL     1      -6.282  -0.415 126.015  0.00  0.00    +0.000 N 
ATOM     10  C   UNL     1      -6.289   0.303 127.222  0.00  0.00    +0.000 C 
ATOM     11  O   UNL     1      -5.357   0.227 128.037  0.00  0.00    +0.000 OA
ATOM     12  C   UNL     1      -7.523   1.103 127.383  0.00  0.00    +0.000 C 
ATOM     13  O   UNL     1      -7.979  -0.546 126.949  0.00  0.00    +0.000 OA
ATOM     14  C   UNL     1      -6.766  -1.619 126.482  0.00  0.00    +0.000 C 
ENDROOT
BRANCH  12  15
ATOM     15  N   UNL     1      -8.352   1.735 128.489  0.00  0.00    +0.000 N 
ATOM     16  C   UNL     1      -7.909   1.321 129.795  0.00  0.00    +0.000 C 
ATOM     17  O   UNL     1      -8.176   0.141 130.037  0.00  0.00    +0.000 OA
ATOM     18  H   UNL     1      -8.347   2.749 128.328  0.00  0.00    +0.000 HD
BRANCH  16  19
ATOM     19  C   UNL     1      -7.023   2.156 131.005  0.00  0.00    +0.000 C 
ATOM     20  C   UNL     1      -5.525   2.537 130.522  0.00  0.00    +0.000 C 
ATOM     21  N   UNL     1      -4.628   3.615 131.602  0.00  0.00    +0.000 NA
ATOM     22  C   UNL     1      -3.227   3.929 131.248  0.00  0.00    +0.000 C 
ATOM     23  C   UNL     1      -5.145   5.119 131.804  0.00  0.00    +0.000 C 
ATOM     24  C   UNL     1      -5.939   6.661 131.181  0.00  0.00    +0.000 C 
ATOM     25  C   UNL     1      -5.002   7.275 130.281  0.00  0.00    +0.000 A 
ATOM     26  C   UNL     1      -4.415   8.418 130.254  0.00  0.00    +0.000 A 
ATOM     27  N   UNL     1      -3.364   8.272 129.401  0.00  0.00    +0.000 N 
ATOM     28  C   UNL     1      -3.352   6.966 128.909  0.00  0.00    +0.000 A 
ATOM     29  C   UNL     1      -2.316   6.337 128.221  0.00  0.00    +0.000 A 
ATOM     30  C   UNL     1      -2.553   4.980 128.053  0.00  0.00    +0.000 A 
ATOM     31  C   UNL     1      -3.809   4.327 128.598  0.00  0.00    +0.000 A 
ATOM     32  C   UNL     1      -5.011   5.016 129.367  0.00  0.00    +0.000 A 
ATOM     33  C   UNL     1      -4.535   6.355 129.356  0.00  0.00    +0.000 A 
ATOM     34  C   UNL     1      -6.128   4.598 130.883  0.00  0.00    +0.000 C 
ATOM     35  C   UNL     1      -7.305   3.562 131.449  0.00  0.00    +0.000 C 
ATOM     36  H   UNL     1      -2.630   8.930 129.275  0.00  0.00    +0.000 HD
ENDBRANCH  16  19
ENDBRANCH  12  15
BRANCH  12  37
ATOM     37  C   UNL     1      -6.964   2.593 126.806  0.00  0.00    +0.000 C 
ATOM     38  C   UNL     1      -5.608   2.956 126.201  0.00  0.00    +0.000 C 
ATOM     39  C   UNL     1      -7.870   3.806 127.166  0.00  0.00    +0.000 C 
ENDBRANCH  12  37
BRANCH  14  40
ATOM     40  O   UNL     1      -6.212  -2.254 127.626  0.00  0.00    +0.000 OA
ATOM     41  H   UNL     1      -6.006  -3.176 127.378  0.00  0.00    +0.000 HD
ENDBRANCH  14  40
BRANCH   8  42
ATOM     42  C   UNL     1      -7.124   1.190 124.404  0.00  0.00    +0.000 C 
BRANCH  42  43
ATOM     43  C   UNL     1      -8.049   1.785 123.403  0.00  0.00    +0.000 C 
ATOM     44  C   UNL     1      -9.398   1.966 124.053  0.00  0.00    +0.000 C 
ATOM     45  C   UNL     1      -7.548   3.150 122.944  0.00  0.00    +0.000 C 
ENDBRANCH  42  43
ENDBRANCH   8  42
TORSDOF 6
ENDMDL
MODEL 8
REMARK VINA RESULT:      -8.7      3.749      5.813
REMARK  Name = Dihydro-alpha-ergocryptine
REMARK  11 active torsions:
REMARK  status: ('A' for Active; 'I' for Inactive)
REMARK    1  A    between atoms: C_9  and  C_10
REMARK    2  A    between atoms: C_10  and  C_11
REMARK    3  A    between atoms: C_11  and  C_12
REMARK    4  A    between atoms: C_11  and  C_13
REMARK    5  A    between atoms: C_17  and  N_18
REMARK    6  A    between atoms: C_17  and  C_43
REMARK    7  A    between atoms: C_19  and  C_21
REMARK    8  A    between atoms: N_23  and  C_24
REMARK    9  A    between atoms: C_41  and  O_42
REMARK   10  A    between atoms: C_43  and  C_44
REMARK   11  A    between atoms: C_43  and  C_45
REMARK                            x       y       z     vdW  Elec       q    Type
REMARK                         _______ _______ _______ _____ _____    ______ ____
ROOT
ATOM      1  C   UNL     1     -10.891   5.970 131.337  0.00  0.00    +0.000 C 
ATOM      2  C   UNL     1     -11.933   7.049 131.755  0.00  0.00    +0.000 C 
ATOM      3  C   UNL     1     -12.762   7.412 130.497  0.00  0.00    +0.000 C 
ATOM      4  C   UNL     1     -12.343   6.453 129.415  0.00  0.00    +0.000 C 
ATOM      5  N   UNL     1     -11.132   5.840 129.913  0.00  0.00    +0.000 N 
ATOM      6  C   UNL     1      -9.995   5.825 129.193  0.00  0.00    +0.000 C 
ATOM      7  O   UNL     1      -9.881   6.456 128.154  0.00  0.00    +0.000 OA
ATOM      8  C   UNL     1      -8.923   4.962 129.886  0.00  0.00    +0.000 C 
ATOM      9  N   UNL     1      -9.265   4.578 131.392  0.00  0.00    +0.000 N 
ATOM     10  C   UNL     1      -8.506   3.843 132.318  0.00  0.00    +0.000 C 
ATOM     11  O   UNL     1      -8.996   3.407 133.371  0.00  0.00    +0.000 OA
ATOM     12  C   UNL     1      -7.098   3.696 131.888  0.00  0.00    +0.000 C 
ATOM     13  O   UNL     1      -7.546   5.399 131.764  0.00  0.00    +0.000 OA
ATOM     14  C   UNL     1      -9.163   5.823 131.976  0.00  0.00    +0.000 C 
ENDROOT
BRANCH  12  15
ATOM     15  N   UNL     1      -5.730   3.428 132.491  0.00  0.00    +0.000 N 
ATOM     16  C   UNL     1      -5.773   3.399 133.930  0.00  0.00    +0.000 C 
ATOM     17  O   UNL     1      -5.959   4.515 134.424  0.00  0.00    +0.000 OA
ATOM     18  H   UNL     1      -5.367   2.574 132.049  0.00  0.00    +0.000 HD
BRANCH  16  19
ATOM     19  C   UNL     1      -5.692   2.090 135.037  0.00  0.00    +0.000 C 
ATOM     20  C   UNL     1      -6.285   0.717 134.416  0.00  0.00    +0.000 C 
ATOM     21  N   UNL     1      -6.012  -0.738 135.387  0.00  0.00    +0.000 NA
ATOM     22  C   UNL     1      -6.603  -2.005 134.904  0.00  0.00    +0.000 C 
ATOM     23  C   UNL     1      -4.512  -1.262 135.597  0.00  0.00    +0.000 C 
ATOM     24  C   UNL     1      -2.785  -1.523 135.010  0.00  0.00    +0.000 C 
ATOM     25  C   UNL     1      -2.837  -2.560 134.016  0.00  0.00    +0.000 A 
ATOM     26  C   UNL     1      -2.287  -3.716 133.911  0.00  0.00    +0.000 A 
ATOM     27  N   UNL     1      -3.012  -4.384 132.973  0.00  0.00    +0.000 N 
ATOM     28  C   UNL     1      -4.039  -3.558 132.512  0.00  0.00    +0.000 A 
ATOM     29  C   UNL     1      -5.144  -3.934 131.752  0.00  0.00    +0.000 A 
ATOM     30  C   UNL     1      -6.070  -2.907 131.638  0.00  0.00    +0.000 A 
ATOM     31  C   UNL     1      -5.842  -1.565 132.306  0.00  0.00    +0.000 A 
ATOM     32  C   UNL     1      -4.592  -1.101 133.162  0.00  0.00    +0.000 A 
ATOM     33  C   UNL     1      -3.819  -2.291 133.077  0.00  0.00    +0.000 A 
ATOM     34  C   UNL     1      -4.296  -0.092 134.779  0.00  0.00    +0.000 C 
ATOM     35  C   UNL     1      -4.421   1.419 135.471  0.00  0.00    +0.000 C 
ATOM     36  H   UNL     1      -2.933  -5.354 132.767  0.00  0.00    +0.000 HD
ENDBRANCH  16  19
ENDBRANCH  12  15
BRANCH  12  37
ATOM     37  C   UNL     1      -7.191   2.173 131.154  0.00  0.00    +0.000 C 
ATOM     38  C   UNL     1      -8.312   1.135 131.204  0.00  0.00    +0.000 C 
ATOM     39  C   UNL     1      -5.850   1.666 130.548  0.00  0.00    +0.000 C 
ENDBRANCH  12  37
BRANCH  14  40
ATOM     40  O   UNL     1      -9.436   6.026 133.356  0.00  0.00    +0.000 OA
ATOM     41  H   UNL     1     -10.390   5.865 133.492  0.00  0.00    +0.000 HD
ENDBRANCH  14  40
BRANCH   8  42
ATOM     42  C   UNL     1      -8.545   3.693 129.253  0.00  0.00    +0.000 C 
BRANCH  42  43
ATOM     43  C   UNL     1      -7.888   3.687 127.918  0.00  0.00    +0.000 C 
ATOM     44  C   UNL     1      -6.483   4.213 128.081  0.00  0.00    +0.000 C 
ATOM     45  C   UNL     1      -7.810   2.272 127.358  0.00  0.00    +0.000 C 
ENDBRANCH  42  43
ENDBRANCH   8  42
TORSDOF 6
ENDMDL
MODEL 9
REMARK VINA RESULT:      -8.7      4.134      7.919
REMARK  Name = Dihydro-alpha-ergocryptine
REMARK  11 active torsions:
REMARK  status: ('A' for Active; 'I' for Inactive)
REMARK    1  A    between atoms: C_9  and  C_10
REMARK    2  A    between atoms: C_10  and  C_11
REMARK    3  A    between atoms: C_11  and  C_12
REMARK    4  A    between atoms: C_11  and  C_13
REMARK    5  A    between atoms: C_17  and  N_18
REMARK    6  A    between atoms: C_17  and  C_43
REMARK    7  A    between atoms: C_19  and  C_21
REMARK    8  A    between atoms: N_23  and  C_24
REMARK    9  A    between atoms: C_41  and  O_42
REMARK   10  A    between atoms: C_43  and  C_44
REMARK   11  A    between atoms: C_43  and  C_45
REMARK                            x       y       z     vdW  Elec       q    Type
REMARK                         _______ _______ _______ _____ _____    ______ ____
ROOT
ATOM      1  C   UNL     1      -6.285  -2.727 132.039  0.00  0.00    +0.000 C 
ATOM      2  C   UNL     1      -5.984  -3.835 133.091  0.00  0.00    +0.000 C 
ATOM      3  C   UNL     1      -5.489  -5.088 132.324  0.00  0.00    +0.000 C 
ATOM      4  C   UNL     1      -5.334  -4.676 130.884  0.00  0.00    +0.000 C 
ATOM      5  N   UNL     1      -6.022  -3.408 130.786  0.00  0.00    +0.000 N 
ATOM      6  C   UNL     1      -6.977  -3.187 129.865  0.00  0.00    +0.000 C 
ATOM      7  O   UNL     1      -7.420  -4.085 129.167  0.00  0.00    +0.000 OA
ATOM      8  C   UNL     1      -7.412  -1.709 129.875  0.00  0.00    +0.000 C 
ATOM      9  N   UNL     1      -6.907  -0.886 131.140  0.00  0.00    +0.000 N 
ATOM     10  C   UNL     1      -7.144   0.455 131.483  0.00  0.00    +0.000 C 
ATOM     11  O   UNL     1      -6.489   1.034 132.363  0.00  0.00    +0.000 OA
ATOM     12  C   UNL     1      -8.255   1.039 130.699  0.00  0.00    +0.000 C 
ATOM     13  O   UNL     1      -8.795  -0.501 131.373  0.00  0.00    +0.000 OA
ATOM     14  C   UNL     1      -7.658  -1.493 132.124  0.00  0.00    +0.000 C 
ENDROOT
BRANCH  12  15
ATOM     15  N   UNL     1      -9.260   2.174 130.792  0.00  0.00    +0.000 N 
ATOM     16  C   UNL     1      -9.203   2.839 132.069  0.00  0.00    +0.000 C 
ATOM     17  O   UNL     1      -9.648   2.145 132.987  0.00  0.00    +0.000 OA
ATOM     18  H   UNL     1      -9.106   2.781 129.978  0.00  0.00    +0.000 HD
BRANCH  16  19
ATOM     19  C   UNL     1      -8.562   4.365 132.520  0.00  0.00    +0.000 C 
ATOM     20  C   UNL     1      -7.116   4.240 133.239  0.00  0.00    +0.000 C 
ATOM     21  N   UNL     1      -6.266   5.769 133.511  0.00  0.00    +0.000 NA
ATOM     22  C   UNL     1      -4.978   5.718 134.236  0.00  0.00    +0.000 C 
ATOM     23  C   UNL     1      -5.770   6.617 132.244  0.00  0.00    +0.000 C 
ATOM     24  C   UNL     1      -5.113   6.740 130.527  0.00  0.00    +0.000 C 
ATOM     25  C   UNL     1      -3.742   6.314 130.576  0.00  0.00    +0.000 A 
ATOM     26  C   UNL     1      -2.626   6.878 130.278  0.00  0.00    +0.000 A 
ATOM     27  N   UNL     1      -1.665   6.144 130.901  0.00  0.00    +0.000 N 
ATOM     28  C   UNL     1      -2.268   5.094 131.596  0.00  0.00    +0.000 A 
ATOM     29  C   UNL     1      -1.679   4.275 132.557  0.00  0.00    +0.000 A 
ATOM     30  C   UNL     1      -2.612   3.466 133.191  0.00  0.00    +0.000 A 
ATOM     31  C   UNL     1      -4.084   3.536 132.836  0.00  0.00    +0.000 A 
ATOM     32  C   UNL     1      -4.782   4.442 131.739  0.00  0.00    +0.000 A 
ATOM     33  C   UNL     1      -3.627   5.105 131.241  0.00  0.00    +0.000 A 
ATOM     34  C   UNL     1      -6.398   5.485 131.604  0.00  0.00    +0.000 C 
ATOM     35  C   UNL     1      -8.062   5.399 131.553  0.00  0.00    +0.000 C 
ATOM     36  H   UNL     1      -0.709   6.403 130.988  0.00  0.00    +0.000 HD
ENDBRANCH  16  19
ENDBRANCH  12  15
BRANCH  12  37
ATOM     37  C   UNL     1      -7.363   1.787 129.471  0.00  0.00    +0.000 C 
ATOM     38  C   UNL     1      -5.877   2.141 129.424  0.00  0.00    +0.000 C 
ATOM     39  C   UNL     1      -8.226   2.416 128.338  0.00  0.00    +0.000 C 
ENDBRANCH  12  37
BRANCH  14  40
ATOM     40  O   UNL     1      -7.528  -1.133 133.493  0.00  0.00    +0.000 OA
ATOM     41  H   UNL     1      -8.403  -0.827 133.800  0.00  0.00    +0.000 HD
ENDBRANCH  14  40
BRANCH   8  42
ATOM     42  C   UNL     1      -7.052  -0.877 128.719  0.00  0.00    +0.000 C 
BRANCH  42  43
ATOM     43  C   UNL     1      -6.937  -1.484 127.366  0.00  0.00    +0.000 C 
ATOM     44  C   UNL     1      -8.178  -1.134 126.584  0.00  0.00    +0.000 C 
ATOM     45  C   UNL     1      -5.727  -0.928 126.623  0.00  0.00    +0.000 C 
ENDBRANCH  42  43
ENDBRANCH   8  42
TORSDOF 6
ENDMDL
