MODEL 1
REMARK VINA RESULT:      -7.4      0.000      0.000
REMARK  Name = Dihydrostreptomycin
REMARK  19 active torsions:
REMARK  status: ('A' for Active; 'I' for Inactive)
REMARK    1  A    between atoms: C_1  and  N_2
REMARK    2  A    between atoms: N_2  and  C_3
REMARK    3  A    between atoms: C_4  and  O_5
REMARK    4  A    between atoms: C_6  and  O_7
REMARK    5  A    between atoms: C_8  and  C_9
REMARK    6  A    between atoms: C_9  and  O_10
REMARK    7  A    between atoms: C_12  and  O_13
REMARK    8  A    between atoms: O_13  and  C_14
REMARK    9  A    between atoms: C_15  and  O_16
REMARK   10  A    between atoms: O_16  and  C_17
REMARK   11  A    between atoms: C_18  and  O_19
REMARK   12  A    between atoms: C_20  and  O_21
REMARK   13  A    between atoms: C_22  and  N_23
REMARK   14  A    between atoms: C_27  and  O_28
REMARK   15  A    between atoms: C_29  and  N_30
REMARK   16  A    between atoms: C_35  and  C_36
REMARK   17  A    between atoms: C_37  and  O_38
REMARK   18  A    between atoms: C_37  and  C_39
REMARK   19  A    between atoms: C_39  and  O_40
REMARK                            x       y       z     vdW  Elec       q    Type
REMARK                         _______ _______ _______ _____ _____    ______ ____
ROOT
ATOM      1  O   UNL     1      -8.125   4.269 130.825  0.00  0.00    +0.000 OA
ENDROOT
BRANCH   1   2
ATOM      2  C   UNL     1      -8.747   5.359 130.241  0.00  0.00    +0.000 C 
ATOM      3  C   UNL     1      -9.415   5.318 128.854  0.00  0.00    +0.000 C 
ATOM      4  C   UNL     1     -10.186   6.625 128.641  0.00  0.00    +0.000 C 
ATOM      5  C   UNL     1     -11.215   6.933 129.744  0.00  0.00    +0.000 C 
ATOM      6  C   UNL     1     -10.535   6.811 131.147  0.00  0.00    +0.000 C 
ATOM      7  C   UNL     1      -9.866   5.452 131.300  0.00  0.00    +0.000 C 
BRANCH   7   8
ATOM      8  N   UNL     1      -9.394   5.172 132.702  0.00  0.00    +0.000 N 
ATOM      9  C   UNL     1      -9.275   3.936 133.297  0.00  0.00    +0.000 C 
ATOM     10  N   UNL     1     -10.021   2.907 132.823  0.00  0.00    +0.000 N 
ATOM     11  N   UNL     1      -8.424   3.652 134.224  0.00  0.00    +0.000 NA
ATOM     12  H   UNL     1      -8.746   5.866 133.048  0.00  0.00    +0.000 HD
ATOM     13  H   UNL     1     -10.145   2.987 131.821  0.00  0.00    +0.000 HD
ATOM     14  H   UNL     1      -9.445   2.061 132.918  0.00  0.00    +0.000 HD
ATOM     15  H   UNL     1      -7.899   4.484 134.483  0.00  0.00    +0.000 HD
ENDBRANCH   7   8
BRANCH   5  16
ATOM     16  N   UNL     1     -11.779   8.289 129.644  0.00  0.00    +0.000 N 
ATOM     17  C   UNL     1     -12.785   8.784 128.897  0.00  0.00    +0.000 C 
ATOM     18  N   UNL     1     -13.432   8.011 128.031  0.00  0.00    +0.000 N 
ATOM     19  N   UNL     1     -13.199  10.016 128.986  0.00  0.00    +0.000 NA
ATOM     20  H   UNL     1     -11.467   8.885 130.410  0.00  0.00    +0.000 HD
ATOM     21  H   UNL     1     -12.909   7.256 127.591  0.00  0.00    +0.000 HD
ATOM     22  H   UNL     1     -13.939   8.531 127.325  0.00  0.00    +0.000 HD
ATOM     23  H   UNL     1     -12.678  10.512 129.699  0.00  0.00    +0.000 HD
ENDBRANCH   5  16
BRANCH   3  24
ATOM     24  O   UNL     1      -8.476   5.273 127.785  0.00  0.00    +0.000 OA
ATOM     25  H   UNL     1      -7.706   4.731 128.030  0.00  0.00    +0.000 HD
ENDBRANCH   3  24
BRANCH   4  26
ATOM     26  O   UNL     1     -10.770   6.498 127.334  0.00  0.00    +0.000 OA
ATOM     27  H   UNL     1     -10.596   5.596 127.002  0.00  0.00    +0.000 HD
ENDBRANCH   4  26
BRANCH   6  28
ATOM     28  O   UNL     1     -11.514   6.993 132.172  0.00  0.00    +0.000 OA
ATOM     29  H   UNL     1     -11.079   7.457 132.913  0.00  0.00    +0.000 HD
ENDBRANCH   6  28
ENDBRANCH   1   2
BRANCH   1  31
ATOM     30  C   UNL     1      -5.900   4.746 130.128  0.00  0.00    +0.000 C 
ATOM     31  C   UNL     1      -6.881   3.767 130.668  0.00  0.00    +0.000 C 
ATOM     32  O   UNL     1      -6.354   3.196 131.892  0.00  0.00    +0.000 OA
ATOM     33  C   UNL     1      -5.112   3.841 132.199  0.00  0.00    +0.000 C 
ATOM     34  C   UNL     1      -3.971   2.890 131.826  0.00  0.00    +0.000 C 
ATOM     35  C   UNL     1      -5.157   5.153 131.410  0.00  0.00    +0.000 C 
BRANCH  35  36
ATOM     36  O   UNL     1      -3.867   5.699 131.135  0.00  0.00    +0.000 OA
ATOM     37  H   UNL     1      -3.670   5.457 130.214  0.00  0.00    +0.000 HD
ENDBRANCH  35  36
BRANCH  30  38
ATOM     38  O   UNL     1      -5.061   4.009 129.255  0.00  0.00    +0.000 OA
BRANCH  38  44
ATOM     39  C   UNL     1      -3.568   4.303 127.400  0.00  0.00    +0.000 C 
ATOM     40  C   UNL     1      -3.449   2.788 127.115  0.00  0.00    +0.000 C 
ATOM     41  C   UNL     1      -4.626   2.141 126.357  0.00  0.00    +0.000 C 
ATOM     42  C   UNL     1      -5.921   2.616 126.944  0.00  0.00    +0.000 C 
ATOM     43  O   UNL     1      -5.904   4.050 126.992  0.00  0.00    +0.000 OA
ATOM     44  C   UNL     1      -4.959   4.578 127.943  0.00  0.00    +0.000 C 
BRANCH  39  46
ATOM     45  C   UNL     1      -2.357   6.301 128.190  0.00  0.00    +0.000 C 
ATOM     46  N   UNL     1      -2.520   4.852 128.310  0.00  0.00    +0.000 NA
ATOM     47  H   UNL     1      -2.809   4.654 129.266  0.00  0.00    +0.000 HD
ENDBRANCH  39  46
BRANCH  41  48
ATOM     48  O   UNL     1      -4.557   0.717 126.498  0.00  0.00    +0.000 OA
ATOM     49  H   UNL     1      -3.656   0.430 126.249  0.00  0.00    +0.000 HD
ENDBRANCH  41  48
BRANCH  40  50
ATOM     50  O   UNL     1      -2.232   2.548 126.409  0.00  0.00    +0.000 OA
ATOM     51  H   UNL     1      -1.864   3.422 126.192  0.00  0.00    +0.000 HD
ENDBRANCH  40  50
BRANCH  42  52
ATOM     52  C   UNL     1      -7.206   2.013 126.326  0.00  0.00    +0.000 C 
BRANCH  52  53
ATOM     53  O   UNL     1      -8.402   2.612 126.796  0.00  0.00    +0.000 OA
ATOM     54  H   UNL     1      -8.378   2.575 127.765  0.00  0.00    +0.000 HD
ENDBRANCH  52  53
ENDBRANCH  42  52
ENDBRANCH  38  44
ENDBRANCH  30  38
BRANCH  35  55
ATOM     55  C   UNL     1      -5.937   6.225 132.195  0.00  0.00    +0.000 C 
BRANCH  55  56
ATOM     56  O   UNL     1      -6.256   5.727 133.497  0.00  0.00    +0.000 OA
ATOM     57  H   UNL     1      -5.392   5.463 133.875  0.00  0.00    +0.000 HD
ENDBRANCH  55  56
ENDBRANCH  35  55
ENDBRANCH   1  31
TORSDOF 17
ENDMDL
MODEL 2
REMARK VINA RESULT:      -6.8      2.064      5.647
REMARK  Name = Dihydrostreptomycin
REMARK  19 active torsions:
REMARK  status: ('A' for Active; 'I' for Inactive)
REMARK    1  A    between atoms: C_1  and  N_2
REMARK    2  A    between atoms: N_2  and  C_3
REMARK    3  A    between atoms: C_4  and  O_5
REMARK    4  A    between atoms: C_6  and  O_7
REMARK    5  A    between atoms: C_8  and  C_9
REMARK    6  A    between atoms: C_9  and  O_10
REMARK    7  A    between atoms: C_12  and  O_13
REMARK    8  A    between atoms: O_13  and  C_14
REMARK    9  A    between atoms: C_15  and  O_16
REMARK   10  A    between atoms: O_16  and  C_17
REMARK   11  A    between atoms: C_18  and  O_19
REMARK   12  A    between atoms: C_20  and  O_21
REMARK   13  A    between atoms: C_22  and  N_23
REMARK   14  A    between atoms: C_27  and  O_28
REMARK   15  A    between atoms: C_29  and  N_30
REMARK   16  A    between atoms: C_35  and  C_36
REMARK   17  A    between atoms: C_37  and  O_38
REMARK   18  A    between atoms: C_37  and  C_39
REMARK   19  A    between atoms: C_39  and  O_40
REMARK                            x       y       z     vdW  Elec       q    Type
REMARK                         _______ _______ _______ _____ _____    ______ ____
ROOT
ATOM      1  O   UNL     1      -8.307   3.602 129.840  0.00  0.00    +0.000 OA
ENDROOT
BRANCH   1   2
ATOM      2  C   UNL     1      -8.185   3.712 131.215  0.00  0.00    +0.000 C 
ATOM      3  C   UNL     1      -6.833   3.823 131.945  0.00  0.00    +0.000 C 
ATOM      4  C   UNL     1      -7.095   4.155 133.418  0.00  0.00    +0.000 C 
ATOM      5  C   UNL     1      -7.949   5.419 133.634  0.00  0.00    +0.000 C 
ATOM      6  C   UNL     1      -9.240   5.338 132.754  0.00  0.00    +0.000 C 
ATOM      7  C   UNL     1      -8.878   5.088 131.296  0.00  0.00    +0.000 C 
BRANCH   7   8
ATOM      8  N   UNL     1     -10.046   5.231 130.358  0.00  0.00    +0.000 N 
ATOM      9  C   UNL     1     -10.335   6.319 129.565  0.00  0.00    +0.000 C 
ATOM     10  N   UNL     1      -9.848   7.535 129.921  0.00  0.00    +0.000 N 
ATOM     11  N   UNL     1     -10.962   6.256 128.440  0.00  0.00    +0.000 NA
ATOM     12  H   UNL     1     -10.366   4.347 129.986  0.00  0.00    +0.000 HD
ATOM     13  H   UNL     1      -8.939   7.442 130.359  0.00  0.00    +0.000 HD
ATOM     14  H   UNL     1      -9.633   8.030 129.045  0.00  0.00    +0.000 HD
ATOM     15  H   UNL     1     -11.255   5.300 128.257  0.00  0.00    +0.000 HD
ENDBRANCH   7   8
BRANCH   5  16
ATOM     16  N   UNL     1      -8.378   5.593 135.031  0.00  0.00    +0.000 N 
ATOM     17  C   UNL     1      -7.731   6.079 136.108  0.00  0.00    +0.000 C 
ATOM     18  N   UNL     1      -6.462   6.465 136.022  0.00  0.00    +0.000 N 
ATOM     19  N   UNL     1      -8.297   6.223 137.274  0.00  0.00    +0.000 NA
ATOM     20  H   UNL     1      -9.389   5.501 135.130  0.00  0.00    +0.000 HD
ATOM     21  H   UNL     1      -5.867   5.980 135.354  0.00  0.00    +0.000 HD
ATOM     22  H   UNL     1      -5.994   6.518 136.919  0.00  0.00    +0.000 HD
ATOM     23  H   UNL     1      -9.270   5.946 137.229  0.00  0.00    +0.000 HD
ENDBRANCH   5  16
BRANCH   3  24
ATOM     24  O   UNL     1      -6.113   2.595 131.974  0.00  0.00    +0.000 OA
ATOM     25  H   UNL     1      -5.160   2.762 132.081  0.00  0.00    +0.000 HD
ENDBRANCH   3  24
BRANCH   4  26
ATOM     26  O   UNL     1      -5.791   4.239 134.014  0.00  0.00    +0.000 OA
ATOM     27  H   UNL     1      -5.897   4.353 134.979  0.00  0.00    +0.000 HD
ENDBRANCH   4  26
BRANCH   6  28
ATOM     28  O   UNL     1      -9.978   6.555 132.874  0.00  0.00    +0.000 OA
ATOM     29  H   UNL     1      -9.700   6.986 133.705  0.00  0.00    +0.000 HD
ENDBRANCH   6  28
ENDBRANCH   1   2
BRANCH   1  31
ATOM     30  C   UNL     1      -6.382   3.379 128.459  0.00  0.00    +0.000 C 
ATOM     31  C   UNL     1      -7.591   4.157 128.839  0.00  0.00    +0.000 C 
ATOM     32  O   UNL     1      -8.390   4.401 127.654  0.00  0.00    +0.000 OA
ATOM     33  C   UNL     1      -7.778   3.728 126.546  0.00  0.00    +0.000 C 
ATOM     34  C   UNL     1      -7.054   4.771 125.691  0.00  0.00    +0.000 C 
ATOM     35  C   UNL     1      -6.879   2.669 127.190  0.00  0.00    +0.000 C 
BRANCH  35  36
ATOM     36  O   UNL     1      -5.804   2.246 126.351  0.00  0.00    +0.000 OA
ATOM     37  H   UNL     1      -5.377   1.510 126.823  0.00  0.00    +0.000 HD
ENDBRANCH  35  36
BRANCH  30  38
ATOM     38  O   UNL     1      -5.385   4.340 128.156  0.00  0.00    +0.000 OA
BRANCH  38  44
ATOM     39  C   UNL     1      -3.033   4.815 128.220  0.00  0.00    +0.000 C 
ATOM     40  C   UNL     1      -3.229   6.346 128.132  0.00  0.00    +0.000 C 
ATOM     41  C   UNL     1      -3.638   7.058 129.437  0.00  0.00    +0.000 C 
ATOM     42  C   UNL     1      -4.726   6.278 130.113  0.00  0.00    +0.000 C 
ATOM     43  O   UNL     1      -4.302   4.914 130.237  0.00  0.00    +0.000 OA
ATOM     44  C   UNL     1      -4.213   4.227 128.974  0.00  0.00    +0.000 C 
BRANCH  39  46
ATOM     45  C   UNL     1      -1.840   3.069 126.951  0.00  0.00    +0.000 C 
ATOM     46  N   UNL     1      -2.844   4.133 126.906  0.00  0.00    +0.000 NA
ATOM     47  H   UNL     1      -3.732   3.705 126.652  0.00  0.00    +0.000 HD
ENDBRANCH  39  46
BRANCH  41  48
ATOM     48  O   UNL     1      -4.140   8.365 129.129  0.00  0.00    +0.000 OA
ATOM     49  H   UNL     1      -4.627   8.696 129.909  0.00  0.00    +0.000 HD
ENDBRANCH  41  48
BRANCH  40  50
ATOM     50  O   UNL     1      -2.034   6.932 127.618  0.00  0.00    +0.000 OA
ATOM     51  H   UNL     1      -1.366   6.855 128.322  0.00  0.00    +0.000 HD
ENDBRANCH  40  50
BRANCH  42  52
ATOM     52  C   UNL     1      -5.290   6.893 131.417  0.00  0.00    +0.000 C 
BRANCH  52  53
ATOM     53  O   UNL     1      -4.562   6.535 132.580  0.00  0.00    +0.000 OA
ATOM     54  H   UNL     1      -3.700   6.201 132.285  0.00  0.00    +0.000 HD
ENDBRANCH  52  53
ENDBRANCH  42  52
ENDBRANCH  38  44
ENDBRANCH  30  38
BRANCH  35  55
ATOM     55  C   UNL     1      -7.697   1.409 127.536  0.00  0.00    +0.000 C 
BRANCH  55  56
ATOM     56  O   UNL     1      -9.038   1.566 127.067  0.00  0.00    +0.000 OA
ATOM     57  H   UNL     1      -8.955   2.133 126.273  0.00  0.00    +0.000 HD
ENDBRANCH  55  56
ENDBRANCH  35  55
ENDBRANCH   1  31
TORSDOF 17
ENDMDL
MODEL 3
REMARK VINA RESULT:      -6.8      3.955      6.715
REMARK  Name = Dihydrostreptomycin
REMARK  19 active torsions:
REMARK  status: ('A' for Active; 'I' for Inactive)
REMARK    1  A    between atoms: C_1  and  N_2
REMARK    2  A    between atoms: N_2  and  C_3
REMARK    3  A    between atoms: C_4  and  O_5
REMARK    4  A    between atoms: C_6  and  O_7
REMARK    5  A    between atoms: C_8  and  C_9
REMARK    6  A    between atoms: C_9  and  O_10
REMARK    7  A    between atoms: C_12  and  O_13
REMARK    8  A    between atoms: O_13  and  C_14
REMARK    9  A    between atoms: C_15  and  O_16
REMARK   10  A    between atoms: O_16  and  C_17
REMARK   11  A    between atoms: C_18  and  O_19
REMARK   12  A    between atoms: C_20  and  O_21
REMARK   13  A    between atoms: C_22  and  N_23
REMARK   14  A    between atoms: C_27  and  O_28
REMARK   15  A    between atoms: C_29  and  N_30
REMARK   16  A    between atoms: C_35  and  C_36
REMARK   17  A    between atoms: C_37  and  O_38
REMARK   18  A    between atoms: C_37  and  C_39
REMARK   19  A    between atoms: C_39  and  O_40
REMARK                            x       y       z     vdW  Elec       q    Type
REMARK                         _______ _______ _______ _____ _____    ______ ____
ROOT
ATOM      1  O   UNL     1      -7.056   0.332 128.926  0.00  0.00    +0.000 OA
ENDROOT
BRANCH   1   2
ATOM      2  C   UNL     1      -7.363   1.567 129.469  0.00  0.00    +0.000 C 
ATOM      3  C   UNL     1      -8.604   2.390 129.072  0.00  0.00    +0.000 C 
ATOM      4  C   UNL     1      -8.735   3.577 130.032  0.00  0.00    +0.000 C 
ATOM      5  C   UNL     1      -8.785   3.178 131.519  0.00  0.00    +0.000 C 
ATOM      6  C   UNL     1      -7.596   2.217 131.846  0.00  0.00    +0.000 C 
ATOM      7  C   UNL     1      -7.594   1.027 130.896  0.00  0.00    +0.000 C 
BRANCH   7   8
ATOM      8  N   UNL     1      -6.627  -0.055 131.295  0.00  0.00    +0.000 N 
ATOM      9  C   UNL     1      -6.930  -1.230 131.947  0.00  0.00    +0.000 C 
ATOM     10  N   UNL     1      -8.058  -1.287 132.699  0.00  0.00    +0.000 N 
ATOM     11  N   UNL     1      -6.265  -2.328 131.818  0.00  0.00    +0.000 NA
ATOM     12  H   UNL     1      -5.822  -0.112 130.685  0.00  0.00    +0.000 HD
ATOM     13  H   UNL     1      -8.790  -0.720 132.289  0.00  0.00    +0.000 HD
ATOM     14  H   UNL     1      -8.424  -2.244 132.602  0.00  0.00    +0.000 HD
ATOM     15  H   UNL     1      -5.462  -2.180 131.213  0.00  0.00    +0.000 HD
ENDBRANCH   7   8
BRANCH   5  16
ATOM     16  N   UNL     1      -8.683   4.332 132.428  0.00  0.00    +0.000 N 
ATOM     17  C   UNL     1      -9.574   5.285 132.762  0.00  0.00    +0.000 C 
ATOM     18  N   UNL     1     -10.780   5.315 132.204  0.00  0.00    +0.000 N 
ATOM     19  N   UNL     1      -9.330   6.209 133.649  0.00  0.00    +0.000 NA
ATOM     20  H   UNL     1      -7.865   4.264 133.032  0.00  0.00    +0.000 HD
ATOM     21  H   UNL     1     -10.866   4.970 131.250  0.00  0.00    +0.000 HD
ATOM     22  H   UNL     1     -11.241   6.213 132.284  0.00  0.00    +0.000 HD
ATOM     23  H   UNL     1      -8.409   6.078 134.048  0.00  0.00    +0.000 HD
ENDBRANCH   5  16
BRANCH   3  24
ATOM     24  O   UNL     1      -8.491   2.979 127.781  0.00  0.00    +0.000 OA
ATOM     25  H   UNL     1      -8.451   2.290 127.095  0.00  0.00    +0.000 HD
ENDBRANCH   3  24
BRANCH   4  26
ATOM     26  O   UNL     1      -9.907   4.279 129.589  0.00  0.00    +0.000 OA
ATOM     27  H   UNL     1     -10.221   3.870 128.760  0.00  0.00    +0.000 HD
ENDBRANCH   4  26
BRANCH   6  28
ATOM     28  O   UNL     1      -7.704   1.764 133.197  0.00  0.00    +0.000 OA
ATOM     29  H   UNL     1      -7.507   0.808 133.202  0.00  0.00    +0.000 HD
ENDBRANCH   6  28
ENDBRANCH   1   2
BRANCH   1  31
ATOM     30  C   UNL     1      -7.105  -0.728 126.795  0.00  0.00    +0.000 C 
ATOM     31  C   UNL     1      -7.762  -0.477 128.106  0.00  0.00    +0.000 C 
ATOM     32  O   UNL     1      -8.087  -1.748 128.723  0.00  0.00    +0.000 OA
ATOM     33  C   UNL     1      -7.579  -2.801 127.894  0.00  0.00    +0.000 C 
ATOM     34  C   UNL     1      -8.753  -3.416 127.127  0.00  0.00    +0.000 C 
ATOM     35  C   UNL     1      -6.511  -2.126 127.029  0.00  0.00    +0.000 C 
BRANCH  35  36
ATOM     36  O   UNL     1      -6.250  -2.813 125.805  0.00  0.00    +0.000 OA
ATOM     37  H   UNL     1      -6.828  -3.595 125.815  0.00  0.00    +0.000 HD
ENDBRANCH  35  36
BRANCH  30  38
ATOM     38  O   UNL     1      -8.152  -0.764 125.840  0.00  0.00    +0.000 OA
BRANCH  38  44
ATOM     39  C   UNL     1      -8.894  -0.762 123.558  0.00  0.00    +0.000 C 
ATOM     40  C   UNL     1      -9.714   0.540 123.711  0.00  0.00    +0.000 C 
ATOM     41  C   UNL     1      -8.913   1.858 123.689  0.00  0.00    +0.000 C 
ATOM     42  C   UNL     1      -7.699   1.720 124.559  0.00  0.00    +0.000 C 
ATOM     43  O   UNL     1      -6.989   0.536 124.170  0.00  0.00    +0.000 OA
ATOM     44  C   UNL     1      -7.693  -0.681 124.484  0.00  0.00    +0.000 C 
BRANCH  39  46
ATOM     45  C   UNL     1      -8.988  -3.211 123.285  0.00  0.00    +0.000 C 
ATOM     46  N   UNL     1      -9.666  -2.018 123.791  0.00  0.00    +0.000 NA
ATOM     47  H   UNL     1      -9.772  -2.130 124.798  0.00  0.00    +0.000 HD
ENDBRANCH  39  46
BRANCH  41  48
ATOM     48  O   UNL     1      -9.726   2.917 124.208  0.00  0.00    +0.000 OA
ATOM     49  H   UNL     1      -9.358   3.766 123.891  0.00  0.00    +0.000 HD
ENDBRANCH  41  48
BRANCH  40  50
ATOM     50  O   UNL     1     -10.719   0.571 122.699  0.00  0.00    +0.000 OA
ATOM     51  H   UNL     1     -10.830   1.505 122.451  0.00  0.00    +0.000 HD
ENDBRANCH  40  50
BRANCH  42  52
ATOM     52  C   UNL     1      -6.812   2.983 124.687  0.00  0.00    +0.000 C 
BRANCH  52  53
ATOM     53  O   UNL     1      -7.105   3.988 123.732  0.00  0.00    +0.000 OA
ATOM     54  H   UNL     1      -7.916   4.433 124.026  0.00  0.00    +0.000 HD
ENDBRANCH  52  53
ENDBRANCH  42  52
ENDBRANCH  38  44
ENDBRANCH  30  38
BRANCH  35  55
ATOM     55  C   UNL     1      -5.174  -2.048 127.791  0.00  0.00    +0.000 C 
BRANCH  55  56
ATOM     56  O   UNL     1      -5.268  -2.804 129.001  0.00  0.00    +0.000 OA
ATOM     57  H   UNL     1      -4.377  -3.193 129.115  0.00  0.00    +0.000 HD
ENDBRANCH  55  56
ENDBRANCH  35  55
ENDBRANCH   1  31
TORSDOF 17
ENDMDL
MODEL 4
REMARK VINA RESULT:      -6.7      4.856      8.231
REMARK  Name = Dihydrostreptomycin
REMARK  19 active torsions:
REMARK  status: ('A' for Active; 'I' for Inactive)
REMARK    1  A    between atoms: C_1  and  N_2
REMARK    2  A    between atoms: N_2  and  C_3
REMARK    3  A    between atoms: C_4  and  O_5
REMARK    4  A    between atoms: C_6  and  O_7
REMARK    5  A    between atoms: C_8  and  C_9
REMARK    6  A    between atoms: C_9  and  O_10
REMARK    7  A    between atoms: C_12  and  O_13
REMARK    8  A    between atoms: O_13  and  C_14
REMARK    9  A    between atoms: C_15  and  O_16
REMARK   10  A    between atoms: O_16  and  C_17
REMARK   11  A    between atoms: C_18  and  O_19
REMARK   12  A    between atoms: C_20  and  O_21
REMARK   13  A    between atoms: C_22  and  N_23
REMARK   14  A    between atoms: C_27  and  O_28
REMARK   15  A    between atoms: C_29  and  N_30
REMARK   16  A    between atoms: C_35  and  C_36
REMARK   17  A    between atoms: C_37  and  O_38
REMARK   18  A    between atoms: C_37  and  C_39
REMARK   19  A    between atoms: C_39  and  O_40
REMARK                            x       y       z     vdW  Elec       q    Type
REMARK                         _______ _______ _______ _____ _____    ______ ____
ROOT
ATOM      1  O   UNL     1      -7.784   0.298 129.911  0.00  0.00    +0.000 OA
ENDROOT
BRANCH   1   2
ATOM      2  C   UNL     1      -7.166  -0.475 130.880  0.00  0.00    +0.000 C 
ATOM      3  C   UNL     1      -7.694  -0.619 132.320  0.00  0.00    +0.000 C 
ATOM      4  C   UNL     1      -6.895  -1.717 133.029  0.00  0.00    +0.000 C 
ATOM      5  C   UNL     1      -6.903  -3.072 132.296  0.00  0.00    +0.000 C 
ATOM      6  C   UNL     1      -6.513  -2.861 130.797  0.00  0.00    +0.000 C 
ATOM      7  C   UNL     1      -7.412  -1.814 130.153  0.00  0.00    +0.000 C 
BRANCH   7   8
ATOM      8  N   UNL     1      -7.253  -1.726 128.659  0.00  0.00    +0.000 N 
ATOM      9  C   UNL     1      -8.034  -2.349 127.711  0.00  0.00    +0.000 C 
ATOM     10  N   UNL     1      -8.719  -3.467 128.060  0.00  0.00    +0.000 N 
ATOM     11  N   UNL     1      -8.245  -1.890 126.524  0.00  0.00    +0.000 NA
ATOM     12  H   UNL     1      -6.843  -0.853 128.354  0.00  0.00    +0.000 HD
ATOM     13  H   UNL     1      -9.022  -3.414 129.025  0.00  0.00    +0.000 HD
ATOM     14  H   UNL     1      -9.604  -3.441 127.538  0.00  0.00    +0.000 HD
ATOM     15  H   UNL     1      -7.710  -1.038 126.379  0.00  0.00    +0.000 HD
ENDBRANCH   7   8
BRANCH   5  16
ATOM     16  N   UNL     1      -5.954  -4.042 132.867  0.00  0.00    +0.000 N 
ATOM     17  C   UNL     1      -6.058  -4.880 133.916  0.00  0.00    +0.000 C 
ATOM     18  N   UNL     1      -7.153  -4.894 134.669  0.00  0.00    +0.000 N 
ATOM     19  N   UNL     1      -5.126  -5.730 134.244  0.00  0.00    +0.000 NA
ATOM     20  H   UNL     1      -5.175  -4.225 132.234  0.00  0.00    +0.000 HD
ATOM     21  H   UNL     1      -7.664  -4.019 134.773  0.00  0.00    +0.000 HD
ATOM     22  H   UNL     1      -7.013  -5.316 135.579  0.00  0.00    +0.000 HD
ATOM     23  H   UNL     1      -4.355  -5.676 133.590  0.00  0.00    +0.000 HD
ENDBRANCH   5  16
BRANCH   3  24
ATOM     24  O   UNL     1      -7.486   0.547 133.109  0.00  0.00    +0.000 OA
ATOM     25  H   UNL     1      -7.434   0.315 134.053  0.00  0.00    +0.000 HD
ENDBRANCH   3  24
BRANCH   4  26
ATOM     26  O   UNL     1      -7.451  -1.781 134.352  0.00  0.00    +0.000 OA
ATOM     27  H   UNL     1      -6.868  -1.284 134.959  0.00  0.00    +0.000 HD
ENDBRANCH   4  26
BRANCH   6  28
ATOM     28  O   UNL     1      -6.624  -4.100 130.094  0.00  0.00    +0.000 OA
ATOM     29  H   UNL     1      -5.914  -4.120 129.423  0.00  0.00    +0.000 HD
ENDBRANCH   6  28
ENDBRANCH   1   2
BRANCH   1  31
ATOM     30  C   UNL     1      -8.721   2.245 128.913  0.00  0.00    +0.000 C 
ATOM     31  C   UNL     1      -7.534   1.556 129.488  0.00  0.00    +0.000 C 
ATOM     32  O   UNL     1      -6.961   2.388 130.526  0.00  0.00    +0.000 OA
ATOM     33  C   UNL     1      -7.792   3.543 130.696  0.00  0.00    +0.000 C 
ATOM     34  C   UNL     1      -7.103   4.734 130.025  0.00  0.00    +0.000 C 
ATOM     35  C   UNL     1      -9.139   3.137 130.091  0.00  0.00    +0.000 C 
BRANCH  35  36
ATOM     36  O   UNL     1      -9.934   4.247 129.673  0.00  0.00    +0.000 OA
ATOM     37  H   UNL     1      -9.534   4.557 128.842  0.00  0.00    +0.000 HD
ENDBRANCH  35  36
BRANCH  30  38
ATOM     38  O   UNL     1      -8.231   3.015 127.829  0.00  0.00    +0.000 OA
BRANCH  38  44
ATOM     39  C   UNL     1      -8.012   2.357 125.531  0.00  0.00    +0.000 C 
ATOM     40  C   UNL     1      -7.841   3.805 125.019  0.00  0.00    +0.000 C 
ATOM     41  C   UNL     1      -6.446   4.435 125.206  0.00  0.00    +0.000 C 
ATOM     42  C   UNL     1      -5.949   4.148 126.592  0.00  0.00    +0.000 C 
ATOM     43  O   UNL     1      -6.049   2.737 126.831  0.00  0.00    +0.000 OA
ATOM     44  C   UNL     1      -7.408   2.268 126.921  0.00  0.00    +0.000 C 
BRANCH  39  46
ATOM     45  C   UNL     1      -9.658   0.833 124.505  0.00  0.00    +0.000 C 
ATOM     46  N   UNL     1      -9.418   1.854 125.526  0.00  0.00    +0.000 NA
ATOM     47  H   UNL     1      -9.595   1.427 126.433  0.00  0.00    +0.000 HD
ENDBRANCH  39  46
BRANCH  41  48
ATOM     48  O   UNL     1      -6.539   5.855 125.042  0.00  0.00    +0.000 OA
ATOM     49  H   UNL     1      -7.218   6.039 124.362  0.00  0.00    +0.000 HD
ENDBRANCH  41  48
BRANCH  40  50
ATOM     50  O   UNL     1      -8.208   3.850 123.641  0.00  0.00    +0.000 OA
ATOM     51  H   UNL     1      -7.605   3.244 123.176  0.00  0.00    +0.000 HD
ENDBRANCH  40  50
BRANCH  42  52
ATOM     52  C   UNL     1      -4.576   4.762 126.959  0.00  0.00    +0.000 C 
BRANCH  52  53
ATOM     53  O   UNL     1      -4.642   6.127 127.338  0.00  0.00    +0.000 OA
ATOM     54  H   UNL     1      -5.294   6.192 128.053  0.00  0.00    +0.000 HD
ENDBRANCH  52  53
ENDBRANCH  42  52
ENDBRANCH  38  44
ENDBRANCH  30  38
BRANCH  35  55
ATOM     55  C   UNL     1      -9.975   2.353 131.121  0.00  0.00    +0.000 C 
BRANCH  55  56
ATOM     56  O   UNL     1      -9.391   2.493 132.418  0.00  0.00    +0.000 OA
ATOM     57  H   UNL     1      -8.426   2.502 132.252  0.00  0.00    +0.000 HD
ENDBRANCH  55  56
ENDBRANCH  35  55
ENDBRANCH   1  31
TORSDOF 17
ENDMDL
MODEL 5
REMARK VINA RESULT:      -6.6      3.781      6.229
REMARK  Name = Dihydrostreptomycin
REMARK  19 active torsions:
REMARK  status: ('A' for Active; 'I' for Inactive)
REMARK    1  A    between atoms: C_1  and  N_2
REMARK    2  A    between atoms: N_2  and  C_3
REMARK    3  A    between atoms: C_4  and  O_5
REMARK    4  A    between atoms: C_6  and  O_7
REMARK    5  A    between atoms: C_8  and  C_9
REMARK    6  A    between atoms: C_9  and  O_10
REMARK    7  A    between atoms: C_12  and  O_13
REMARK    8  A    between atoms: O_13  and  C_14
REMARK    9  A    between atoms: C_15  and  O_16
REMARK   10  A    between atoms: O_16  and  C_17
REMARK   11  A    between atoms: C_18  and  O_19
REMARK   12  A    between atoms: C_20  and  O_21
REMARK   13  A    between atoms: C_22  and  N_23
REMARK   14  A    between atoms: C_27  and  O_28
REMARK   15  A    between atoms: C_29  and  N_30
REMARK   16  A    between atoms: C_35  and  C_36
REMARK   17  A    between atoms: C_37  and  O_38
REMARK   18  A    between atoms: C_37  and  C_39
REMARK   19  A    between atoms: C_39  and  O_40
REMARK                            x       y       z     vdW  Elec       q    Type
REMARK                         _______ _______ _______ _____ _____    ______ ____
ROOT
ATOM      1  O   UNL     1      -7.517   0.931 128.936  0.00  0.00    +0.000 OA
ENDROOT
BRANCH   1   2
ATOM      2  C   UNL     1      -8.461   1.700 129.595  0.00  0.00    +0.000 C 
ATOM      3  C   UNL     1      -8.660   1.681 131.123  0.00  0.00    +0.000 C 
ATOM      4  C   UNL     1      -9.620   2.812 131.507  0.00  0.00    +0.000 C 
ATOM      5  C   UNL     1      -9.175   4.205 131.021  0.00  0.00    +0.000 C 
ATOM      6  C   UNL     1      -8.832   4.145 129.497  0.00  0.00    +0.000 C 
ATOM      7  C   UNL     1      -7.811   3.049 129.222  0.00  0.00    +0.000 C 
BRANCH   7   8
ATOM      8  N   UNL     1      -7.258   3.085 127.822  0.00  0.00    +0.000 N 
ATOM      9  C   UNL     1      -6.003   3.507 127.445  0.00  0.00    +0.000 C 
ATOM     10  N   UNL     1      -5.332   4.367 128.253  0.00  0.00    +0.000 N 
ATOM     11  N   UNL     1      -5.364   3.067 126.414  0.00  0.00    +0.000 NA
ATOM     12  H   UNL     1      -7.660   2.380 127.219  0.00  0.00    +0.000 HD
ATOM     13  H   UNL     1      -5.544   4.182 129.226  0.00  0.00    +0.000 HD
ATOM     14  H   UNL     1      -4.337   4.118 128.181  0.00  0.00    +0.000 HD
ATOM     15  H   UNL     1      -5.944   2.410 125.899  0.00  0.00    +0.000 HD
ENDBRANCH   7   8
BRANCH   5  16
ATOM     16  N   UNL     1     -10.212   5.235 131.200  0.00  0.00    +0.000 N 
ATOM     17  C   UNL     1     -10.495   6.043 132.240  0.00  0.00    +0.000 C 
ATOM     18  N   UNL     1      -9.809   5.958 133.374  0.00  0.00    +0.000 N 
ATOM     19  N   UNL     1     -11.423   6.957 132.198  0.00  0.00    +0.000 NA
ATOM     20  H   UNL     1     -10.647   5.490 130.314  0.00  0.00    +0.000 HD
ATOM     21  H   UNL     1      -9.442   5.045 133.636  0.00  0.00    +0.000 HD
ATOM     22  H   UNL     1     -10.284   6.373 134.167  0.00  0.00    +0.000 HD
ATOM     23  H   UNL     1     -11.858   6.976 131.285  0.00  0.00    +0.000 HD
ENDBRANCH   5  16
BRANCH   3  24
ATOM     24  O   UNL     1      -9.294   0.494 131.587  0.00  0.00    +0.000 OA
ATOM     25  H   UNL     1      -9.395   0.519 132.555  0.00  0.00    +0.000 HD
ENDBRANCH   3  24
BRANCH   4  26
ATOM     26  O   UNL     1      -9.745   2.719 132.935  0.00  0.00    +0.000 OA
ATOM     27  H   UNL     1      -9.809   1.775 133.181  0.00  0.00    +0.000 HD
ENDBRANCH   4  26
BRANCH   6  28
ATOM     28  O   UNL     1      -8.319   5.409 129.072  0.00  0.00    +0.000 OA
ATOM     29  H   UNL     1      -7.362   5.298 128.911  0.00  0.00    +0.000 HD
ENDBRANCH   6  28
ENDBRANCH   1   2
BRANCH   1  31
ATOM     30  C   UNL     1      -6.395  -0.640 127.543  0.00  0.00    +0.000 C 
ATOM     31  C   UNL     1      -7.638  -0.225 128.247  0.00  0.00    +0.000 C 
ATOM     32  O   UNL     1      -8.101  -1.320 129.075  0.00  0.00    +0.000 OA
ATOM     33  C   UNL     1      -7.148  -2.387 128.995  0.00  0.00    +0.000 C 
ATOM     34  C   UNL     1      -7.718  -3.471 128.076  0.00  0.00    +0.000 C 
ATOM     35  C   UNL     1      -5.864  -1.717 128.501  0.00  0.00    +0.000 C 
BRANCH  35  36
ATOM     36  O   UNL     1      -4.963  -2.616 127.855  0.00  0.00    +0.000 OA
ATOM     37  H   UNL     1      -4.879  -3.379 128.453  0.00  0.00    +0.000 HD
ENDBRANCH  35  36
BRANCH  30  38
ATOM     38  O   UNL     1      -6.820  -1.205 126.314  0.00  0.00    +0.000 OA
BRANCH  38  44
ATOM     39  C   UNL     1      -6.334  -1.635 124.003  0.00  0.00    +0.000 C 
ATOM     40  C   UNL     1      -7.810  -1.514 123.558  0.00  0.00    +0.000 C 
ATOM     41  C   UNL     1      -8.362  -0.082 123.409  0.00  0.00    +0.000 C 
ATOM     42  C   UNL     1      -7.946   0.741 124.592  0.00  0.00    +0.000 C 
ATOM     43  O   UNL     1      -6.526   0.619 124.758  0.00  0.00    +0.000 OA
ATOM     44  C   UNL     1      -6.111  -0.696 125.175  0.00  0.00    +0.000 C 
BRANCH  39  46
ATOM     45  C   UNL     1      -4.739  -3.462 123.555  0.00  0.00    +0.000 C 
ATOM     46  N   UNL     1      -5.894  -3.022 124.338  0.00  0.00    +0.000 NA
ATOM     47  H   UNL     1      -5.621  -3.028 125.319  0.00  0.00    +0.000 HD
ENDBRANCH  39  46
BRANCH  41  48
ATOM     48  O   UNL     1      -9.794  -0.126 123.367  0.00  0.00    +0.000 OA
ATOM     49  H   UNL     1     -10.062  -0.474 122.493  0.00  0.00    +0.000 HD
ENDBRANCH  41  48
BRANCH  40  50
ATOM     50  O   UNL     1      -7.978  -2.225 122.332  0.00  0.00    +0.000 OA
ATOM     51  H   UNL     1      -8.688  -1.769 121.846  0.00  0.00    +0.000 HD
ENDBRANCH  40  50
BRANCH  42  52
ATOM     52  C   UNL     1      -8.470   2.197 124.621  0.00  0.00    +0.000 C 
BRANCH  52  53
ATOM     53  O   UNL     1      -9.881   2.296 124.726  0.00  0.00    +0.000 OA
ATOM     54  H   UNL     1     -10.081   2.560 125.638  0.00  0.00    +0.000 HD
ENDBRANCH  52  53
ENDBRANCH  42  52
ENDBRANCH  38  44
ENDBRANCH  30  38
BRANCH  35  55
ATOM     55  C   UNL     1      -5.098  -1.090 129.682  0.00  0.00    +0.000 C 
BRANCH  55  56
ATOM     56  O   UNL     1      -4.447   0.108 129.248  0.00  0.00    +0.000 OA
ATOM     57  H   UNL     1      -3.536   0.031 129.597  0.00  0.00    +0.000 HD
ENDBRANCH  55  56
ENDBRANCH  35  55
ENDBRANCH   1  31
TORSDOF 17
ENDMDL
MODEL 6
REMARK VINA RESULT:      -6.5      3.652      7.011
REMARK  Name = Dihydrostreptomycin
REMARK  19 active torsions:
REMARK  status: ('A' for Active; 'I' for Inactive)
REMARK    1  A    between atoms: C_1  and  N_2
REMARK    2  A    between atoms: N_2  and  C_3
REMARK    3  A    between atoms: C_4  and  O_5
REMARK    4  A    between atoms: C_6  and  O_7
REMARK    5  A    between atoms: C_8  and  C_9
REMARK    6  A    between atoms: C_9  and  O_10
REMARK    7  A    between atoms: C_12  and  O_13
REMARK    8  A    between atoms: O_13  and  C_14
REMARK    9  A    between atoms: C_15  and  O_16
REMARK   10  A    between atoms: O_16  and  C_17
REMARK   11  A    between atoms: C_18  and  O_19
REMARK   12  A    between atoms: C_20  and  O_21
REMARK   13  A    between atoms: C_22  and  N_23
REMARK   14  A    between atoms: C_27  and  O_28
REMARK   15  A    between atoms: C_29  and  N_30
REMARK   16  A    between atoms: C_35  and  C_36
REMARK   17  A    between atoms: C_37  and  O_38
REMARK   18  A    between atoms: C_37  and  C_39
REMARK   19  A    between atoms: C_39  and  O_40
REMARK                            x       y       z     vdW  Elec       q    Type
REMARK                         _______ _______ _______ _____ _____    ______ ____
ROOT
ATOM      1  O   UNL     1      -6.460   3.456 127.909  0.00  0.00    +0.000 OA
ENDROOT
BRANCH   1   2
ATOM      2  C   UNL     1      -7.351   3.254 126.868  0.00  0.00    +0.000 C 
ATOM      3  C   UNL     1      -7.193   3.892 125.475  0.00  0.00    +0.000 C 
ATOM      4  C   UNL     1      -8.225   3.269 124.529  0.00  0.00    +0.000 C 
ATOM      5  C   UNL     1      -8.155   1.732 124.448  0.00  0.00    +0.000 C 
ATOM      6  C   UNL     1      -8.160   1.129 125.891  0.00  0.00    +0.000 C 
ATOM      7  C   UNL     1      -7.051   1.747 126.732  0.00  0.00    +0.000 C 
BRANCH   7   8
ATOM      8  N   UNL     1      -6.844   1.052 128.052  0.00  0.00    +0.000 N 
ATOM      9  C   UNL     1      -5.820   0.189 128.375  0.00  0.00    +0.000 C 
ATOM     10  N   UNL     1      -5.180  -0.468 127.375  0.00  0.00    +0.000 N 
ATOM     11  N   UNL     1      -5.351   0.028 129.565  0.00  0.00    +0.000 NA
ATOM     12  H   UNL     1      -7.215   1.571 128.836  0.00  0.00    +0.000 HD
ATOM     13  H   UNL     1      -5.126   0.109 126.544  0.00  0.00    +0.000 HD
ATOM     14  H   UNL     1      -4.196  -0.551 127.664  0.00  0.00    +0.000 HD
ATOM     15  H   UNL     1      -5.882   0.587 130.228  0.00  0.00    +0.000 HD
ENDBRANCH   7   8
BRANCH   5  16
ATOM     16  N   UNL     1      -9.289   1.141 123.719  0.00  0.00    +0.000 N 
ATOM     17  C   UNL     1      -9.403  -0.011 123.031  0.00  0.00    +0.000 C 
ATOM     18  N   UNL     1      -8.360  -0.821 122.883  0.00  0.00    +0.000 N 
ATOM     19  N   UNL     1     -10.522  -0.413 122.495  0.00  0.00    +0.000 NA
ATOM     20  H   UNL     1     -10.167   1.605 123.948  0.00  0.00    +0.000 HD
ATOM     21  H   UNL     1      -7.435  -0.397 122.848  0.00  0.00    +0.000 HD
ATOM     22  H   UNL     1      -8.463  -1.478 122.119  0.00  0.00    +0.000 HD
ATOM     23  H   UNL     1     -11.264   0.245 122.698  0.00  0.00    +0.000 HD
ENDBRANCH   5  16
BRANCH   3  24
ATOM     24  O   UNL     1      -7.486   5.285 125.463  0.00  0.00    +0.000 OA
ATOM     25  H   UNL     1      -7.386   5.661 126.355  0.00  0.00    +0.000 HD
ENDBRANCH   3  24
BRANCH   4  26
ATOM     26  O   UNL     1      -8.005   3.917 123.266  0.00  0.00    +0.000 OA
ATOM     27  H   UNL     1      -7.877   4.873 123.425  0.00  0.00    +0.000 HD
ENDBRANCH   4  26
BRANCH   6  28
ATOM     28  O   UNL     1      -7.988  -0.288 125.819  0.00  0.00    +0.000 OA
ATOM     29  H   UNL     1      -8.070  -0.545 124.881  0.00  0.00    +0.000 HD
ENDBRANCH   6  28
ENDBRANCH   1   2
BRANCH   1  31
ATOM     30  C   UNL     1      -6.140   3.653 130.259  0.00  0.00    +0.000 C 
ATOM     31  C   UNL     1      -6.507   4.293 128.968  0.00  0.00    +0.000 C 
ATOM     32  O   UNL     1      -5.692   5.476 128.777  0.00  0.00    +0.000 OA
ATOM     33  C   UNL     1      -4.755   5.564 129.858  0.00  0.00    +0.000 C 
ATOM     34  C   UNL     1      -5.244   6.640 130.831  0.00  0.00    +0.000 C 
ATOM     35  C   UNL     1      -4.694   4.143 130.427  0.00  0.00    +0.000 C 
BRANCH  35  36
ATOM     36  O   UNL     1      -4.261   4.091 131.786  0.00  0.00    +0.000 OA
ATOM     37  H   UNL     1      -5.072   4.018 132.317  0.00  0.00    +0.000 HD
ENDBRANCH  35  36
BRANCH  30  38
ATOM     38  O   UNL     1      -6.997   4.229 131.231  0.00  0.00    +0.000 OA
BRANCH  38  44
ATOM     39  C   UNL     1      -7.864   3.379 133.301  0.00  0.00    +0.000 C 
ATOM     40  C   UNL     1      -8.443   4.742 133.744  0.00  0.00    +0.000 C 
ATOM     41  C   UNL     1      -9.778   5.160 133.095  0.00  0.00    +0.000 C 
ATOM     42  C   UNL     1      -9.720   4.901 131.620  0.00  0.00    +0.000 C 
ATOM     43  O   UNL     1      -9.307   3.544 131.408  0.00  0.00    +0.000 OA
ATOM     44  C   UNL     1      -7.938   3.300 131.786  0.00  0.00    +0.000 C 
BRANCH  39  46
ATOM     45  C   UNL     1      -6.204   1.673 133.946  0.00  0.00    +0.000 C 
ATOM     46  N   UNL     1      -6.480   3.100 133.785  0.00  0.00    +0.000 NA
ATOM     47  H   UNL     1      -5.833   3.461 133.086  0.00  0.00    +0.000 HD
ENDBRANCH  39  46
BRANCH  41  48
ATOM     48  O   UNL     1      -9.989   6.562 133.303  0.00  0.00    +0.000 OA
ATOM     49  H   UNL     1      -9.707   7.035 132.495  0.00  0.00    +0.000 HD
ENDBRANCH  41  48
BRANCH  40  50
ATOM     50  O   UNL     1      -8.577   4.743 135.165  0.00  0.00    +0.000 OA
ATOM     51  H   UNL     1      -9.313   5.345 135.370  0.00  0.00    +0.000 HD
ENDBRANCH  40  50
BRANCH  42  52
ATOM     52  C   UNL     1     -10.971   5.321 130.809  0.00  0.00    +0.000 C 
BRANCH  52  53
ATOM     53  O   UNL     1     -12.011   5.867 131.604  0.00  0.00    +0.000 OA
ATOM     54  H   UNL     1     -11.601   6.206 132.415  0.00  0.00    +0.000 HD
ENDBRANCH  52  53
ENDBRANCH  42  52
ENDBRANCH  38  44
ENDBRANCH  30  38
BRANCH  35  55
ATOM     55  C   UNL     1      -3.710   3.281 129.612  0.00  0.00    +0.000 C 
BRANCH  55  56
ATOM     56  O   UNL     1      -2.996   4.110 128.692  0.00  0.00    +0.000 OA
ATOM     57  H   UNL     1      -2.416   4.659 129.257  0.00  0.00    +0.000 HD
ENDBRANCH  55  56
ENDBRANCH  35  55
ENDBRANCH   1  31
TORSDOF 17
ENDMDL
MODEL 7
REMARK VINA RESULT:      -6.5      3.138      4.728
REMARK  Name = Dihydrostreptomycin
REMARK  19 active torsions:
REMARK  status: ('A' for Active; 'I' for Inactive)
REMARK    1  A    between atoms: C_1  and  N_2
REMARK    2  A    between atoms: N_2  and  C_3
REMARK    3  A    between atoms: C_4  and  O_5
REMARK    4  A    between atoms: C_6  and  O_7
REMARK    5  A    between atoms: C_8  and  C_9
REMARK    6  A    between atoms: C_9  and  O_10
REMARK    7  A    between atoms: C_12  and  O_13
REMARK    8  A    between atoms: O_13  and  C_14
REMARK    9  A    between atoms: C_15  and  O_16
REMARK   10  A    between atoms: O_16  and  C_17
REMARK   11  A    between atoms: C_18  and  O_19
REMARK   12  A    between atoms: C_20  and  O_21
REMARK   13  A    between atoms: C_22  and  N_23
REMARK   14  A    between atoms: C_27  and  O_28
REMARK   15  A    between atoms: C_29  and  N_30
REMARK   16  A    between atoms: C_35  and  C_36
REMARK   17  A    between atoms: C_37  and  O_38
REMARK   18  A    between atoms: C_37  and  C_39
REMARK   19  A    between atoms: C_39  and  O_40
REMARK                            x       y       z     vdW  Elec       q    Type
REMARK                         _______ _______ _______ _____ _____    ______ ____
ROOT
ATOM      1  O   UNL     1      -6.646   3.554 130.990  0.00  0.00    +0.000 OA
ENDROOT
BRANCH   1   2
ATOM      2  C   UNL     1      -7.652   4.481 131.206  0.00  0.00    +0.000 C 
ATOM      3  C   UNL     1      -7.770   5.807 130.430  0.00  0.00    +0.000 C 
ATOM      4  C   UNL     1      -9.114   6.459 130.772  0.00  0.00    +0.000 C 
ATOM      5  C   UNL     1     -10.334   5.553 130.517  0.00  0.00    +0.000 C 
ATOM      6  C   UNL     1     -10.105   4.161 131.190  0.00  0.00    +0.000 C 
ATOM      7  C   UNL     1      -8.788   3.553 130.729  0.00  0.00    +0.000 C 
BRANCH   7   8
ATOM      8  N   UNL     1      -8.611   2.118 131.149  0.00  0.00    +0.000 N 
ATOM      9  C   UNL     1      -8.074   1.101 130.393  0.00  0.00    +0.000 C 
ATOM     10  N   UNL     1      -8.095   1.210 129.041  0.00  0.00    +0.000 N 
ATOM     11  N   UNL     1      -7.456   0.079 130.880  0.00  0.00    +0.000 NA
ATOM     12  H   UNL     1      -8.482   2.011 132.146  0.00  0.00    +0.000 HD
ATOM     13  H   UNL     1      -7.985   2.176 128.758  0.00  0.00    +0.000 HD
ATOM     14  H   UNL     1      -7.231   0.769 128.700  0.00  0.00    +0.000 HD
ATOM     15  H   UNL     1      -7.474   0.112 131.896  0.00  0.00    +0.000 HD
ENDBRANCH   7   8
BRANCH   5  16
ATOM     16  N   UNL     1     -11.586   6.106 131.059  0.00  0.00    +0.000 N 
ATOM     17  C   UNL     1     -12.422   7.051 130.587  0.00  0.00    +0.000 C 
ATOM     18  N   UNL     1     -12.150   7.696 129.457  0.00  0.00    +0.000 N 
ATOM     19  N   UNL     1     -13.538   7.374 131.177  0.00  0.00    +0.000 NA
ATOM     20  H   UNL     1     -11.955   5.532 131.816  0.00  0.00    +0.000 HD
ATOM     21  H   UNL     1     -11.170   7.841 129.221  0.00  0.00    +0.000 HD
ATOM     22  H   UNL     1     -12.657   8.567 129.356  0.00  0.00    +0.000 HD
ATOM     23  H   UNL     1     -13.678   6.802 132.000  0.00  0.00    +0.000 HD
ENDBRANCH   5  16
BRANCH   3  24
ATOM     24  O   UNL     1      -6.793   6.767 130.815  0.00  0.00    +0.000 OA
ATOM     25  H   UNL     1      -6.245   7.020 130.052  0.00  0.00    +0.000 HD
ENDBRANCH   3  24
BRANCH   4  26
ATOM     26  O   UNL     1      -9.137   7.676 130.010  0.00  0.00    +0.000 OA
ATOM     27  H   UNL     1      -8.268   8.115 130.098  0.00  0.00    +0.000 HD
ENDBRANCH   4  26
BRANCH   6  28
ATOM     28  O   UNL     1     -11.188   3.287 130.864  0.00  0.00    +0.000 OA
ATOM     29  H   UNL     1     -10.998   2.899 129.988  0.00  0.00    +0.000 HD
ENDBRANCH   6  28
ENDBRANCH   1   2
BRANCH   1  31
ATOM     30  C   UNL     1      -5.245   4.135 132.824  0.00  0.00    +0.000 C 
ATOM     31  C   UNL     1      -5.404   3.454 131.511  0.00  0.00    +0.000 C 
ATOM     32  O   UNL     1      -4.962   2.080 131.633  0.00  0.00    +0.000 OA
ATOM     33  C   UNL     1      -4.610   1.834 133.001  0.00  0.00    +0.000 C 
ATOM     34  C   UNL     1      -3.083   1.834 133.112  0.00  0.00    +0.000 C 
ATOM     35  C   UNL     1      -5.325   2.938 133.784  0.00  0.00    +0.000 C 
BRANCH  35  36
ATOM     36  O   UNL     1      -4.726   3.220 135.049  0.00  0.00    +0.000 OA
ATOM     37  H   UNL     1      -3.847   3.585 134.847  0.00  0.00    +0.000 HD
ENDBRANCH  35  36
BRANCH  30  38
ATOM     38  O   UNL     1      -3.945   4.700 132.809  0.00  0.00    +0.000 OA
BRANCH  38  44
ATOM     39  C   UNL     1      -2.611   6.424 133.814  0.00  0.00    +0.000 C 
ATOM     40  C   UNL     1      -1.475   6.303 132.773  0.00  0.00    +0.000 C 
ATOM     41  C   UNL     1      -1.724   6.978 131.409  0.00  0.00    +0.000 C 
ATOM     42  C   UNL     1      -3.109   6.651 130.935  0.00  0.00    +0.000 C 
ATOM     43  O   UNL     1      -4.038   6.967 131.981  0.00  0.00    +0.000 OA
ATOM     44  C   UNL     1      -3.925   6.099 133.125  0.00  0.00    +0.000 C 
BRANCH  39  46
ATOM     45  C   UNL     1      -3.075   6.158 136.222  0.00  0.00    +0.000 C 
ATOM     46  N   UNL     1      -2.428   5.591 135.038  0.00  0.00    +0.000 NA
ATOM     47  H   UNL     1      -2.858   4.684 134.860  0.00  0.00    +0.000 HD
ENDBRANCH  39  46
BRANCH  41  48
ATOM     48  O   UNL     1      -0.785   6.474 130.451  0.00  0.00    +0.000 OA
ATOM     49  H   UNL     1      -1.065   6.776 129.563  0.00  0.00    +0.000 HD
ENDBRANCH  41  48
BRANCH  40  50
ATOM     50  O   UNL     1      -0.271   6.810 133.348  0.00  0.00    +0.000 OA
ATOM     51  H   UNL     1      -0.071   6.240 134.110  0.00  0.00    +0.000 HD
ENDBRANCH  40  50
BRANCH  42  52
ATOM     52  C   UNL     1      -3.498   7.212 129.545  0.00  0.00    +0.000 C 
BRANCH  52  53
ATOM     53  O   UNL     1      -4.578   8.130 129.580  0.00  0.00    +0.000 OA
ATOM     54  H   UNL     1      -4.539   8.582 130.438  0.00  0.00    +0.000 HD
ENDBRANCH  52  53
ENDBRANCH  42  52
ENDBRANCH  38  44
ENDBRANCH  30  38
BRANCH  35  55
ATOM     55  C   UNL     1      -6.787   2.539 134.063  0.00  0.00    +0.000 C 
BRANCH  55  56
ATOM     56  O   UNL     1      -6.982   1.167 133.711  0.00  0.00    +0.000 OA
ATOM     57  H   UNL     1      -6.095   0.855 133.438  0.00  0.00    +0.000 HD
ENDBRANCH  55  56
ENDBRANCH  35  55
ENDBRANCH   1  31
TORSDOF 17
ENDMDL
MODEL 8
REMARK VINA RESULT:      -6.3      4.153      7.034
REMARK  Name = Dihydrostreptomycin
REMARK  19 active torsions:
REMARK  status: ('A' for Active; 'I' for Inactive)
REMARK    1  A    between atoms: C_1  and  N_2
REMARK    2  A    between atoms: N_2  and  C_3
REMARK    3  A    between atoms: C_4  and  O_5
REMARK    4  A    between atoms: C_6  and  O_7
REMARK    5  A    between atoms: C_8  and  C_9
REMARK    6  A    between atoms: C_9  and  O_10
REMARK    7  A    between atoms: C_12  and  O_13
REMARK    8  A    between atoms: O_13  and  C_14
REMARK    9  A    between atoms: C_15  and  O_16
REMARK   10  A    between atoms: O_16  and  C_17
REMARK   11  A    between atoms: C_18  and  O_19
REMARK   12  A    between atoms: C_20  and  O_21
REMARK   13  A    between atoms: C_22  and  N_23
REMARK   14  A    between atoms: C_27  and  O_28
REMARK   15  A    between atoms: C_29  and  N_30
REMARK   16  A    between atoms: C_35  and  C_36
REMARK   17  A    between atoms: C_37  and  O_38
REMARK   18  A    between atoms: C_37  and  C_39
REMARK   19  A    between atoms: C_39  and  O_40
REMARK                            x       y       z     vdW  Elec       q    Type
REMARK                         _______ _______ _______ _____ _____    ______ ____
ROOT
ATOM      1  O   UNL     1      -6.170   1.482 126.959  0.00  0.00    +0.000 OA
ENDROOT
BRANCH   1   2
ATOM      2  C   UNL     1      -6.683   2.284 125.954  0.00  0.00    +0.000 C 
ATOM      3  C   UNL     1      -5.831   3.269 125.130  0.00  0.00    +0.000 C 
ATOM      4  C   UNL     1      -6.681   3.806 123.974  0.00  0.00    +0.000 C 
ATOM      5  C   UNL     1      -7.285   2.709 123.077  0.00  0.00    +0.000 C 
ATOM      6  C   UNL     1      -8.008   1.644 123.965  0.00  0.00    +0.000 C 
ATOM      7  C   UNL     1      -7.065   1.107 125.032  0.00  0.00    +0.000 C 
BRANCH   7   8
ATOM      8  N   UNL     1      -7.613  -0.084 125.771  0.00  0.00    +0.000 N 
ATOM      9  C   UNL     1      -7.273  -1.403 125.571  0.00  0.00    +0.000 C 
ATOM     10  N   UNL     1      -6.764  -1.772 124.368  0.00  0.00    +0.000 N 
ATOM     11  N   UNL     1      -7.311  -2.313 126.485  0.00  0.00    +0.000 NA
ATOM     12  H   UNL     1      -7.902   0.134 126.715  0.00  0.00    +0.000 HD
ATOM     13  H   UNL     1      -6.200  -1.028 123.975  0.00  0.00    +0.000 HD
ATOM     14  H   UNL     1      -6.074  -2.511 124.558  0.00  0.00    +0.000 HD
ATOM     15  H   UNL     1      -7.678  -1.924 127.349  0.00  0.00    +0.000 HD
ENDBRANCH   7   8
BRANCH   5  16
ATOM     16  N   UNL     1      -8.273   3.228 122.118  0.00  0.00    +0.000 N 
ATOM     17  C   UNL     1      -8.132   3.731 120.876  0.00  0.00    +0.000 C 
ATOM     18  N   UNL     1      -6.927   3.867 120.331  0.00  0.00    +0.000 N 
ATOM     19  N   UNL     1      -9.141   4.088 120.133  0.00  0.00    +0.000 NA
ATOM     20  H   UNL     1      -9.226   2.980 122.385  0.00  0.00    +0.000 HD
ATOM     21  H   UNL     1      -6.146   4.055 120.956  0.00  0.00    +0.000 HD
ATOM     22  H   UNL     1      -6.906   4.516 119.554  0.00  0.00    +0.000 HD
ATOM     23  H   UNL     1     -10.013   3.907 120.614  0.00  0.00    +0.000 HD
ENDBRANCH   5  16
BRANCH   3  24
ATOM     24  O   UNL     1      -5.449   4.426 125.867  0.00  0.00    +0.000 OA
ATOM     25  H   UNL     1      -4.569   4.303 126.261  0.00  0.00    +0.000 HD
ENDBRANCH   3  24
BRANCH   4  26
ATOM     26  O   UNL     1      -5.813   4.707 123.267  0.00  0.00    +0.000 OA
ATOM     27  H   UNL     1      -6.292   5.055 122.490  0.00  0.00    +0.000 HD
ENDBRANCH   4  26
BRANCH   6  28
ATOM     28  O   UNL     1      -8.477   0.573 123.142  0.00  0.00    +0.000 OA
ATOM     29  H   UNL     1      -8.959  -0.050 123.719  0.00  0.00    +0.000 HD
ENDBRANCH   6  28
ENDBRANCH   1   2
BRANCH   1  31
ATOM     30  C   UNL     1      -6.425   2.471 129.110  0.00  0.00    +0.000 C 
ATOM     31  C   UNL     1      -5.546   1.798 128.115  0.00  0.00    +0.000 C 
ATOM     32  O   UNL     1      -4.917   0.651 128.738  0.00  0.00    +0.000 OA
ATOM     33  C   UNL     1      -5.433   0.515 130.069  0.00  0.00    +0.000 C 
ATOM     34  C   UNL     1      -4.374   1.027 131.049  0.00  0.00    +0.000 C 
ATOM     35  C   UNL     1      -6.747   1.301 130.052  0.00  0.00    +0.000 C 
BRANCH  35  36
ATOM     36  O   UNL     1      -7.161   1.747 131.344  0.00  0.00    +0.000 OA
ATOM     37  H   UNL     1      -7.672   2.560 131.189  0.00  0.00    +0.000 HD
ENDBRANCH  35  36
BRANCH  30  38
ATOM     38  O   UNL     1      -5.611   3.440 129.748  0.00  0.00    +0.000 OA
BRANCH  38  44
ATOM     39  C   UNL     1      -6.050   5.587 130.728  0.00  0.00    +0.000 C 
ATOM     40  C   UNL     1      -4.613   5.753 131.274  0.00  0.00    +0.000 C 
ATOM     41  C   UNL     1      -3.541   6.186 130.253  0.00  0.00    +0.000 C 
ATOM     42  C   UNL     1      -3.695   5.385 128.995  0.00  0.00    +0.000 C 
ATOM     43  O   UNL     1      -5.060   5.471 128.561  0.00  0.00    +0.000 OA
ATOM     44  C   UNL     1      -5.980   4.791 129.437  0.00  0.00    +0.000 C 
BRANCH  39  46
ATOM     45  C   UNL     1      -8.411   5.134 131.279  0.00  0.00    +0.000 C 
ATOM     46  N   UNL     1      -7.015   4.970 131.685  0.00  0.00    +0.000 NA
ATOM     47  H   UNL     1      -6.820   3.970 131.716  0.00  0.00    +0.000 HD
ENDBRANCH  39  46
BRANCH  41  48
ATOM     48  O   UNL     1      -2.239   5.934 130.796  0.00  0.00    +0.000 OA
ATOM     49  H   UNL     1      -1.683   6.721 130.629  0.00  0.00    +0.000 HD
ENDBRANCH  41  48
BRANCH  40  50
ATOM     50  O   UNL     1      -4.640   6.673 132.364  0.00  0.00    +0.000 OA
ATOM     51  H   UNL     1      -4.035   6.318 133.038  0.00  0.00    +0.000 HD
ENDBRANCH  40  50
BRANCH  42  52
ATOM     52  C   UNL     1      -2.653   5.663 127.884  0.00  0.00    +0.000 C 
BRANCH  52  53
ATOM     53  O   UNL     1      -1.912   6.856 128.080  0.00  0.00    +0.000 OA
ATOM     54  H   UNL     1      -2.099   7.435 127.325  0.00  0.00    +0.000 HD
ENDBRANCH  52  53
ENDBRANCH  42  52
ENDBRANCH  38  44
ENDBRANCH  30  38
BRANCH  35  55
ATOM     55  C   UNL     1      -7.887   0.428 129.495  0.00  0.00    +0.000 C 
BRANCH  55  56
ATOM     56  O   UNL     1      -7.409  -0.902 129.277  0.00  0.00    +0.000 OA
ATOM     57  H   UNL     1      -8.019  -1.468 129.794  0.00  0.00    +0.000 HD
ENDBRANCH  55  56
ENDBRANCH  35  55
ENDBRANCH   1  31
TORSDOF 17
ENDMDL
MODEL 9
REMARK VINA RESULT:      -6.3      4.819      7.565
REMARK  Name = Dihydrostreptomycin
REMARK  19 active torsions:
REMARK  status: ('A' for Active; 'I' for Inactive)
REMARK    1  A    between atoms: C_1  and  N_2
REMARK    2  A    between atoms: N_2  and  C_3
REMARK    3  A    between atoms: C_4  and  O_5
REMARK    4  A    between atoms: C_6  and  O_7
REMARK    5  A    between atoms: C_8  and  C_9
REMARK    6  A    between atoms: C_9  and  O_10
REMARK    7  A    between atoms: C_12  and  O_13
REMARK    8  A    between atoms: O_13  and  C_14
REMARK    9  A    between atoms: C_15  and  O_16
REMARK   10  A    between atoms: O_16  and  C_17
REMARK   11  A    between atoms: C_18  and  O_19
REMARK   12  A    between atoms: C_20  and  O_21
REMARK   13  A    between atoms: C_22  and  N_23
REMARK   14  A    between atoms: C_27  and  O_28
REMARK   15  A    between atoms: C_29  and  N_30
REMARK   16  A    between atoms: C_35  and  C_36
REMARK   17  A    between atoms: C_37  and  O_38
REMARK   18  A    between atoms: C_37  and  C_39
REMARK   19  A    between atoms: C_39  and  O_40
REMARK                            x       y       z     vdW  Elec       q    Type
REMARK                         _______ _______ _______ _____ _____    ______ ____
ROOT
ATOM      1  O   UNL     1      -7.720  -0.336 129.807  0.00  0.00    +0.000 OA
ENDROOT
BRANCH   1   2
ATOM      2  C   UNL     1      -8.403   0.576 130.594  0.00  0.00    +0.000 C 
ATOM      3  C   UNL     1      -7.901   1.063 131.967  0.00  0.00    +0.000 C 
ATOM      4  C   UNL     1      -8.788   2.222 132.432  0.00  0.00    +0.000 C 
ATOM      5  C   UNL     1      -8.878   3.386 131.428  0.00  0.00    +0.000 C 
ATOM      6  C   UNL     1      -9.237   2.831 130.011  0.00  0.00    +0.000 C 
ATOM      7  C   UNL     1      -8.255   1.744 129.597  0.00  0.00    +0.000 C 
BRANCH   7   8
ATOM      8  N   UNL     1      -8.394   1.329 128.157  0.00  0.00    +0.000 N 
ATOM      9  C   UNL     1      -7.579   1.701 127.112  0.00  0.00    +0.000 C 
ATOM     10  N   UNL     1      -6.864   2.850 127.218  0.00  0.00    +0.000 N 
ATOM     11  N   UNL     1      -7.364   0.983 126.062  0.00  0.00    +0.000 NA
ATOM     12  H   UNL     1      -8.826   0.421 128.046  0.00  0.00    +0.000 HD
ATOM     13  H   UNL     1      -6.578   3.006 128.177  0.00  0.00    +0.000 HD
ATOM     14  H   UNL     1      -5.972   2.684 126.734  0.00  0.00    +0.000 HD
ATOM     15  H   UNL     1      -7.924   0.135 126.099  0.00  0.00    +0.000 HD
ENDBRANCH   7   8
BRANCH   5  16
ATOM     16  N   UNL     1      -9.904   4.379 131.787  0.00  0.00    +0.000 N 
ATOM     17  C   UNL     1      -9.841   5.493 132.541  0.00  0.00    +0.000 C 
ATOM     18  N   UNL     1      -8.713   5.837 133.153  0.00  0.00    +0.000 N 
ATOM     19  N   UNL     1     -10.850   6.303 132.700  0.00  0.00    +0.000 NA
ATOM     20  H   UNL     1     -10.735   4.289 131.203  0.00  0.00    +0.000 HD
ATOM     21  H   UNL     1      -8.092   5.087 133.452  0.00  0.00    +0.000 HD
ATOM     22  H   UNL     1      -8.849   6.490 133.915  0.00  0.00    +0.000 HD
ATOM     23  H   UNL     1     -11.646   5.983 132.163  0.00  0.00    +0.000 HD
ENDBRANCH   5  16
BRANCH   3  24
ATOM     24  O   UNL     1      -8.026   0.078 132.987  0.00  0.00    +0.000 OA
ATOM     25  H   UNL     1      -7.217   0.042 133.527  0.00  0.00    +0.000 HD
ENDBRANCH   3  24
BRANCH   4  26
ATOM     26  O   UNL     1      -8.250   2.608 133.707  0.00  0.00    +0.000 OA
ATOM     27  H   UNL     1      -8.501   1.933 134.368  0.00  0.00    +0.000 HD
ENDBRANCH   4  26
BRANCH   6  28
ATOM     28  O   UNL     1      -9.216   3.897 129.059  0.00  0.00    +0.000 OA
ATOM     29  H   UNL     1     -10.133   4.217 128.957  0.00  0.00    +0.000 HD
ENDBRANCH   6  28
ENDBRANCH   1   2
BRANCH   1  31
ATOM     30  C   UNL     1      -6.504  -2.108 130.831  0.00  0.00    +0.000 C 
ATOM     31  C   UNL     1      -6.503  -0.903 129.958  0.00  0.00    +0.000 C 
ATOM     32  O   UNL     1      -5.884  -1.236 128.691  0.00  0.00    +0.000 OA
ATOM     33  C   UNL     1      -5.571  -2.635 128.690  0.00  0.00    +0.000 C 
ATOM     34  C   UNL     1      -4.066  -2.790 128.923  0.00  0.00    +0.000 C 
ATOM     35  C   UNL     1      -6.469  -3.228 129.780  0.00  0.00    +0.000 C 
BRANCH  35  36
ATOM     36  O   UNL     1      -5.977  -4.456 130.317  0.00  0.00    +0.000 OA
ATOM     37  H   UNL     1      -5.399  -4.205 131.059  0.00  0.00    +0.000 HD
ENDBRANCH  35  36
BRANCH  30  38
ATOM     38  O   UNL     1      -5.294  -2.050 131.567  0.00  0.00    +0.000 OA
BRANCH  38  44
ATOM     39  C   UNL     1      -4.232  -3.180 133.399  0.00  0.00    +0.000 C 
ATOM     40  C   UNL     1      -3.018  -2.222 133.428  0.00  0.00    +0.000 C 
ATOM     41  C   UNL     1      -3.244  -0.856 134.106  0.00  0.00    +0.000 C 
ATOM     42  C   UNL     1      -4.547  -0.277 133.644  0.00  0.00    +0.000 C 
ATOM     43  O   UNL     1      -5.576  -1.258 133.831  0.00  0.00    +0.000 OA
ATOM     44  C   UNL     1      -5.450  -2.392 132.952  0.00  0.00    +0.000 C 
BRANCH  39  46
ATOM     45  C   UNL     1      -4.364  -5.639 133.267  0.00  0.00    +0.000 C 
ATOM     46  N   UNL     1      -4.045  -4.399 132.559  0.00  0.00    +0.000 NA
ATOM     47  H   UNL     1      -4.681  -4.327 131.767  0.00  0.00    +0.000 HD
ENDBRANCH  39  46
BRANCH  41  48
ATOM     48  O   UNL     1      -2.190   0.041 133.731  0.00  0.00    +0.000 OA
ATOM     49  H   UNL     1      -1.482  -0.483 133.306  0.00  0.00    +0.000 HD
ENDBRANCH  41  48
BRANCH  40  50
ATOM     50  O   UNL     1      -1.920  -2.892 134.047  0.00  0.00    +0.000 OA
ATOM     51  H   UNL     1      -2.248  -3.224 134.900  0.00  0.00    +0.000 HD
ENDBRANCH  40  50
BRANCH  42  52
ATOM     52  C   UNL     1      -4.897   1.128 134.195  0.00  0.00    +0.000 C 
BRANCH  52  53
ATOM     53  O   UNL     1      -6.100   1.165 134.945  0.00  0.00    +0.000 OA
ATOM     54  H   UNL     1      -6.013   1.889 135.586  0.00  0.00    +0.000 HD
ENDBRANCH  52  53
ENDBRANCH  42  52
ENDBRANCH  38  44
ENDBRANCH  30  38
BRANCH  35  55
ATOM     55  C   UNL     1      -7.874  -3.517 129.219  0.00  0.00    +0.000 C 
BRANCH  55  56
ATOM     56  O   UNL     1      -7.999  -2.936 127.919  0.00  0.00    +0.000 OA
ATOM     57  H   UNL     1      -8.965  -2.893 127.762  0.00  0.00    +0.000 HD
ENDBRANCH  55  56
ENDBRANCH  35  55
ENDBRANCH   1  31
TORSDOF 17
ENDMDL
