MODEL 1
REMARK VINA RESULT:      -9.9      0.000      0.000
REMARK  Name = Dihydrotachysterol
REMARK  12 active torsions:
REMARK  status: ('A' for Active; 'I' for Inactive)
REMARK    1  A    between atoms: C_1  and  C_2
REMARK    2  A    between atoms: C_2  and  C_3
REMARK    3  A    between atoms: C_2  and  C_4
REMARK    4  A    between atoms: C_4  and  C_5
REMARK    5  A    between atoms: C_4  and  C_6
REMARK    6  A    between atoms: C_7  and  C_8
REMARK    7  A    between atoms: C_8  and  C_9
REMARK    8  A    between atoms: C_8  and  C_10
REMARK    9  A    between atoms: C_20  and  C_21
REMARK   10  A    between atoms: C_22  and  C_23
REMARK   11  A    between atoms: C_26  and  O_27
REMARK   12  A    between atoms: C_30  and  C_31
REMARK                            x       y       z     vdW  Elec       q    Type
REMARK                         _______ _______ _______ _____ _____    ______ ____
ROOT
ATOM      1  C   UNL     1      -5.185   5.360 132.078  0.00  0.00    +0.000 C 
ATOM      2  C   UNL     1      -4.929   6.661 131.274  0.00  0.00    +0.000 C 
ATOM      3  C   UNL     1      -6.293   7.226 130.880  0.00  0.00    +0.000 C 
ATOM      4  C   UNL     1      -7.284   6.512 131.806  0.00  0.00    +0.000 C 
ATOM      5  C   UNL     1      -8.774   6.464 131.518  0.00  0.00    +0.000 C 
ATOM      6  C   UNL     1      -9.522   5.673 132.573  0.00  0.00    +0.000 C 
ATOM      7  C   UNL     1      -8.923   4.281 132.829  0.00  0.00    +0.000 C 
ATOM      8  C   UNL     1      -7.398   4.323 133.033  0.00  0.00    +0.000 C 
ATOM      9  C   UNL     1      -6.718   5.074 131.871  0.00  0.00    +0.000 C 
ATOM     10  C   UNL     1      -7.057   4.314 130.572  0.00  0.00    +0.000 C 
ATOM     11  C   UNL     1      -9.328   7.033 130.435  0.00  0.00    +0.000 C 
ENDROOT
BRANCH  11  12
ATOM     12  C   UNL     1     -10.735   7.058 130.082  0.00  0.00    +0.000 C 
ATOM     13  C   UNL     1     -11.247   7.652 128.987  0.00  0.00    +0.000 C 
ATOM     14  C   UNL     1     -10.407   8.333 127.923  0.00  0.00    +0.000 C 
ATOM     15  C   UNL     1     -10.642   7.653 126.573  0.00  0.00    +0.000 C 
ATOM     16  C   UNL     1     -12.121   7.681 126.191  0.00  0.00    +0.000 C 
ATOM     17  C   UNL     1     -12.983   7.013 127.270  0.00  0.00    +0.000 C 
ATOM     18  C   UNL     1     -12.742   7.634 128.664  0.00  0.00    +0.000 C 
ATOM     19  C   UNL     1     -13.312   9.057 128.714  0.00  0.00    +0.000 C 
BRANCH  15  20
ATOM     20  O   UNL     1     -10.188   6.295 126.616  0.00  0.00    +0.000 OA
ATOM     21  H   UNL     1     -10.927   5.747 126.940  0.00  0.00    +0.000 HD
ENDBRANCH  15  20
ENDBRANCH  11  12
BRANCH   1  22
ATOM     22  C   UNL     1      -4.135   4.249 131.760  0.00  0.00    +0.000 C 
ATOM     23  C   UNL     1      -3.144   4.026 132.905  0.00  0.00    +0.000 C 
BRANCH  22  25
ATOM     24  C   UNL     1      -3.381   4.054 129.353  0.00  0.00    +0.000 C 
ATOM     25  C   UNL     1      -3.285   4.575 130.569  0.00  0.00    +0.000 C 
BRANCH  24  26
ATOM     26  C   UNL     1      -2.597   4.652 128.205  0.00  0.00    +0.000 C 
ATOM     27  C   UNL     1      -3.032   6.111 127.995  0.00  0.00    +0.000 C 
BRANCH  26  29
ATOM     28  C   UNL     1      -1.542   3.005 126.594  0.00  0.00    +0.000 C 
ATOM     29  C   UNL     1      -2.801   3.796 126.945  0.00  0.00    +0.000 C 
ATOM     30  C   UNL     1      -3.974   2.825 127.134  0.00  0.00    +0.000 C 
ENDBRANCH  26  29
ENDBRANCH  24  26
ENDBRANCH  22  25
ENDBRANCH   1  22
TORSDOF 6
ENDMDL
MODEL 2
REMARK VINA RESULT:      -9.0      4.029      5.059
REMARK  Name = Dihydrotachysterol
REMARK  12 active torsions:
REMARK  status: ('A' for Active; 'I' for Inactive)
REMARK    1  A    between atoms: C_1  and  C_2
REMARK    2  A    between atoms: C_2  and  C_3
REMARK    3  A    between atoms: C_2  and  C_4
REMARK    4  A    between atoms: C_4  and  C_5
REMARK    5  A    between atoms: C_4  and  C_6
REMARK    6  A    between atoms: C_7  and  C_8
REMARK    7  A    between atoms: C_8  and  C_9
REMARK    8  A    between atoms: C_8  and  C_10
REMARK    9  A    between atoms: C_20  and  C_21
REMARK   10  A    between atoms: C_22  and  C_23
REMARK   11  A    between atoms: C_26  and  O_27
REMARK   12  A    between atoms: C_30  and  C_31
REMARK                            x       y       z     vdW  Elec       q    Type
REMARK                         _______ _______ _______ _____ _____    ______ ____
ROOT
ATOM      1  C   UNL     1      -7.040   1.098 131.720  0.00  0.00    +0.000 C 
ATOM      2  C   UNL     1      -7.055   1.104 130.170  0.00  0.00    +0.000 C 
ATOM      3  C   UNL     1      -8.067   2.161 129.729  0.00  0.00    +0.000 C 
ATOM      4  C   UNL     1      -8.284   3.024 130.977  0.00  0.00    +0.000 C 
ATOM      5  C   UNL     1      -9.482   3.945 131.128  0.00  0.00    +0.000 C 
ATOM      6  C   UNL     1      -9.471   4.660 132.464  0.00  0.00    +0.000 C 
ATOM      7  C   UNL     1      -9.298   3.712 133.662  0.00  0.00    +0.000 C 
ATOM      8  C   UNL     1      -8.137   2.721 133.467  0.00  0.00    +0.000 C 
ATOM      9  C   UNL     1      -8.278   1.982 132.121  0.00  0.00    +0.000 C 
ATOM     10  C   UNL     1      -9.622   1.225 132.151  0.00  0.00    +0.000 C 
ATOM     11  C   UNL     1     -10.435   4.064 130.190  0.00  0.00    +0.000 C 
ENDROOT
BRANCH  11  12
ATOM     12  C   UNL     1     -11.602   4.924 130.232  0.00  0.00    +0.000 C 
ATOM     13  C   UNL     1     -11.608   6.237 129.929  0.00  0.00    +0.000 C 
ATOM     14  C   UNL     1     -10.390   6.995 129.434  0.00  0.00    +0.000 C 
ATOM     15  C   UNL     1     -10.683   7.584 128.053  0.00  0.00    +0.000 C 
ATOM     16  C   UNL     1     -11.907   8.498 128.091  0.00  0.00    +0.000 C 
ATOM     17  C   UNL     1     -13.140   7.747 128.610  0.00  0.00    +0.000 C 
ATOM     18  C   UNL     1     -12.876   7.089 129.983  0.00  0.00    +0.000 C 
ATOM     19  C   UNL     1     -12.746   8.166 131.068  0.00  0.00    +0.000 C 
BRANCH  15  20
ATOM     20  O   UNL     1     -10.901   6.536 127.102  0.00  0.00    +0.000 OA
ATOM     21  H   UNL     1     -10.469   6.801 126.268  0.00  0.00    +0.000 HD
ENDBRANCH  15  20
ENDBRANCH  11  12
BRANCH   1  22
ATOM     22  C   UNL     1      -6.887  -0.340 132.309  0.00  0.00    +0.000 C 
ATOM     23  C   UNL     1      -5.674  -0.475 133.233  0.00  0.00    +0.000 C 
BRANCH  22  25
ATOM     24  C   UNL     1      -7.405  -2.482 131.067  0.00  0.00    +0.000 C 
ATOM     25  C   UNL     1      -6.686  -1.383 131.251  0.00  0.00    +0.000 C 
BRANCH  24  26
ATOM     26  C   UNL     1      -7.216  -3.317 129.818  0.00  0.00    +0.000 C 
ATOM     27  C   UNL     1      -5.732  -3.306 129.418  0.00  0.00    +0.000 C 
BRANCH  26  29
ATOM     28  C   UNL     1      -7.325  -2.024 127.642  0.00  0.00    +0.000 C 
ATOM     29  C   UNL     1      -8.124  -2.781 128.702  0.00  0.00    +0.000 C 
ATOM     30  C   UNL     1      -8.896  -3.927 128.033  0.00  0.00    +0.000 C 
ENDBRANCH  26  29
ENDBRANCH  24  26
ENDBRANCH  22  25
ENDBRANCH   1  22
TORSDOF 6
ENDMDL
MODEL 3
REMARK VINA RESULT:      -8.8      1.982      2.913
REMARK  Name = Dihydrotachysterol
REMARK  12 active torsions:
REMARK  status: ('A' for Active; 'I' for Inactive)
REMARK    1  A    between atoms: C_1  and  C_2
REMARK    2  A    between atoms: C_2  and  C_3
REMARK    3  A    between atoms: C_2  and  C_4
REMARK    4  A    between atoms: C_4  and  C_5
REMARK    5  A    between atoms: C_4  and  C_6
REMARK    6  A    between atoms: C_7  and  C_8
REMARK    7  A    between atoms: C_8  and  C_9
REMARK    8  A    between atoms: C_8  and  C_10
REMARK    9  A    between atoms: C_20  and  C_21
REMARK   10  A    between atoms: C_22  and  C_23
REMARK   11  A    between atoms: C_26  and  O_27
REMARK   12  A    between atoms: C_30  and  C_31
REMARK                            x       y       z     vdW  Elec       q    Type
REMARK                         _______ _______ _______ _____ _____    ______ ____
ROOT
ATOM      1  C   UNL     1      -6.098   3.665 132.011  0.00  0.00    +0.000 C 
ATOM      2  C   UNL     1      -6.122   4.777 133.091  0.00  0.00    +0.000 C 
ATOM      3  C   UNL     1      -7.487   5.461 133.009  0.00  0.00    +0.000 C 
ATOM      4  C   UNL     1      -8.357   4.479 132.217  0.00  0.00    +0.000 C 
ATOM      5  C   UNL     1      -9.661   4.898 131.560  0.00  0.00    +0.000 C 
ATOM      6  C   UNL     1     -10.307   3.746 130.817  0.00  0.00    +0.000 C 
ATOM      7  C   UNL     1      -9.354   3.038 129.842  0.00  0.00    +0.000 C 
ATOM      8  C   UNL     1      -8.000   2.693 130.486  0.00  0.00    +0.000 C 
ATOM      9  C   UNL     1      -7.380   3.943 131.143  0.00  0.00    +0.000 C 
ATOM     10  C   UNL     1      -7.186   4.997 130.033  0.00  0.00    +0.000 C 
ATOM     11  C   UNL     1     -10.139   6.152 131.619  0.00  0.00    +0.000 C 
ENDROOT
BRANCH  11  12
ATOM     12  C   UNL     1     -11.376   6.645 131.043  0.00  0.00    +0.000 C 
ATOM     13  C   UNL     1     -11.460   7.500 130.006  0.00  0.00    +0.000 C 
ATOM     14  C   UNL     1     -10.258   8.024 129.243  0.00  0.00    +0.000 C 
ATOM     15  C   UNL     1     -10.372   7.623 127.771  0.00  0.00    +0.000 C 
ATOM     16  C   UNL     1     -11.669   8.146 127.156  0.00  0.00    +0.000 C 
ATOM     17  C   UNL     1     -12.892   7.638 127.933  0.00  0.00    +0.000 C 
ATOM     18  C   UNL     1     -12.797   7.976 129.437  0.00  0.00    +0.000 C 
ATOM     19  C   UNL     1     -12.957   9.486 129.651  0.00  0.00    +0.000 C 
BRANCH  15  20
ATOM     20  O   UNL     1     -10.324   6.198 127.640  0.00  0.00    +0.000 OA
ATOM     21  H   UNL     1      -9.508   5.975 127.152  0.00  0.00    +0.000 HD
ENDBRANCH  15  20
ENDBRANCH  11  12
BRANCH   1  22
ATOM     22  C   UNL     1      -4.704   3.536 131.321  0.00  0.00    +0.000 C 
ATOM     23  C   UNL     1      -3.827   2.455 131.957  0.00  0.00    +0.000 C 
BRANCH  22  25
ATOM     24  C   UNL     1      -2.815   5.100 130.698  0.00  0.00    +0.000 C 
ATOM     25  C   UNL     1      -3.892   4.794 131.408  0.00  0.00    +0.000 C 
BRANCH  24  26
ATOM     26  C   UNL     1      -2.245   6.501 130.745  0.00  0.00    +0.000 C 
ATOM     27  C   UNL     1      -0.971   6.505 131.605  0.00  0.00    +0.000 C 
BRANCH  26  29
ATOM     28  C   UNL     1      -2.735   8.413 132.335  0.00  0.00    +0.000 C 
ATOM     29  C   UNL     1      -3.311   7.470 131.279  0.00  0.00    +0.000 C 
ATOM     30  C   UNL     1      -3.913   8.298 130.134  0.00  0.00    +0.000 C 
ENDBRANCH  26  29
ENDBRANCH  24  26
ENDBRANCH  22  25
ENDBRANCH   1  22
TORSDOF 6
ENDMDL
MODEL 4
REMARK VINA RESULT:      -8.4      4.392      8.499
REMARK  Name = Dihydrotachysterol
REMARK  12 active torsions:
REMARK  status: ('A' for Active; 'I' for Inactive)
REMARK    1  A    between atoms: C_1  and  C_2
REMARK    2  A    between atoms: C_2  and  C_3
REMARK    3  A    between atoms: C_2  and  C_4
REMARK    4  A    between atoms: C_4  and  C_5
REMARK    5  A    between atoms: C_4  and  C_6
REMARK    6  A    between atoms: C_7  and  C_8
REMARK    7  A    between atoms: C_8  and  C_9
REMARK    8  A    between atoms: C_8  and  C_10
REMARK    9  A    between atoms: C_20  and  C_21
REMARK   10  A    between atoms: C_22  and  C_23
REMARK   11  A    between atoms: C_26  and  O_27
REMARK   12  A    between atoms: C_30  and  C_31
REMARK                            x       y       z     vdW  Elec       q    Type
REMARK                         _______ _______ _______ _____ _____    ______ ____
ROOT
ATOM      1  C   UNL     1      -7.543   4.052 129.918  0.00  0.00    +0.000 C 
ATOM      2  C   UNL     1      -8.834   3.236 130.185  0.00  0.00    +0.000 C 
ATOM      3  C   UNL     1      -8.948   2.189 129.078  0.00  0.00    +0.000 C 
ATOM      4  C   UNL     1      -7.544   2.128 128.466  0.00  0.00    +0.000 C 
ATOM      5  C   UNL     1      -7.279   1.522 127.099  0.00  0.00    +0.000 C 
ATOM      6  C   UNL     1      -5.815   1.614 126.720  0.00  0.00    +0.000 C 
ATOM      7  C   UNL     1      -5.238   3.032 126.860  0.00  0.00    +0.000 C 
ATOM      8  C   UNL     1      -5.582   3.679 128.214  0.00  0.00    +0.000 C 
ATOM      9  C   UNL     1      -7.101   3.611 128.474  0.00  0.00    +0.000 C 
ATOM     10  C   UNL     1      -7.797   4.375 127.330  0.00  0.00    +0.000 C 
ATOM     11  C   UNL     1      -8.250   1.005 126.329  0.00  0.00    +0.000 C 
ENDROOT
BRANCH  11  12
ATOM     12  C   UNL     1      -8.099   0.390 125.024  0.00  0.00    +0.000 C 
ATOM     13  C   UNL     1      -7.796  -0.905 124.809  0.00  0.00    +0.000 C 
ATOM     14  C   UNL     1      -7.629  -1.930 125.915  0.00  0.00    +0.000 C 
ATOM     15  C   UNL     1      -8.644  -3.057 125.723  0.00  0.00    +0.000 C 
ATOM     16  C   UNL     1      -8.486  -3.715 124.354  0.00  0.00    +0.000 C 
ATOM     17  C   UNL     1      -8.631  -2.684 123.226  0.00  0.00    +0.000 C 
ATOM     18  C   UNL     1      -7.660  -1.497 123.405  0.00  0.00    +0.000 C 
ATOM     19  C   UNL     1      -6.216  -1.954 123.160  0.00  0.00    +0.000 C 
BRANCH  15  20
ATOM     20  O   UNL     1      -9.978  -2.554 125.858  0.00  0.00    +0.000 OA
ATOM     21  H   UNL     1     -10.094  -1.845 125.198  0.00  0.00    +0.000 HD
ENDBRANCH  15  20
ENDBRANCH  11  12
BRANCH   1  22
ATOM     22  C   UNL     1      -7.718   5.567 130.249  0.00  0.00    +0.000 C 
ATOM     23  C   UNL     1      -7.198   5.932 131.642  0.00  0.00    +0.000 C 
BRANCH  22  25
ATOM     24  C   UNL     1      -9.615   7.227 130.032  0.00  0.00    +0.000 C 
ATOM     25  C   UNL     1      -9.153   6.002 130.245  0.00  0.00    +0.000 C 
BRANCH  24  26
ATOM     26  C   UNL     1     -11.098   7.458 129.837  0.00  0.00    +0.000 C 
ATOM     27  C   UNL     1     -11.792   6.114 129.562  0.00  0.00    +0.000 C 
BRANCH  26  29
ATOM     28  C   UNL     1     -10.824   7.921 127.361  0.00  0.00    +0.000 C 
ATOM     29  C   UNL     1     -11.314   8.469 128.701  0.00  0.00    +0.000 C 
ATOM     30  C   UNL     1     -12.798   8.844 128.583  0.00  0.00    +0.000 C 
ENDBRANCH  26  29
ENDBRANCH  24  26
ENDBRANCH  22  25
ENDBRANCH   1  22
TORSDOF 6
ENDMDL
MODEL 5
REMARK VINA RESULT:      -8.3      3.965      8.237
REMARK  Name = Dihydrotachysterol
REMARK  12 active torsions:
REMARK  status: ('A' for Active; 'I' for Inactive)
REMARK    1  A    between atoms: C_1  and  C_2
REMARK    2  A    between atoms: C_2  and  C_3
REMARK    3  A    between atoms: C_2  and  C_4
REMARK    4  A    between atoms: C_4  and  C_5
REMARK    5  A    between atoms: C_4  and  C_6
REMARK    6  A    between atoms: C_7  and  C_8
REMARK    7  A    between atoms: C_8  and  C_9
REMARK    8  A    between atoms: C_8  and  C_10
REMARK    9  A    between atoms: C_20  and  C_21
REMARK   10  A    between atoms: C_22  and  C_23
REMARK   11  A    between atoms: C_26  and  O_27
REMARK   12  A    between atoms: C_30  and  C_31
REMARK                            x       y       z     vdW  Elec       q    Type
REMARK                         _______ _______ _______ _____ _____    ______ ____
ROOT
ATOM      1  C   UNL     1      -8.433   4.972 131.446  0.00  0.00    +0.000 C 
ATOM      2  C   UNL     1      -9.923   4.543 131.436  0.00  0.00    +0.000 C 
ATOM      3  C   UNL     1      -9.958   3.016 131.475  0.00  0.00    +0.000 C 
ATOM      4  C   UNL     1      -8.553   2.615 131.939  0.00  0.00    +0.000 C 
ATOM      5  C   UNL     1      -8.006   1.211 131.752  0.00  0.00    +0.000 C 
ATOM      6  C   UNL     1      -6.588   1.090 132.272  0.00  0.00    +0.000 C 
ATOM      7  C   UNL     1      -5.643   2.171 131.722  0.00  0.00    +0.000 C 
ATOM      8  C   UNL     1      -6.238   3.586 131.833  0.00  0.00    +0.000 C 
ATOM      9  C   UNL     1      -7.646   3.631 131.205  0.00  0.00    +0.000 C 
ATOM     10  C   UNL     1      -7.500   3.233 129.722  0.00  0.00    +0.000 C 
ATOM     11  C   UNL     1      -8.706   0.227 131.164  0.00  0.00    +0.000 C 
ENDROOT
BRANCH  11  12
ATOM     12  C   UNL     1      -8.281  -1.144 130.955  0.00  0.00    +0.000 C 
ATOM     13  C   UNL     1      -7.771  -1.631 129.807  0.00  0.00    +0.000 C 
ATOM     14  C   UNL     1      -7.506  -0.786 128.575  0.00  0.00    +0.000 C 
ATOM     15  C   UNL     1      -6.019  -0.849 128.223  0.00  0.00    +0.000 C 
ATOM     16  C   UNL     1      -5.566  -2.290 127.994  0.00  0.00    +0.000 C 
ATOM     17  C   UNL     1      -5.849  -3.159 129.228  0.00  0.00    +0.000 C 
ATOM     18  C   UNL     1      -7.332  -3.087 129.653  0.00  0.00    +0.000 C 
ATOM     19  C   UNL     1      -8.213  -3.800 128.620  0.00  0.00    +0.000 C 
BRANCH  15  20
ATOM     20  O   UNL     1      -5.235  -0.264 129.270  0.00  0.00    +0.000 OA
ATOM     21  H   UNL     1      -4.939  -0.987 129.855  0.00  0.00    +0.000 HD
ENDBRANCH  15  20
ENDBRANCH  11  12
BRANCH   1  22
ATOM     22  C   UNL     1      -8.163   6.208 130.533  0.00  0.00    +0.000 C 
ATOM     23  C   UNL     1      -7.019   7.086 131.048  0.00  0.00    +0.000 C 
BRANCH  22  25
ATOM     24  C   UNL     1     -10.180   7.246 129.413  0.00  0.00    +0.000 C 
ATOM     25  C   UNL     1      -9.343   7.128 130.435  0.00  0.00    +0.000 C 
BRANCH  24  26
ATOM     26  C   UNL     1     -11.451   8.056 129.560  0.00  0.00    +0.000 C 
ATOM     27  C   UNL     1     -12.461   7.270 130.411  0.00  0.00    +0.000 C 
BRANCH  26  29
ATOM     28  C   UNL     1     -11.028   7.995 127.062  0.00  0.00    +0.000 C 
ATOM     29  C   UNL     1     -12.003   8.398 128.168  0.00  0.00    +0.000 C 
ATOM     30  C   UNL     1     -13.352   7.704 127.933  0.00  0.00    +0.000 C 
ENDBRANCH  26  29
ENDBRANCH  24  26
ENDBRANCH  22  25
ENDBRANCH   1  22
TORSDOF 6
ENDMDL
MODEL 6
REMARK VINA RESULT:      -8.3      6.960     10.577
REMARK  Name = Dihydrotachysterol
REMARK  12 active torsions:
REMARK  status: ('A' for Active; 'I' for Inactive)
REMARK    1  A    between atoms: C_1  and  C_2
REMARK    2  A    between atoms: C_2  and  C_3
REMARK    3  A    between atoms: C_2  and  C_4
REMARK    4  A    between atoms: C_4  and  C_5
REMARK    5  A    between atoms: C_4  and  C_6
REMARK    6  A    between atoms: C_7  and  C_8
REMARK    7  A    between atoms: C_8  and  C_9
REMARK    8  A    between atoms: C_8  and  C_10
REMARK    9  A    between atoms: C_20  and  C_21
REMARK   10  A    between atoms: C_22  and  C_23
REMARK   11  A    between atoms: C_26  and  O_27
REMARK   12  A    between atoms: C_30  and  C_31
REMARK                            x       y       z     vdW  Elec       q    Type
REMARK                         _______ _______ _______ _____ _____    ______ ____
ROOT
ATOM      1  C   UNL     1      -8.184  -1.627 124.403  0.00  0.00    +0.000 C 
ATOM      2  C   UNL     1      -8.637  -3.110 124.398  0.00  0.00    +0.000 C 
ATOM      3  C   UNL     1      -8.577  -3.608 125.842  0.00  0.00    +0.000 C 
ATOM      4  C   UNL     1      -8.522  -2.328 126.684  0.00  0.00    +0.000 C 
ATOM      5  C   UNL     1      -8.066  -2.328 128.133  0.00  0.00    +0.000 C 
ATOM      6  C   UNL     1      -8.078  -0.932 128.722  0.00  0.00    +0.000 C 
ATOM      7  C   UNL     1      -7.325   0.098 127.865  0.00  0.00    +0.000 C 
ATOM      8  C   UNL     1      -7.726   0.036 126.380  0.00  0.00    +0.000 C 
ATOM      9  C   UNL     1      -7.603  -1.405 125.847  0.00  0.00    +0.000 C 
ATOM     10  C   UNL     1      -6.131  -1.834 126.017  0.00  0.00    +0.000 C 
ATOM     11  C   UNL     1      -7.674  -3.440 128.775  0.00  0.00    +0.000 C 
ENDROOT
BRANCH  11  12
ATOM     12  C   UNL     1      -7.241  -3.547 130.155  0.00  0.00    +0.000 C 
ATOM     13  C   UNL     1      -5.958  -3.604 130.562  0.00  0.00    +0.000 C 
ATOM     14  C   UNL     1      -4.769  -3.498 129.625  0.00  0.00    +0.000 C 
ATOM     15  C   UNL     1      -3.912  -2.295 130.022  0.00  0.00    +0.000 C 
ATOM     16  C   UNL     1      -3.445  -2.404 131.473  0.00  0.00    +0.000 C 
ATOM     17  C   UNL     1      -4.640  -2.533 132.428  0.00  0.00    +0.000 C 
ATOM     18  C   UNL     1      -5.565  -3.706 132.036  0.00  0.00    +0.000 C 
ATOM     19  C   UNL     1      -4.865  -5.044 132.306  0.00  0.00    +0.000 C 
BRANCH  15  20
ATOM     20  O   UNL     1      -4.650  -1.080 129.850  0.00  0.00    +0.000 OA
ATOM     21  H   UNL     1      -4.330  -0.443 130.517  0.00  0.00    +0.000 HD
ENDBRANCH  15  20
ENDBRANCH  11  12
BRANCH   1  22
ATOM     22  C   UNL     1      -7.323  -1.264 123.153  0.00  0.00    +0.000 C 
ATOM     23  C   UNL     1      -6.111  -2.183 122.982  0.00  0.00    +0.000 C 
BRANCH  22  25
ATOM     24  C   UNL     1      -7.399   1.262 123.025  0.00  0.00    +0.000 C 
ATOM     25  C   UNL     1      -6.752   0.121 123.221  0.00  0.00    +0.000 C 
BRANCH  24  26
ATOM     26  C   UNL     1      -6.733   2.581 123.352  0.00  0.00    +0.000 C 
ATOM     27  C   UNL     1      -7.435   3.221 124.561  0.00  0.00    +0.000 C 
BRANCH  26  29
ATOM     28  C   UNL     1      -5.703   3.079 121.092  0.00  0.00    +0.000 C 
ATOM     29  C   UNL     1      -6.762   3.490 122.114  0.00  0.00    +0.000 C 
ATOM     30  C   UNL     1      -8.146   3.460 121.451  0.00  0.00    +0.000 C 
ENDBRANCH  26  29
ENDBRANCH  24  26
ENDBRANCH  22  25
ENDBRANCH   1  22
TORSDOF 6
ENDMDL
MODEL 7
REMARK VINA RESULT:      -8.1      7.114     10.298
REMARK  Name = Dihydrotachysterol
REMARK  12 active torsions:
REMARK  status: ('A' for Active; 'I' for Inactive)
REMARK    1  A    between atoms: C_1  and  C_2
REMARK    2  A    between atoms: C_2  and  C_3
REMARK    3  A    between atoms: C_2  and  C_4
REMARK    4  A    between atoms: C_4  and  C_5
REMARK    5  A    between atoms: C_4  and  C_6
REMARK    6  A    between atoms: C_7  and  C_8
REMARK    7  A    between atoms: C_8  and  C_9
REMARK    8  A    between atoms: C_8  and  C_10
REMARK    9  A    between atoms: C_20  and  C_21
REMARK   10  A    between atoms: C_22  and  C_23
REMARK   11  A    between atoms: C_26  and  O_27
REMARK   12  A    between atoms: C_30  and  C_31
REMARK                            x       y       z     vdW  Elec       q    Type
REMARK                         _______ _______ _______ _____ _____    ______ ____
ROOT
ATOM      1  C   UNL     1      -6.657  -1.947 124.971  0.00  0.00    +0.000 C 
ATOM      2  C   UNL     1      -5.434  -1.149 125.492  0.00  0.00    +0.000 C 
ATOM      3  C   UNL     1      -5.497  -1.164 127.019  0.00  0.00    +0.000 C 
ATOM      4  C   UNL     1      -6.470  -2.302 127.348  0.00  0.00    +0.000 C 
ATOM      5  C   UNL     1      -7.136  -2.433 128.707  0.00  0.00    +0.000 C 
ATOM      6  C   UNL     1      -8.070  -3.625 128.758  0.00  0.00    +0.000 C 
ATOM      7  C   UNL     1      -9.079  -3.659 127.599  0.00  0.00    +0.000 C 
ATOM      8  C   UNL     1      -8.412  -3.438 126.229  0.00  0.00    +0.000 C 
ATOM      9  C   UNL     1      -7.550  -2.160 126.249  0.00  0.00    +0.000 C 
ATOM     10  C   UNL     1      -8.486  -0.979 126.579  0.00  0.00    +0.000 C 
ATOM     11  C   UNL     1      -6.928  -1.564 129.709  0.00  0.00    +0.000 C 
ENDROOT
BRANCH  11  12
ATOM     12  C   UNL     1      -7.499  -1.612 131.042  0.00  0.00    +0.000 C 
ATOM     13  C   UNL     1      -6.992  -2.311 132.076  0.00  0.00    +0.000 C 
ATOM     14  C   UNL     1      -5.702  -3.106 132.008  0.00  0.00    +0.000 C 
ATOM     15  C   UNL     1      -4.714  -2.565 133.044  0.00  0.00    +0.000 C 
ATOM     16  C   UNL     1      -5.306  -2.620 134.452  0.00  0.00    +0.000 C 
ATOM     17  C   UNL     1      -6.623  -1.836 134.527  0.00  0.00    +0.000 C 
ATOM     18  C   UNL     1      -7.637  -2.313 133.463  0.00  0.00    +0.000 C 
ATOM     19  C   UNL     1      -8.145  -3.718 133.810  0.00  0.00    +0.000 C 
BRANCH  15  20
ATOM     20  O   UNL     1      -4.355  -1.215 132.730  0.00  0.00    +0.000 OA
ATOM     21  H   UNL     1      -3.801  -1.236 131.928  0.00  0.00    +0.000 HD
ENDBRANCH  15  20
ENDBRANCH  11  12
BRANCH   1  22
ATOM     22  C   UNL     1      -7.276  -1.315 123.685  0.00  0.00    +0.000 C 
ATOM     23  C   UNL     1      -6.907  -2.082 122.413  0.00  0.00    +0.000 C 
BRANCH  22  25
ATOM     24  C   UNL     1      -7.536   1.194 123.493  0.00  0.00    +0.000 C 
ATOM     25  C   UNL     1      -6.806   0.088 123.442  0.00  0.00    +0.000 C 
BRANCH  24  26
ATOM     26  C   UNL     1      -6.866   2.551 123.445  0.00  0.00    +0.000 C 
ATOM     27  C   UNL     1      -7.680   3.551 124.281  0.00  0.00    +0.000 C 
BRANCH  26  29
ATOM     28  C   UNL     1      -8.043   3.502 121.413  0.00  0.00    +0.000 C 
ATOM     29  C   UNL     1      -6.718   2.997 121.982  0.00  0.00    +0.000 C 
ATOM     30  C   UNL     1      -5.659   4.101 121.857  0.00  0.00    +0.000 C 
ENDBRANCH  26  29
ENDBRANCH  24  26
ENDBRANCH  22  25
ENDBRANCH   1  22
TORSDOF 6
ENDMDL
MODEL 8
REMARK VINA RESULT:      -8.0      5.057      7.553
REMARK  Name = Dihydrotachysterol
REMARK  12 active torsions:
REMARK  status: ('A' for Active; 'I' for Inactive)
REMARK    1  A    between atoms: C_1  and  C_2
REMARK    2  A    between atoms: C_2  and  C_3
REMARK    3  A    between atoms: C_2  and  C_4
REMARK    4  A    between atoms: C_4  and  C_5
REMARK    5  A    between atoms: C_4  and  C_6
REMARK    6  A    between atoms: C_7  and  C_8
REMARK    7  A    between atoms: C_8  and  C_9
REMARK    8  A    between atoms: C_8  and  C_10
REMARK    9  A    between atoms: C_20  and  C_21
REMARK   10  A    between atoms: C_22  and  C_23
REMARK   11  A    between atoms: C_26  and  O_27
REMARK   12  A    between atoms: C_30  and  C_31
REMARK                            x       y       z     vdW  Elec       q    Type
REMARK                         _______ _______ _______ _____ _____    ______ ____
ROOT
ATOM      1  C   UNL     1      -7.159  -1.812 128.864  0.00  0.00    +0.000 C 
ATOM      2  C   UNL     1      -5.723  -1.614 128.312  0.00  0.00    +0.000 C 
ATOM      3  C   UNL     1      -5.136  -0.383 129.002  0.00  0.00    +0.000 C 
ATOM      4  C   UNL     1      -6.041  -0.162 130.220  0.00  0.00    +0.000 C 
ATOM      5  C   UNL     1      -6.080   1.157 130.973  0.00  0.00    +0.000 C 
ATOM      6  C   UNL     1      -7.076   1.118 132.114  0.00  0.00    +0.000 C 
ATOM      7  C   UNL     1      -8.473   0.637 131.688  0.00  0.00    +0.000 C 
ATOM      8  C   UNL     1      -8.423  -0.652 130.850  0.00  0.00    +0.000 C 
ATOM      9  C   UNL     1      -7.448  -0.490 129.667  0.00  0.00    +0.000 C 
ATOM     10  C   UNL     1      -7.963   0.682 128.806  0.00  0.00    +0.000 C 
ATOM     11  C   UNL     1      -5.337   2.219 130.625  0.00  0.00    +0.000 C 
ENDROOT
BRANCH  11  12
ATOM     12  C   UNL     1      -5.290   3.509 131.286  0.00  0.00    +0.000 C 
ATOM     13  C   UNL     1      -5.953   4.611 130.883  0.00  0.00    +0.000 C 
ATOM     14  C   UNL     1      -6.904   4.640 129.701  0.00  0.00    +0.000 C 
ATOM     15  C   UNL     1      -8.296   5.060 130.176  0.00  0.00    +0.000 C 
ATOM     16  C   UNL     1      -8.256   6.421 130.867  0.00  0.00    +0.000 C 
ATOM     17  C   UNL     1      -7.280   6.410 132.053  0.00  0.00    +0.000 C 
ATOM     18  C   UNL     1      -5.870   5.942 131.631  0.00  0.00    +0.000 C 
ATOM     19  C   UNL     1      -5.202   7.005 130.750  0.00  0.00    +0.000 C 
BRANCH  15  20
ATOM     20  O   UNL     1      -8.828   4.083 131.078  0.00  0.00    +0.000 OA
ATOM     21  H   UNL     1      -9.637   4.459 131.475  0.00  0.00    +0.000 HD
ENDBRANCH  15  20
ENDBRANCH  11  12
BRANCH   1  22
ATOM     22  C   UNL     1      -8.158  -2.290 127.765  0.00  0.00    +0.000 C 
ATOM     23  C   UNL     1      -8.678  -3.708 128.014  0.00  0.00    +0.000 C 
BRANCH  22  25
ATOM     24  C   UNL     1      -7.800  -3.213 125.437  0.00  0.00    +0.000 C 
ATOM     25  C   UNL     1      -7.542  -2.337 126.399  0.00  0.00    +0.000 C 
BRANCH  24  26
ATOM     26  C   UNL     1      -7.262  -2.990 124.040  0.00  0.00    +0.000 C 
ATOM     27  C   UNL     1      -6.186  -1.892 124.077  0.00  0.00    +0.000 C 
BRANCH  26  29
ATOM     28  C   UNL     1      -9.692  -3.406 123.456  0.00  0.00    +0.000 C 
ATOM     29  C   UNL     1      -8.421  -2.639 123.095  0.00  0.00    +0.000 C 
ATOM     30  C   UNL     1      -8.710  -1.132 123.129  0.00  0.00    +0.000 C 
ENDBRANCH  26  29
ENDBRANCH  24  26
ENDBRANCH  22  25
ENDBRANCH   1  22
TORSDOF 6
ENDMDL
MODEL 9
REMARK VINA RESULT:      -8.0      5.081      8.194
REMARK  Name = Dihydrotachysterol
REMARK  12 active torsions:
REMARK  status: ('A' for Active; 'I' for Inactive)
REMARK    1  A    between atoms: C_1  and  C_2
REMARK    2  A    between atoms: C_2  and  C_3
REMARK    3  A    between atoms: C_2  and  C_4
REMARK    4  A    between atoms: C_4  and  C_5
REMARK    5  A    between atoms: C_4  and  C_6
REMARK    6  A    between atoms: C_7  and  C_8
REMARK    7  A    between atoms: C_8  and  C_9
REMARK    8  A    between atoms: C_8  and  C_10
REMARK    9  A    between atoms: C_20  and  C_21
REMARK   10  A    between atoms: C_22  and  C_23
REMARK   11  A    between atoms: C_26  and  O_27
REMARK   12  A    between atoms: C_30  and  C_31
REMARK                            x       y       z     vdW  Elec       q    Type
REMARK                         _______ _______ _______ _____ _____    ______ ____
ROOT
ATOM      1  C   UNL     1      -7.076  -1.867 129.029  0.00  0.00    +0.000 C 
ATOM      2  C   UNL     1      -5.606  -1.987 128.551  0.00  0.00    +0.000 C 
ATOM      3  C   UNL     1      -4.853  -0.770 129.088  0.00  0.00    +0.000 C 
ATOM      4  C   UNL     1      -5.758  -0.221 130.195  0.00  0.00    +0.000 C 
ATOM      5  C   UNL     1      -5.611   1.190 130.739  0.00  0.00    +0.000 C 
ATOM      6  C   UNL     1      -6.647   1.488 131.805  0.00  0.00    +0.000 C 
ATOM      7  C   UNL     1      -8.084   1.172 131.362  0.00  0.00    +0.000 C 
ATOM      8  C   UNL     1      -8.213  -0.226 130.731  0.00  0.00    +0.000 C 
ATOM      9  C   UNL     1      -7.176  -0.407 129.604  0.00  0.00    +0.000 C 
ATOM     10  C   UNL     1      -7.453   0.681 128.546  0.00  0.00    +0.000 C 
ATOM     11  C   UNL     1      -4.688   2.054 130.288  0.00  0.00    +0.000 C 
ENDROOT
BRANCH  11  12
ATOM     12  C   UNL     1      -4.456   3.409 130.752  0.00  0.00    +0.000 C 
ATOM     13  C   UNL     1      -3.760   4.348 130.082  0.00  0.00    +0.000 C 
ATOM     14  C   UNL     1      -3.167   4.137 128.701  0.00  0.00    +0.000 C 
ATOM     15  C   UNL     1      -3.763   5.155 127.729  0.00  0.00    +0.000 C 
ATOM     16  C   UNL     1      -3.517   6.585 128.206  0.00  0.00    +0.000 C 
ATOM     17  C   UNL     1      -4.094   6.804 129.612  0.00  0.00    +0.000 C 
ATOM     18  C   UNL     1      -3.559   5.765 130.621  0.00  0.00    +0.000 C 
ATOM     19  C   UNL     1      -2.073   6.019 130.904  0.00  0.00    +0.000 C 
BRANCH  15  20
ATOM     20  O   UNL     1      -5.171   4.939 127.583  0.00  0.00    +0.000 OA
ATOM     21  H   UNL     1      -5.292   4.178 126.984  0.00  0.00    +0.000 HD
ENDBRANCH  15  20
ENDBRANCH  11  12
BRANCH   1  22
ATOM     22  C   UNL     1      -8.094  -2.350 127.948  0.00  0.00    +0.000 C 
ATOM     23  C   UNL     1      -8.752  -3.684 128.309  0.00  0.00    +0.000 C 
BRANCH  22  25
ATOM     24  C   UNL     1      -7.963  -3.265 125.593  0.00  0.00    +0.000 C 
ATOM     25  C   UNL     1      -7.457  -2.581 126.611  0.00  0.00    +0.000 C 
BRANCH  24  26
ATOM     26  C   UNL     1      -7.295  -3.216 124.236  0.00  0.00    +0.000 C 
ATOM     27  C   UNL     1      -6.036  -2.337 124.318  0.00  0.00    +0.000 C 
BRANCH  26  29
ATOM     28  C   UNL     1      -9.679  -3.325 123.385  0.00  0.00    +0.000 C 
ATOM     29  C   UNL     1      -8.297  -2.702 123.191  0.00  0.00    +0.000 C 
ATOM     30  C   UNL     1      -8.416  -1.173 123.259  0.00  0.00    +0.000 C 
ENDBRANCH  26  29
ENDBRANCH  24  26
ENDBRANCH  22  25
ENDBRANCH   1  22
TORSDOF 6
ENDMDL
