MODEL 1
REMARK VINA RESULT:      -7.3      0.000      0.000
REMARK  Name = Dihydrocodeine
REMARK  4 active torsions:
REMARK  status: ('A' for Active; 'I' for Inactive)
REMARK    1  A    between atoms: N_9  and  C_10
REMARK    2  A    between atoms: C_18  and  O_19
REMARK    3  A    between atoms: C_22  and  O_23
REMARK    4  A    between atoms: O_23  and  C_24
REMARK                            x       y       z     vdW  Elec       q    Type
REMARK                         _______ _______ _______ _____ _____    ______ ____
ROOT
ATOM      1  C   UNL     1      -7.344  -0.116 126.684  0.00  0.00    +0.000 C 
ATOM      2  O   UNL     1      -7.842   1.334 126.724  0.00  0.00    +0.000 OA
ATOM      3  C   UNL     1      -8.411   1.578 125.449  0.00  0.00    +0.000 A 
ATOM      4  C   UNL     1      -8.864   0.421 124.853  0.00  0.00    +0.000 A 
ATOM      5  C   UNL     1      -9.344   0.253 123.556  0.00  0.00    +0.000 A 
ATOM      6  C   UNL     1      -9.579  -1.127 122.999  0.00  0.00    +0.000 C 
ATOM      7  C   UNL     1      -8.870  -2.302 123.706  0.00  0.00    +0.000 C 
ATOM      8  N   UNL     1      -7.390  -2.220 123.776  0.00  0.00    +0.000 NA
ATOM      9  C   UNL     1      -6.528  -1.075 123.517  0.00  0.00    +0.000 C 
ATOM     10  C   UNL     1      -7.219  -2.422 125.263  0.00  0.00    +0.000 C 
ATOM     11  C   UNL     1      -8.674  -1.606 126.425  0.00  0.00    +0.000 C 
ATOM     12  C   UNL     1      -8.311  -0.699 125.486  0.00  0.00    +0.000 C 
ATOM     13  C   UNL     1      -9.222  -2.352 125.180  0.00  0.00    +0.000 C 
ATOM     14  C   UNL     1      -8.541  -3.642 126.529  0.00  0.00    +0.000 C 
ATOM     15  C   UNL     1      -7.813  -2.969 127.970  0.00  0.00    +0.000 C 
ATOM     16  C   UNL     1      -7.239  -1.278 128.155  0.00  0.00    +0.000 C 
ATOM     17  C   UNL     1      -9.404   1.352 122.743  0.00  0.00    +0.000 A 
ATOM     18  C   UNL     1      -8.991   2.565 123.267  0.00  0.00    +0.000 A 
ATOM     19  C   UNL     1      -8.606   2.700 124.648  0.00  0.00    +0.000 A 
ENDROOT
BRANCH  16  20
ATOM     20  O   UNL     1      -8.083  -0.827 129.254  0.00  0.00    +0.000 OA
ATOM     21  H   UNL     1      -8.514  -1.615 129.653  0.00  0.00    +0.000 HD
ENDBRANCH  16  20
BRANCH  19  22
ATOM     22  O   UNL     1      -8.786   3.968 125.152  0.00  0.00    +0.000 OA
ATOM     23  C   UNL     1      -7.435   4.454 125.323  0.00  0.00    +0.000 C 
ENDBRANCH  19  22
TORSDOF 2
ENDMDL
MODEL 2
REMARK VINA RESULT:      -7.1      2.638      5.088
REMARK  Name = Dihydrocodeine
REMARK  4 active torsions:
REMARK  status: ('A' for Active; 'I' for Inactive)
REMARK    1  A    between atoms: N_9  and  C_10
REMARK    2  A    between atoms: C_18  and  O_19
REMARK    3  A    between atoms: C_22  and  O_23
REMARK    4  A    between atoms: O_23  and  C_24
REMARK                            x       y       z     vdW  Elec       q    Type
REMARK                         _______ _______ _______ _____ _____    ______ ____
ROOT
ATOM      1  C   UNL     1      -5.802   0.767 126.320  0.00  0.00    +0.000 C 
ATOM      2  O   UNL     1      -5.290  -0.588 125.816  0.00  0.00    +0.000 OA
ATOM      3  C   UNL     1      -6.263  -1.044 124.892  0.00  0.00    +0.000 A 
ATOM      4  C   UNL     1      -6.959  -0.003 124.316  0.00  0.00    +0.000 A 
ATOM      5  C   UNL     1      -8.072  -0.072 123.481  0.00  0.00    +0.000 A 
ATOM      6  C   UNL     1      -8.845   1.174 123.131  0.00  0.00    +0.000 C 
ATOM      7  C   UNL     1      -8.655   2.401 124.049  0.00  0.00    +0.000 C 
ATOM      8  N   UNL     1      -8.984   2.198 125.481  0.00  0.00    +0.000 NA
ATOM      9  C   UNL     1      -9.202   0.949 126.198  0.00  0.00    +0.000 C 
ATOM     10  C   UNL     1      -7.693   2.696 126.086  0.00  0.00    +0.000 C 
ATOM     11  C   UNL     1      -6.015   2.285 125.014  0.00  0.00    +0.000 C 
ATOM     12  C   UNL     1      -6.782   1.169 125.061  0.00  0.00    +0.000 C 
ATOM     13  C   UNL     1      -7.194   2.797 124.145  0.00  0.00    +0.000 C 
ATOM     14  C   UNL     1      -6.425   4.275 125.228  0.00  0.00    +0.000 C 
ATOM     15  C   UNL     1      -5.130   3.860 126.328  0.00  0.00    +0.000 C 
ATOM     16  C   UNL     1      -4.728   2.201 126.884  0.00  0.00    +0.000 C 
ATOM     17  C   UNL     1      -8.559  -1.307 123.156  0.00  0.00    +0.000 A 
ATOM     18  C   UNL     1      -7.907  -2.414 123.671  0.00  0.00    +0.000 A 
ATOM     19  C   UNL     1      -6.696  -2.288 124.440  0.00  0.00    +0.000 A 
ENDROOT
BRANCH  16  20
ATOM     20  O   UNL     1      -3.364   2.075 126.388  0.00  0.00    +0.000 OA
ATOM     21  H   UNL     1      -2.930   2.954 126.458  0.00  0.00    +0.000 HD
ENDBRANCH  16  20
BRANCH  19  22
ATOM     22  O   UNL     1      -5.883  -3.397 124.381  0.00  0.00    +0.000 OA
ATOM     23  C   UNL     1      -4.953  -3.072 123.323  0.00  0.00    +0.000 C 
ENDBRANCH  19  22
TORSDOF 2
ENDMDL
MODEL 3
REMARK VINA RESULT:      -7.0      6.523      8.395
REMARK  Name = Dihydrocodeine
REMARK  4 active torsions:
REMARK  status: ('A' for Active; 'I' for Inactive)
REMARK    1  A    between atoms: N_9  and  C_10
REMARK    2  A    between atoms: C_18  and  O_19
REMARK    3  A    between atoms: C_22  and  O_23
REMARK    4  A    between atoms: O_23  and  C_24
REMARK                            x       y       z     vdW  Elec       q    Type
REMARK                         _______ _______ _______ _____ _____    ______ ____
ROOT
ATOM      1  C   UNL     1      -8.076   4.454 128.930  0.00  0.00    +0.000 C 
ATOM      2  O   UNL     1      -8.980   5.481 128.240  0.00  0.00    +0.000 OA
ATOM      3  C   UNL     1      -9.824   5.993 129.257  0.00  0.00    +0.000 A 
ATOM      4  C   UNL     1      -9.244   5.905 130.504  0.00  0.00    +0.000 A 
ATOM      5  C   UNL     1      -9.825   6.173 131.742  0.00  0.00    +0.000 A 
ATOM      6  C   UNL     1      -9.113   5.802 133.017  0.00  0.00    +0.000 C 
ATOM      7  C   UNL     1      -7.987   4.750 132.915  0.00  0.00    +0.000 C 
ATOM      8  N   UNL     1      -8.378   3.432 132.358  0.00  0.00    +0.000 NA
ATOM      9  C   UNL     1      -9.597   3.069 131.647  0.00  0.00    +0.000 C 
ATOM     10  C   UNL     1      -7.329   3.319 131.277  0.00  0.00    +0.000 C 
ATOM     11  C   UNL     1      -6.816   5.068 130.377  0.00  0.00    +0.000 C 
ATOM     12  C   UNL     1      -8.166   5.013 130.476  0.00  0.00    +0.000 C 
ATOM     13  C   UNL     1      -6.923   5.176 131.920  0.00  0.00    +0.000 C 
ATOM     14  C   UNL     1      -5.299   4.158 131.399  0.00  0.00    +0.000 C 
ATOM     15  C   UNL     1      -5.059   3.873 129.690  0.00  0.00    +0.000 C 
ATOM     16  C   UNL     1      -6.320   4.024 128.421  0.00  0.00    +0.000 C 
ATOM     17  C   UNL     1     -11.127   6.590 131.768  0.00  0.00    +0.000 A 
ATOM     18  C   UNL     1     -11.783   6.730 130.557  0.00  0.00    +0.000 A 
ATOM     19  C   UNL     1     -11.102   6.544 129.302  0.00  0.00    +0.000 A 
ENDROOT
BRANCH  16  20
ATOM     20  O   UNL     1      -5.736   5.065 127.585  0.00  0.00    +0.000 OA
ATOM     21  H   UNL     1      -6.062   5.935 127.906  0.00  0.00    +0.000 HD
ENDBRANCH  16  20
BRANCH  19  22
ATOM     22  O   UNL     1     -11.660   7.248 128.258  0.00  0.00    +0.000 OA
ATOM     23  C   UNL     1     -10.858   8.449 128.200  0.00  0.00    +0.000 C 
ENDBRANCH  19  22
TORSDOF 2
ENDMDL
MODEL 4
REMARK VINA RESULT:      -7.0      2.423      5.396
REMARK  Name = Dihydrocodeine
REMARK  4 active torsions:
REMARK  status: ('A' for Active; 'I' for Inactive)
REMARK    1  A    between atoms: N_9  and  C_10
REMARK    2  A    between atoms: C_18  and  O_19
REMARK    3  A    between atoms: C_22  and  O_23
REMARK    4  A    between atoms: O_23  and  C_24
REMARK                            x       y       z     vdW  Elec       q    Type
REMARK                         _______ _______ _______ _____ _____    ______ ____
ROOT
ATOM      1  C   UNL     1      -7.895  -2.148 125.055  0.00  0.00    +0.000 C 
ATOM      2  O   UNL     1      -8.030  -3.124 126.230  0.00  0.00    +0.000 OA
ATOM      3  C   UNL     1      -7.793  -2.354 127.396  0.00  0.00    +0.000 A 
ATOM      4  C   UNL     1      -8.100  -1.024 127.209  0.00  0.00    +0.000 A 
ATOM      5  C   UNL     1      -7.862   0.042 128.075  0.00  0.00    +0.000 A 
ATOM      6  C   UNL     1      -8.053   1.463 127.611  0.00  0.00    +0.000 C 
ATOM      7  C   UNL     1      -8.072   1.709 126.087  0.00  0.00    +0.000 C 
ATOM      8  N   UNL     1      -6.863   1.277 125.344  0.00  0.00    +0.000 NA
ATOM      9  C   UNL     1      -5.776   0.417 125.794  0.00  0.00    +0.000 C 
ATOM     10  C   UNL     1      -7.531   0.428 124.290  0.00  0.00    +0.000 C 
ATOM     11  C   UNL     1      -9.173  -0.598 124.911  0.00  0.00    +0.000 C 
ATOM     12  C   UNL     1      -8.199  -0.735 125.843  0.00  0.00    +0.000 C 
ATOM     13  C   UNL     1      -9.138   0.872 125.406  0.00  0.00    +0.000 C 
ATOM     14  C   UNL     1      -9.536   0.794 123.461  0.00  0.00    +0.000 C 
ATOM     15  C   UNL     1      -9.538  -0.789 122.716  0.00  0.00    +0.000 C 
ATOM     16  C   UNL     1      -8.808  -2.271 123.418  0.00  0.00    +0.000 C 
ATOM     17  C   UNL     1      -7.265  -0.224 129.276  0.00  0.00    +0.000 A 
ATOM     18  C   UNL     1      -6.943  -1.540 129.560  0.00  0.00    +0.000 A 
ATOM     19  C   UNL     1      -7.309  -2.615 128.675  0.00  0.00    +0.000 A 
ENDROOT
BRANCH  16  20
ATOM     20  O   UNL     1      -9.984  -3.125 123.526  0.00  0.00    +0.000 OA
ATOM     21  H   UNL     1     -10.545  -2.974 122.733  0.00  0.00    +0.000 HD
ENDBRANCH  16  20
BRANCH  19  22
ATOM     22  O   UNL     1      -7.458  -3.828 129.308  0.00  0.00    +0.000 OA
ATOM     23  C   UNL     1      -6.293  -3.904 130.161  0.00  0.00    +0.000 C 
ENDBRANCH  19  22
TORSDOF 2
ENDMDL
MODEL 5
REMARK VINA RESULT:      -6.9      8.279     10.008
REMARK  Name = Dihydrocodeine
REMARK  4 active torsions:
REMARK  status: ('A' for Active; 'I' for Inactive)
REMARK    1  A    between atoms: N_9  and  C_10
REMARK    2  A    between atoms: C_18  and  O_19
REMARK    3  A    between atoms: C_22  and  O_23
REMARK    4  A    between atoms: O_23  and  C_24
REMARK                            x       y       z     vdW  Elec       q    Type
REMARK                         _______ _______ _______ _____ _____    ______ ____
ROOT
ATOM      1  C   UNL     1      -5.460   6.074 131.112  0.00  0.00    +0.000 C 
ATOM      2  O   UNL     1      -6.407   7.071 130.435  0.00  0.00    +0.000 OA
ATOM      3  C   UNL     1      -7.687   6.823 130.992  0.00  0.00    +0.000 A 
ATOM      4  C   UNL     1      -7.604   6.279 132.255  0.00  0.00    +0.000 A 
ATOM      5  C   UNL     1      -8.639   5.777 133.043  0.00  0.00    +0.000 A 
ATOM      6  C   UNL     1      -8.337   5.009 134.304  0.00  0.00    +0.000 C 
ATOM      7  C   UNL     1      -6.915   4.423 134.448  0.00  0.00    +0.000 C 
ATOM      8  N   UNL     1      -6.486   3.488 133.379  0.00  0.00    +0.000 NA
ATOM      9  C   UNL     1      -7.099   3.247 132.080  0.00  0.00    +0.000 C 
ATOM     10  C   UNL     1      -5.183   4.151 133.003  0.00  0.00    +0.000 C 
ATOM     11  C   UNL     1      -5.179   6.181 133.103  0.00  0.00    +0.000 C 
ATOM     12  C   UNL     1      -6.317   5.781 132.487  0.00  0.00    +0.000 C 
ATOM     13  C   UNL     1      -5.858   5.503 134.322  0.00  0.00    +0.000 C 
ATOM     14  C   UNL     1      -3.887   5.261 134.391  0.00  0.00    +0.000 C 
ATOM     15  C   UNL     1      -2.964   5.899 133.050  0.00  0.00    +0.000 C 
ATOM     16  C   UNL     1      -3.634   6.353 131.447  0.00  0.00    +0.000 C 
ATOM     17  C   UNL     1      -9.911   5.823 132.544  0.00  0.00    +0.000 A 
ATOM     18  C   UNL     1     -10.092   6.377 131.288  0.00  0.00    +0.000 A 
ATOM     19  C   UNL     1      -9.002   6.978 130.564  0.00  0.00    +0.000 A 
ENDROOT
BRANCH  16  20
ATOM     20  O   UNL     1      -3.293   7.770 131.405  0.00  0.00    +0.000 OA
ATOM     21  H   UNL     1      -4.118   8.287 131.538  0.00  0.00    +0.000 HD
ENDBRANCH  16  20
BRANCH  19  22
ATOM     22  O   UNL     1      -9.399   7.951 129.673  0.00  0.00    +0.000 OA
ATOM     23  C   UNL     1     -10.743   7.552 129.321  0.00  0.00    +0.000 C 
ENDBRANCH  19  22
TORSDOF 2
ENDMDL
MODEL 6
REMARK VINA RESULT:      -6.9      2.690      5.160
REMARK  Name = Dihydrocodeine
REMARK  4 active torsions:
REMARK  status: ('A' for Active; 'I' for Inactive)
REMARK    1  A    between atoms: N_9  and  C_10
REMARK    2  A    between atoms: C_18  and  O_19
REMARK    3  A    between atoms: C_22  and  O_23
REMARK    4  A    between atoms: O_23  and  C_24
REMARK                            x       y       z     vdW  Elec       q    Type
REMARK                         _______ _______ _______ _____ _____    ______ ____
ROOT
ATOM      1  C   UNL     1      -7.177   0.596 127.101  0.00  0.00    +0.000 C 
ATOM      2  O   UNL     1      -8.126   0.259 125.945  0.00  0.00    +0.000 OA
ATOM      3  C   UNL     1      -8.414  -1.122 126.077  0.00  0.00    +0.000 A 
ATOM      4  C   UNL     1      -8.293  -1.554 127.380  0.00  0.00    +0.000 A 
ATOM      5  C   UNL     1      -8.358  -2.860 127.861  0.00  0.00    +0.000 A 
ATOM      6  C   UNL     1      -7.973  -3.172 129.284  0.00  0.00    +0.000 C 
ATOM      7  C   UNL     1      -7.107  -2.129 130.024  0.00  0.00    +0.000 C 
ATOM      8  N   UNL     1      -5.805  -1.802 129.392  0.00  0.00    +0.000 NA
ATOM      9  C   UNL     1      -5.340  -2.114 128.047  0.00  0.00    +0.000 C 
ATOM     10  C   UNL     1      -5.944  -0.299 129.345  0.00  0.00    +0.000 C 
ATOM     11  C   UNL     1      -7.825   0.390 128.997  0.00  0.00    +0.000 C 
ATOM     12  C   UNL     1      -7.569  -0.624 128.135  0.00  0.00    +0.000 C 
ATOM     13  C   UNL     1      -7.770  -0.765 130.031  0.00  0.00    +0.000 C 
ATOM     14  C   UNL     1      -7.047   0.912 130.813  0.00  0.00    +0.000 C 
ATOM     15  C   UNL     1      -6.961   2.304 129.758  0.00  0.00    +0.000 C 
ATOM     16  C   UNL     1      -7.050   2.259 127.965  0.00  0.00    +0.000 C 
ATOM     17  C   UNL     1      -8.582  -3.868 126.964  0.00  0.00    +0.000 A 
ATOM     18  C   UNL     1      -8.740  -3.523 125.633  0.00  0.00    +0.000 A 
ATOM     19  C   UNL     1      -8.771  -2.148 125.207  0.00  0.00    +0.000 A 
ENDROOT
BRANCH  16  20
ATOM     20  O   UNL     1      -8.238   3.072 127.735  0.00  0.00    +0.000 OA
ATOM     21  H   UNL     1      -8.953   2.484 127.405  0.00  0.00    +0.000 HD
ENDBRANCH  16  20
BRANCH  19  22
ATOM     22  O   UNL     1      -9.484  -1.943 124.046  0.00  0.00    +0.000 OA
ATOM     23  C   UNL     1      -9.505  -3.253 123.433  0.00  0.00    +0.000 C 
ENDBRANCH  19  22
TORSDOF 2
ENDMDL
MODEL 7
REMARK VINA RESULT:      -6.8      7.430      8.886
REMARK  Name = Dihydrocodeine
REMARK  4 active torsions:
REMARK  status: ('A' for Active; 'I' for Inactive)
REMARK    1  A    between atoms: N_9  and  C_10
REMARK    2  A    between atoms: C_18  and  O_19
REMARK    3  A    between atoms: C_22  and  O_23
REMARK    4  A    between atoms: O_23  and  C_24
REMARK                            x       y       z     vdW  Elec       q    Type
REMARK                         _______ _______ _______ _____ _____    ______ ____
ROOT
ATOM      1  C   UNL     1      -7.908   5.661 133.441  0.00  0.00    +0.000 C 
ATOM      2  O   UNL     1      -9.283   6.331 133.348  0.00  0.00    +0.000 OA
ATOM      3  C   UNL     1      -9.995   5.610 132.357  0.00  0.00    +0.000 A 
ATOM      4  C   UNL     1      -9.546   4.312 132.240  0.00  0.00    +0.000 A 
ATOM      5  C   UNL     1      -9.905   3.362 131.285  0.00  0.00    +0.000 A 
ATOM      6  C   UNL     1      -9.143   2.068 131.170  0.00  0.00    +0.000 C 
ATOM      7  C   UNL     1      -7.733   2.022 131.798  0.00  0.00    +0.000 C 
ATOM      8  N   UNL     1      -6.764   3.024 131.292  0.00  0.00    +0.000 NA
ATOM      9  C   UNL     1      -7.017   4.212 130.488  0.00  0.00    +0.000 C 
ATOM     10  C   UNL     1      -6.333   3.615 132.614  0.00  0.00    +0.000 C 
ATOM     11  C   UNL     1      -7.788   3.738 134.027  0.00  0.00    +0.000 C 
ATOM     12  C   UNL     1      -8.293   4.175 132.848  0.00  0.00    +0.000 C 
ATOM     13  C   UNL     1      -7.774   2.383 133.271  0.00  0.00    +0.000 C 
ATOM     14  C   UNL     1      -6.229   2.511 134.513  0.00  0.00    +0.000 C 
ATOM     15  C   UNL     1      -6.044   4.010 135.396  0.00  0.00    +0.000 C 
ATOM     16  C   UNL     1      -6.837   5.567 134.981  0.00  0.00    +0.000 C 
ATOM     17  C   UNL     1     -10.823   3.717 130.336  0.00  0.00    +0.000 A 
ATOM     18  C   UNL     1     -11.347   4.997 130.392  0.00  0.00    +0.000 A 
ATOM     19  C   UNL     1     -11.022   5.901 131.464  0.00  0.00    +0.000 A 
ENDROOT
BRANCH  16  20
ATOM     20  O   UNL     1      -7.618   5.800 136.190  0.00  0.00    +0.000 OA
ATOM     21  H   UNL     1      -8.050   6.680 136.110  0.00  0.00    +0.000 HD
ENDBRANCH  16  20
BRANCH  19  22
ATOM     22  O   UNL     1     -11.996   6.842 131.711  0.00  0.00    +0.000 OA
ATOM     23  C   UNL     1     -12.569   7.079 130.405  0.00  0.00    +0.000 C 
ENDBRANCH  19  22
TORSDOF 2
ENDMDL
MODEL 8
REMARK VINA RESULT:      -6.8      2.863      5.146
REMARK  Name = Dihydrocodeine
REMARK  4 active torsions:
REMARK  status: ('A' for Active; 'I' for Inactive)
REMARK    1  A    between atoms: N_9  and  C_10
REMARK    2  A    between atoms: C_18  and  O_19
REMARK    3  A    between atoms: C_22  and  O_23
REMARK    4  A    between atoms: O_23  and  C_24
REMARK                            x       y       z     vdW  Elec       q    Type
REMARK                         _______ _______ _______ _____ _____    ______ ____
ROOT
ATOM      1  C   UNL     1      -6.777   1.779 127.102  0.00  0.00    +0.000 C 
ATOM      2  O   UNL     1      -7.510   0.585 126.481  0.00  0.00    +0.000 OA
ATOM      3  C   UNL     1      -7.926   1.017 125.197  0.00  0.00    +0.000 A 
ATOM      4  C   UNL     1      -7.116   2.014 124.699  0.00  0.00    +0.000 A 
ATOM      5  C   UNL     1      -7.298   2.772 123.544  0.00  0.00    +0.000 A 
ATOM      6  C   UNL     1      -6.434   3.977 123.274  0.00  0.00    +0.000 C 
ATOM      7  C   UNL     1      -5.685   4.589 124.478  0.00  0.00    +0.000 C 
ATOM      8  N   UNL     1      -6.532   5.035 125.611  0.00  0.00    +0.000 NA
ATOM      9  C   UNL     1      -7.934   4.739 125.872  0.00  0.00    +0.000 C 
ATOM     10  C   UNL     1      -5.833   4.294 126.726  0.00  0.00    +0.000 C 
ATOM     11  C   UNL     1      -5.098   2.465 126.227  0.00  0.00    +0.000 C 
ATOM     12  C   UNL     1      -6.352   2.578 125.727  0.00  0.00    +0.000 C 
ATOM     13  C   UNL     1      -4.809   3.559 125.165  0.00  0.00    +0.000 C 
ATOM     14  C   UNL     1      -3.683   3.833 126.778  0.00  0.00    +0.000 C 
ATOM     15  C   UNL     1      -3.933   2.731 128.114  0.00  0.00    +0.000 C 
ATOM     16  C   UNL     1      -5.368   1.676 128.340  0.00  0.00    +0.000 C 
ATOM     17  C   UNL     1      -8.399   2.518 122.773  0.00  0.00    +0.000 A 
ATOM     18  C   UNL     1      -9.258   1.514 123.185  0.00  0.00    +0.000 A 
ATOM     19  C   UNL     1      -8.963   0.690 124.328  0.00  0.00    +0.000 A 
ENDROOT
BRANCH  16  20
ATOM     20  O   UNL     1      -4.740   0.361 128.326  0.00  0.00    +0.000 OA
ATOM     21  H   UNL     1      -4.495   0.129 129.249  0.00  0.00    +0.000 HD
ENDBRANCH  16  20
BRANCH  19  22
ATOM     22  O   UNL     1      -9.542  -0.559 124.275  0.00  0.00    +0.000 OA
ATOM     23  C   UNL     1      -8.959  -1.145 123.089  0.00  0.00    +0.000 C 
ENDBRANCH  19  22
TORSDOF 2
ENDMDL
MODEL 9
REMARK VINA RESULT:      -6.7      8.711     10.480
REMARK  Name = Dihydrocodeine
REMARK  4 active torsions:
REMARK  status: ('A' for Active; 'I' for Inactive)
REMARK    1  A    between atoms: N_9  and  C_10
REMARK    2  A    between atoms: C_18  and  O_19
REMARK    3  A    between atoms: C_22  and  O_23
REMARK    4  A    between atoms: O_23  and  C_24
REMARK                            x       y       z     vdW  Elec       q    Type
REMARK                         _______ _______ _______ _____ _____    ______ ____
ROOT
ATOM      1  C   UNL     1      -5.238   5.801 130.240  0.00  0.00    +0.000 C 
ATOM      2  O   UNL     1      -6.636   6.420 130.351  0.00  0.00    +0.000 OA
ATOM      3  C   UNL     1      -7.041   6.212 131.693  0.00  0.00    +0.000 A 
ATOM      4  C   UNL     1      -5.966   6.103 132.548  0.00  0.00    +0.000 A 
ATOM      5  C   UNL     1      -5.974   5.757 133.898  0.00  0.00    +0.000 A 
ATOM      6  C   UNL     1      -4.684   5.462 134.619  0.00  0.00    +0.000 C 
ATOM      7  C   UNL     1      -3.454   5.120 133.751  0.00  0.00    +0.000 C 
ATOM      8  N   UNL     1      -3.602   3.953 132.847  0.00  0.00    +0.000 NA
ATOM      9  C   UNL     1      -4.817   3.249 132.459  0.00  0.00    +0.000 C 
ATOM     10  C   UNL     1      -3.184   4.612 131.553  0.00  0.00    +0.000 C 
ATOM     11  C   UNL     1      -3.737   6.558 131.350  0.00  0.00    +0.000 C 
ATOM     12  C   UNL     1      -4.794   5.856 131.825  0.00  0.00    +0.000 C 
ATOM     13  C   UNL     1      -3.161   6.221 132.751  0.00  0.00    +0.000 C 
ATOM     14  C   UNL     1      -1.718   6.243 131.385  0.00  0.00    +0.000 C 
ATOM     15  C   UNL     1      -2.201   6.531 129.729  0.00  0.00    +0.000 C 
ATOM     16  C   UNL     1      -3.872   6.380 129.089  0.00  0.00    +0.000 C 
ATOM     17  C   UNL     1      -7.178   5.497 134.490  0.00  0.00    +0.000 A 
ATOM     18  C   UNL     1      -8.318   5.605 133.711  0.00  0.00    +0.000 A 
ATOM     19  C   UNL     1      -8.261   6.072 132.350  0.00  0.00    +0.000 A 
ENDROOT
BRANCH  16  20
ATOM     20  O   UNL     1      -4.105   7.743 128.626  0.00  0.00    +0.000 OA
ATOM     21  H   UNL     1      -4.847   8.121 129.148  0.00  0.00    +0.000 HD
ENDBRANCH  16  20
BRANCH  19  22
ATOM     22  O   UNL     1      -9.426   6.664 131.918  0.00  0.00    +0.000 OA
ATOM     23  C   UNL     1     -10.276   5.537 131.604  0.00  0.00    +0.000 C 
ENDBRANCH  19  22
TORSDOF 2
ENDMDL
