MODEL 1
REMARK VINA RESULT:     -10.4      0.000      0.000
REMARK  Name = Dihydroergocornine
REMARK  10 active torsions:
REMARK  status: ('A' for Active; 'I' for Inactive)
REMARK    1  A    between atoms: C_9  and  C_10
REMARK    2  A    between atoms: C_10  and  C_11
REMARK    3  A    between atoms: C_10  and  C_12
REMARK    4  A    between atoms: C_16  and  N_17
REMARK    5  A    between atoms: C_16  and  C_42
REMARK    6  A    between atoms: C_18  and  C_20
REMARK    7  A    between atoms: N_22  and  C_23
REMARK    8  A    between atoms: C_40  and  O_41
REMARK    9  A    between atoms: C_42  and  C_43
REMARK   10  A    between atoms: C_42  and  C_44
REMARK                            x       y       z     vdW  Elec       q    Type
REMARK                         _______ _______ _______ _____ _____    ______ ____
ROOT
ATOM      1  C   UNL     1      -3.754   6.700 131.682  0.00  0.00    +0.000 C 
ATOM      2  C   UNL     1      -2.852   7.963 131.846  0.00  0.00    +0.000 C 
ATOM      3  C   UNL     1      -2.651   8.215 133.369  0.00  0.00    +0.000 C 
ATOM      4  C   UNL     1      -3.242   7.027 134.081  0.00  0.00    +0.000 C 
ATOM      5  N   UNL     1      -4.074   6.406 133.076  0.00  0.00    +0.000 N 
ATOM      6  C   UNL     1      -5.329   5.970 133.320  0.00  0.00    +0.000 C 
ATOM      7  O   UNL     1      -5.943   6.141 134.357  0.00  0.00    +0.000 OA
ATOM      8  C   UNL     1      -5.811   5.128 132.160  0.00  0.00    +0.000 C 
ATOM      9  N   UNL     1      -4.864   5.170 130.763  0.00  0.00    +0.000 N 
ATOM     10  C   UNL     1      -4.960   4.495 129.474  0.00  0.00    +0.000 C 
ATOM     11  O   UNL     1      -3.976   4.361 128.757  0.00  0.00    +0.000 OA
ATOM     12  C   UNL     1      -6.349   3.939 129.225  0.00  0.00    +0.000 C 
ATOM     13  O   UNL     1      -6.497   5.606 129.841  0.00  0.00    +0.000 OA
ATOM     14  C   UNL     1      -5.071   6.454 130.363  0.00  0.00    +0.000 C 
ENDROOT
BRANCH  12  15
ATOM     15  N   UNL     1      -7.347   3.550 128.174  0.00  0.00    +0.000 N 
ATOM     16  C   UNL     1      -6.738   3.698 126.870  0.00  0.00    +0.000 C 
ATOM     17  O   UNL     1      -6.536   4.886 126.593  0.00  0.00    +0.000 OA
ATOM     18  H   UNL     1      -7.675   2.604 128.420  0.00  0.00    +0.000 HD
BRANCH  16  19
ATOM     19  C   UNL     1      -6.104   2.544 125.732  0.00  0.00    +0.000 C 
ATOM     20  C   UNL     1      -6.137   1.048 126.336  0.00  0.00    +0.000 C 
ATOM     21  N   UNL     1      -5.716  -0.232 125.193  0.00  0.00    +0.000 NA
ATOM     22  C   UNL     1      -5.641  -1.606 125.724  0.00  0.00    +0.000 C 
ATOM     23  C   UNL     1      -6.700  -0.532 123.952  0.00  0.00    +0.000 C 
ATOM     24  C   UNL     1      -8.388  -0.660 123.209  0.00  0.00    +0.000 C 
ATOM     25  C   UNL     1      -9.001  -1.739 123.810  0.00  0.00    +0.000 A 
ATOM     26  C   UNL     1      -9.524  -2.918 123.283  0.00  0.00    +0.000 A 
ATOM     27  N   UNL     1      -9.603  -3.722 124.363  0.00  0.00    +0.000 N 
ATOM     28  C   UNL     1      -9.155  -3.097 125.524  0.00  0.00    +0.000 A 
ATOM     29  C   UNL     1      -8.858  -3.688 126.741  0.00  0.00    +0.000 A 
ATOM     30  C   UNL     1      -8.244  -2.803 127.617  0.00  0.00    +0.000 A 
ATOM     31  C   UNL     1      -7.945  -1.376 127.203  0.00  0.00    +0.000 A 
ATOM     32  C   UNL     1      -8.277  -0.662 125.827  0.00  0.00    +0.000 A 
ATOM     33  C   UNL     1      -8.928  -1.758 125.168  0.00  0.00    +0.000 A 
ATOM     34  C   UNL     1      -7.385   0.546 124.621  0.00  0.00    +0.000 C 
ATOM     35  C   UNL     1      -6.756   2.095 124.446  0.00  0.00    +0.000 C 
ATOM     36  H   UNL     1      -9.807  -4.713 124.294  0.00  0.00    +0.000 HD
ENDBRANCH  16  19
ENDBRANCH  12  15
BRANCH   8  37
ATOM     37  C   UNL     1      -5.932   3.726 132.705  0.00  0.00    +0.000 C 
ATOM     38  C   UNL     1      -6.552   3.311 133.977  0.00  0.00    +0.000 C 
ATOM     39  C   UNL     1      -4.593   3.536 133.219  0.00  0.00    +0.000 C 
ENDBRANCH   8  37
BRANCH  12  40
ATOM     40  C   UNL     1      -6.318   2.176 129.760  0.00  0.00    +0.000 C 
ATOM     41  C   UNL     1      -5.207   1.049 129.397  0.00  0.00    +0.000 C 
ATOM     42  C   UNL     1      -7.814   1.734 130.068  0.00  0.00    +0.000 C 
ENDBRANCH  12  40
BRANCH  14  43
ATOM     43  O   UNL     1      -4.350   6.957 129.242  0.00  0.00    +0.000 OA
ATOM     44  H   UNL     1      -3.832   6.220 128.864  0.00  0.00    +0.000 HD
ENDBRANCH  14  43
TORSDOF 5
ENDMDL
MODEL 2
REMARK VINA RESULT:     -10.4      3.609      9.252
REMARK  Name = Dihydroergocornine
REMARK  10 active torsions:
REMARK  status: ('A' for Active; 'I' for Inactive)
REMARK    1  A    between atoms: C_9  and  C_10
REMARK    2  A    between atoms: C_10  and  C_11
REMARK    3  A    between atoms: C_10  and  C_12
REMARK    4  A    between atoms: C_16  and  N_17
REMARK    5  A    between atoms: C_16  and  C_42
REMARK    6  A    between atoms: C_18  and  C_20
REMARK    7  A    between atoms: N_22  and  C_23
REMARK    8  A    between atoms: C_40  and  O_41
REMARK    9  A    between atoms: C_42  and  C_43
REMARK   10  A    between atoms: C_42  and  C_44
REMARK                            x       y       z     vdW  Elec       q    Type
REMARK                         _______ _______ _______ _____ _____    ______ ____
ROOT
ATOM      1  C   UNL     1      -6.416  -2.610 131.823  0.00  0.00    +0.000 C 
ATOM      2  C   UNL     1      -5.952  -3.635 132.906  0.00  0.00    +0.000 C 
ATOM      3  C   UNL     1      -5.582  -4.963 132.183  0.00  0.00    +0.000 C 
ATOM      4  C   UNL     1      -5.629  -4.673 130.706  0.00  0.00    +0.000 C 
ATOM      5  N   UNL     1      -6.379  -3.441 130.623  0.00  0.00    +0.000 N 
ATOM      6  C   UNL     1      -7.366  -3.235 129.725  0.00  0.00    +0.000 C 
ATOM      7  O   UNL     1      -7.813  -4.075 128.967  0.00  0.00    +0.000 OA
ATOM      8  C   UNL     1      -7.746  -1.770 129.712  0.00  0.00    +0.000 C 
ATOM      9  N   UNL     1      -7.119  -0.826 130.964  0.00  0.00    +0.000 N 
ATOM     10  C   UNL     1      -7.215   0.593 131.284  0.00  0.00    +0.000 C 
ATOM     11  O   UNL     1      -6.380   1.138 131.996  0.00  0.00    +0.000 OA
ATOM     12  C   UNL     1      -8.375   1.261 130.569  0.00  0.00    +0.000 C 
ATOM     13  O   UNL     1      -8.939  -0.278 131.270  0.00  0.00    +0.000 OA
ATOM     14  C   UNL     1      -7.792  -1.345 132.026  0.00  0.00    +0.000 C 
ENDROOT
BRANCH  12  15
ATOM     15  N   UNL     1      -9.361   2.390 130.615  0.00  0.00    +0.000 N 
ATOM     16  C   UNL     1      -9.294   3.020 131.917  0.00  0.00    +0.000 C 
ATOM     17  O   UNL     1      -9.724   2.278 132.806  0.00  0.00    +0.000 OA
ATOM     18  H   UNL     1      -9.153   2.993 129.805  0.00  0.00    +0.000 HD
BRANCH  16  19
ATOM     19  C   UNL     1      -8.585   4.513 132.463  0.00  0.00    +0.000 C 
ATOM     20  C   UNL     1      -7.162   4.256 133.179  0.00  0.00    +0.000 C 
ATOM     21  N   UNL     1      -6.252   5.716 133.584  0.00  0.00    +0.000 NA
ATOM     22  C   UNL     1      -4.989   5.535 134.325  0.00  0.00    +0.000 C 
ATOM     23  C   UNL     1      -5.676   6.638 132.395  0.00  0.00    +0.000 C 
ATOM     24  C   UNL     1      -4.933   6.849 130.715  0.00  0.00    +0.000 C 
ATOM     25  C   UNL     1      -3.657   6.334 130.782  0.00  0.00    +0.000 A 
ATOM     26  C   UNL     1      -2.410   6.915 130.557  0.00  0.00    +0.000 A 
ATOM     27  N   UNL     1      -1.563   6.057 131.160  0.00  0.00    +0.000 N 
ATOM     28  C   UNL     1      -2.225   4.980 131.744  0.00  0.00    +0.000 A 
ATOM     29  C   UNL     1      -1.714   4.062 132.646  0.00  0.00    +0.000 A 
ATOM     30  C   UNL     1      -2.702   3.245 133.179  0.00  0.00    +0.000 A 
ATOM     31  C   UNL     1      -4.155   3.419 132.785  0.00  0.00    +0.000 A 
ATOM     32  C   UNL     1      -4.777   4.448 131.751  0.00  0.00    +0.000 A 
ATOM     33  C   UNL     1      -3.565   5.097 131.339  0.00  0.00    +0.000 A 
ATOM     34  C   UNL     1      -6.330   5.583 131.662  0.00  0.00    +0.000 C 
ATOM     35  C   UNL     1      -8.010   5.607 131.596  0.00  0.00    +0.000 C 
ATOM     36  H   UNL     1      -0.583   6.269 131.309  0.00  0.00    +0.000 HD
ENDBRANCH  16  19
ENDBRANCH  12  15
BRANCH   8  37
ATOM     37  C   UNL     1      -7.315  -1.256 128.361  0.00  0.00    +0.000 C 
ATOM     38  C   UNL     1      -7.459  -1.932 127.058  0.00  0.00    +0.000 C 
ATOM     39  C   UNL     1      -5.896  -1.533 128.422  0.00  0.00    +0.000 C 
ENDBRANCH   8  37
BRANCH  12  40
ATOM     40  C   UNL     1      -7.688   2.006 129.029  0.00  0.00    +0.000 C 
ATOM     41  C   UNL     1      -6.709   3.295 128.903  0.00  0.00    +0.000 C 
ATOM     42  C   UNL     1      -8.671   1.646 127.834  0.00  0.00    +0.000 C 
ENDBRANCH  12  40
BRANCH  14  43
ATOM     43  O   UNL     1      -7.476  -0.890 133.338  0.00  0.00    +0.000 OA
ATOM     44  H   UNL     1      -6.631  -1.304 133.603  0.00  0.00    +0.000 HD
ENDBRANCH  14  43
TORSDOF 5
ENDMDL
MODEL 3
REMARK VINA RESULT:     -10.3      2.563      8.860
REMARK  Name = Dihydroergocornine
REMARK  10 active torsions:
REMARK  status: ('A' for Active; 'I' for Inactive)
REMARK    1  A    between atoms: C_9  and  C_10
REMARK    2  A    between atoms: C_10  and  C_11
REMARK    3  A    between atoms: C_10  and  C_12
REMARK    4  A    between atoms: C_16  and  N_17
REMARK    5  A    between atoms: C_16  and  C_42
REMARK    6  A    between atoms: C_18  and  C_20
REMARK    7  A    between atoms: N_22  and  C_23
REMARK    8  A    between atoms: C_40  and  O_41
REMARK    9  A    between atoms: C_42  and  C_43
REMARK   10  A    between atoms: C_42  and  C_44
REMARK                            x       y       z     vdW  Elec       q    Type
REMARK                         _______ _______ _______ _____ _____    ______ ____
ROOT
ATOM      1  C   UNL     1      -8.107   1.901 124.213  0.00  0.00    +0.000 C 
ATOM      2  C   UNL     1      -8.752   2.717 123.048  0.00  0.00    +0.000 C 
ATOM      3  C   UNL     1      -9.614   1.739 122.197  0.00  0.00    +0.000 C 
ATOM      4  C   UNL     1      -9.645   0.434 122.946  0.00  0.00    +0.000 C 
ATOM      5  N   UNL     1      -8.550   0.550 123.881  0.00  0.00    +0.000 N 
ATOM      6  C   UNL     1      -7.660  -0.441 124.105  0.00  0.00    +0.000 C 
ATOM      7  O   UNL     1      -7.600  -1.486 123.484  0.00  0.00    +0.000 OA
ATOM      8  C   UNL     1      -6.828  -0.113 125.326  0.00  0.00    +0.000 C 
ATOM      9  N   UNL     1      -6.966   1.461 125.922  0.00  0.00    +0.000 N 
ATOM     10  C   UNL     1      -6.377   2.147 127.065  0.00  0.00    +0.000 C 
ATOM     11  O   UNL     1      -6.902   3.147 127.540  0.00  0.00    +0.000 OA
ATOM     12  C   UNL     1      -5.154   1.424 127.596  0.00  0.00    +0.000 C 
ATOM     13  O   UNL     1      -5.044   1.515 125.818  0.00  0.00    +0.000 OA
ATOM     14  C   UNL     1      -6.381   2.159 124.911  0.00  0.00    +0.000 C 
ENDROOT
BRANCH  12  15
ATOM     15  N   UNL     1      -3.856   1.580 128.331  0.00  0.00    +0.000 N 
ATOM     16  C   UNL     1      -3.560   2.991 128.467  0.00  0.00    +0.000 C 
ATOM     17  O   UNL     1      -3.293   3.509 127.378  0.00  0.00    +0.000 OA
ATOM     18  H   UNL     1      -3.950   1.047 129.207  0.00  0.00    +0.000 HD
BRANCH  16  19
ATOM     19  C   UNL     1      -3.675   4.089 129.813  0.00  0.00    +0.000 C 
ATOM     20  C   UNL     1      -5.046   4.938 129.759  0.00  0.00    +0.000 C 
ATOM     21  N   UNL     1      -5.370   5.930 131.185  0.00  0.00    +0.000 NA
ATOM     22  C   UNL     1      -6.564   6.796 131.142  0.00  0.00    +0.000 C 
ATOM     23  C   UNL     1      -5.677   5.207 132.592  0.00  0.00    +0.000 C 
ATOM     24  C   UNL     1      -6.417   3.838 133.590  0.00  0.00    +0.000 C 
ATOM     25  C   UNL     1      -7.785   3.974 133.490  0.00  0.00    +0.000 A 
ATOM     26  C   UNL     1      -8.769   4.170 134.457  0.00  0.00    +0.000 A 
ATOM     27  N   UNL     1      -9.815   4.624 133.737  0.00  0.00    +0.000 N 
ATOM     28  C   UNL     1      -9.523   4.718 132.378  0.00  0.00    +0.000 A 
ATOM     29  C   UNL     1     -10.254   5.371 131.400  0.00  0.00    +0.000 A 
ATOM     30  C   UNL     1      -9.571   5.438 130.193  0.00  0.00    +0.000 A 
ATOM     31  C   UNL     1      -8.177   4.858 130.051  0.00  0.00    +0.000 A 
ATOM     32  C   UNL     1      -7.314   4.097 131.142  0.00  0.00    +0.000 A 
ATOM     33  C   UNL     1      -8.256   4.131 132.224  0.00  0.00    +0.000 A 
ATOM     34  C   UNL     1      -5.476   4.080 131.716  0.00  0.00    +0.000 C 
ATOM     35  C   UNL     1      -3.899   3.720 131.260  0.00  0.00    +0.000 C 
ATOM     36  H   UNL     1     -10.650   5.006 134.166  0.00  0.00    +0.000 HD
ENDBRANCH  16  19
ENDBRANCH  12  15
BRANCH   8  37
ATOM     37  C   UNL     1      -7.221  -1.135 126.364  0.00  0.00    +0.000 C 
ATOM     38  C   UNL     1      -7.441  -2.579 126.160  0.00  0.00    +0.000 C 
ATOM     39  C   UNL     1      -8.639  -0.865 126.465  0.00  0.00    +0.000 C 
ENDBRANCH   8  37
BRANCH  12  40
ATOM     40  C   UNL     1      -5.733   0.347 128.976  0.00  0.00    +0.000 C 
ATOM     41  C   UNL     1      -6.370   0.811 130.395  0.00  0.00    +0.000 C 
ATOM     42  C   UNL     1      -4.948  -1.031 128.880  0.00  0.00    +0.000 C 
ENDBRANCH  12  40
BRANCH  14  43
ATOM     43  O   UNL     1      -6.379   3.583 124.961  0.00  0.00    +0.000 OA
ATOM     44  H   UNL     1      -7.258   3.894 124.670  0.00  0.00    +0.000 HD
ENDBRANCH  14  43
TORSDOF 5
ENDMDL
MODEL 4
REMARK VINA RESULT:     -10.2      2.767      9.305
REMARK  Name = Dihydroergocornine
REMARK  10 active torsions:
REMARK  status: ('A' for Active; 'I' for Inactive)
REMARK    1  A    between atoms: C_9  and  C_10
REMARK    2  A    between atoms: C_10  and  C_11
REMARK    3  A    between atoms: C_10  and  C_12
REMARK    4  A    between atoms: C_16  and  N_17
REMARK    5  A    between atoms: C_16  and  C_42
REMARK    6  A    between atoms: C_18  and  C_20
REMARK    7  A    between atoms: N_22  and  C_23
REMARK    8  A    between atoms: C_40  and  O_41
REMARK    9  A    between atoms: C_42  and  C_43
REMARK   10  A    between atoms: C_42  and  C_44
REMARK                            x       y       z     vdW  Elec       q    Type
REMARK                         _______ _______ _______ _____ _____    ______ ____
ROOT
ATOM      1  C   UNL     1      -6.103  -1.333 125.370  0.00  0.00    +0.000 C 
ATOM      2  C   UNL     1      -5.147  -2.358 124.683  0.00  0.00    +0.000 C 
ATOM      3  C   UNL     1      -5.609  -2.529 123.206  0.00  0.00    +0.000 C 
ATOM      4  C   UNL     1      -6.673  -1.491 122.968  0.00  0.00    +0.000 C 
ATOM      5  N   UNL     1      -7.066  -1.092 124.299  0.00  0.00    +0.000 N 
ATOM      6  C   UNL     1      -8.354  -0.945 124.678  0.00  0.00    +0.000 C 
ATOM      7  O   UNL     1      -9.322  -1.229 123.999  0.00  0.00    +0.000 OA
ATOM      8  C   UNL     1      -8.414  -0.254 126.023  0.00  0.00    +0.000 C 
ATOM      9  N   UNL     1      -6.951  -0.110 126.853  0.00  0.00    +0.000 N 
ATOM     10  C   UNL     1      -6.585   0.501 128.125  0.00  0.00    +0.000 C 
ATOM     11  O   UNL     1      -5.430   0.839 128.354  0.00  0.00    +0.000 OA
ATOM     12  C   UNL     1      -7.792   0.726 129.017  0.00  0.00    +0.000 C 
ATOM     13  O   UNL     1      -7.877  -0.919 128.335  0.00  0.00    +0.000 OA
ATOM     14  C   UNL     1      -6.705  -1.415 127.149  0.00  0.00    +0.000 C 
ENDROOT
BRANCH  12  15
ATOM     15  N   UNL     1      -8.265   0.862 130.434  0.00  0.00    +0.000 N 
ATOM     16  C   UNL     1      -7.132   0.715 131.323  0.00  0.00    +0.000 C 
ATOM     17  O   UNL     1      -6.694  -0.441 131.317  0.00  0.00    +0.000 OA
ATOM     18  H   UNL     1      -8.774   1.756 130.488  0.00  0.00    +0.000 HD
BRANCH  16  19
ATOM     19  C   UNL     1      -6.200   1.865 132.238  0.00  0.00    +0.000 C 
ATOM     20  C   UNL     1      -4.871   2.309 131.438  0.00  0.00    +0.000 C 
ATOM     21  N   UNL     1      -3.959   3.632 132.175  0.00  0.00    +0.000 NA
ATOM     22  C   UNL     1      -2.687   4.008 131.530  0.00  0.00    +0.000 C 
ATOM     23  C   UNL     1      -4.617   5.102 132.235  0.00  0.00    +0.000 C 
ATOM     24  C   UNL     1      -5.654   6.450 131.511  0.00  0.00    +0.000 C 
ATOM     25  C   UNL     1      -4.972   6.923 130.410  0.00  0.00    +0.000 A 
ATOM     26  C   UNL     1      -4.482   8.190 130.098  0.00  0.00    +0.000 A 
ATOM     27  N   UNL     1      -3.587   7.935 129.123  0.00  0.00    +0.000 N 
ATOM     28  C   UNL     1      -3.501   6.578 128.821  0.00  0.00    +0.000 A 
ATOM     29  C   UNL     1      -2.528   5.939 128.071  0.00  0.00    +0.000 A 
ATOM     30  C   UNL     1      -2.637   4.557 128.141  0.00  0.00    +0.000 A 
ATOM     31  C   UNL     1      -3.713   3.900 128.984  0.00  0.00    +0.000 A 
ATOM     32  C   UNL     1      -4.848   4.596 129.845  0.00  0.00    +0.000 A 
ATOM     33  C   UNL     1      -4.531   5.965 129.553  0.00  0.00    +0.000 A 
ATOM     34  C   UNL     1      -5.649   4.341 131.578  0.00  0.00    +0.000 C 
ATOM     35  C   UNL     1      -6.571   3.301 132.523  0.00  0.00    +0.000 C 
ATOM     36  H   UNL     1      -2.940   8.635 128.778  0.00  0.00    +0.000 HD
ENDBRANCH  16  19
ENDBRANCH  12  15
BRANCH   8  37
ATOM     37  C   UNL     1      -9.034   1.095 125.753  0.00  0.00    +0.000 C 
ATOM     38  C   UNL     1     -10.040   1.429 124.727  0.00  0.00    +0.000 C 
ATOM     39  C   UNL     1      -7.966   1.722 125.005  0.00  0.00    +0.000 C 
ENDBRANCH   8  37
BRANCH  12  40
ATOM     40  C   UNL     1      -8.344   2.462 128.733  0.00  0.00    +0.000 C 
ATOM     41  C   UNL     1      -7.483   3.686 128.105  0.00  0.00    +0.000 C 
ATOM     42  C   UNL     1      -9.520   2.772 129.757  0.00  0.00    +0.000 C 
ENDBRANCH  12  40
BRANCH  14  43
ATOM     43  O   UNL     1      -5.476  -1.764 127.778  0.00  0.00    +0.000 OA
ATOM     44  H   UNL     1      -5.622  -2.586 128.285  0.00  0.00    +0.000 HD
ENDBRANCH  14  43
TORSDOF 5
ENDMDL
MODEL 5
REMARK VINA RESULT:     -10.0      5.725      9.529
REMARK  Name = Dihydroergocornine
REMARK  10 active torsions:
REMARK  status: ('A' for Active; 'I' for Inactive)
REMARK    1  A    between atoms: C_9  and  C_10
REMARK    2  A    between atoms: C_10  and  C_11
REMARK    3  A    between atoms: C_10  and  C_12
REMARK    4  A    between atoms: C_16  and  N_17
REMARK    5  A    between atoms: C_16  and  C_42
REMARK    6  A    between atoms: C_18  and  C_20
REMARK    7  A    between atoms: N_22  and  C_23
REMARK    8  A    between atoms: C_40  and  O_41
REMARK    9  A    between atoms: C_42  and  C_43
REMARK   10  A    between atoms: C_42  and  C_44
REMARK                            x       y       z     vdW  Elec       q    Type
REMARK                         _______ _______ _______ _____ _____    ______ ____
ROOT
ATOM      1  C   UNL     1      -6.494  -3.840 133.989  0.00  0.00    +0.000 C 
ATOM      2  C   UNL     1      -6.962  -4.780 135.145  0.00  0.00    +0.000 C 
ATOM      3  C   UNL     1      -6.134  -6.095 135.058  0.00  0.00    +0.000 C 
ATOM      4  C   UNL     1      -5.072  -5.865 134.017  0.00  0.00    +0.000 C 
ATOM      5  N   UNL     1      -5.546  -4.707 133.294  0.00  0.00    +0.000 N 
ATOM      6  C   UNL     1      -5.538  -4.620 131.947  0.00  0.00    +0.000 C 
ATOM      7  O   UNL     1      -5.242  -5.523 131.187  0.00  0.00    +0.000 OA
ATOM      8  C   UNL     1      -5.827  -3.196 131.525  0.00  0.00    +0.000 C 
ATOM      9  N   UNL     1      -6.375  -2.156 132.737  0.00  0.00    +0.000 N 
ATOM     10  C   UNL     1      -6.723  -0.741 132.752  0.00  0.00    +0.000 C 
ATOM     11  O   UNL     1      -6.717  -0.099 133.795  0.00  0.00    +0.000 OA
ATOM     12  C   UNL     1      -6.980  -0.203 131.356  0.00  0.00    +0.000 C 
ATOM     13  O   UNL     1      -7.830  -1.760 131.540  0.00  0.00    +0.000 OA
ATOM     14  C   UNL     1      -7.599  -2.694 132.989  0.00  0.00    +0.000 C 
ENDROOT
BRANCH  12  15
ATOM     15  N   UNL     1      -7.705   0.836 130.553  0.00  0.00    +0.000 N 
ATOM     16  C   UNL     1      -8.603   1.562 131.426  0.00  0.00    +0.000 C 
ATOM     17  O   UNL     1      -9.537   0.851 131.814  0.00  0.00    +0.000 OA
ATOM     18  H   UNL     1      -6.982   1.394 130.077  0.00  0.00    +0.000 HD
BRANCH  16  19
ATOM     19  C   UNL     1      -8.520   3.146 132.142  0.00  0.00    +0.000 C 
ATOM     20  C   UNL     1      -8.387   4.291 131.013  0.00  0.00    +0.000 C 
ATOM     21  N   UNL     1      -8.508   5.950 131.609  0.00  0.00    +0.000 NA
ATOM     22  C   UNL     1      -8.298   7.032 130.629  0.00  0.00    +0.000 C 
ATOM     23  C   UNL     1      -9.911   6.469 132.209  0.00  0.00    +0.000 C 
ATOM     24  C   UNL     1     -11.760   6.515 132.215  0.00  0.00    +0.000 C 
ATOM     25  C   UNL     1     -12.141   7.165 131.060  0.00  0.00    +0.000 A 
ATOM     26  C   UNL     1     -12.884   8.325 130.854  0.00  0.00    +0.000 A 
ATOM     27  N   UNL     1     -12.574   8.660 129.585  0.00  0.00    +0.000 N 
ATOM     28  C   UNL     1     -11.678   7.767 129.003  0.00  0.00    +0.000 A 
ATOM     29  C   UNL     1     -10.959   7.933 127.831  0.00  0.00    +0.000 A 
ATOM     30  C   UNL     1     -10.010   6.936 127.653  0.00  0.00    +0.000 A 
ATOM     31  C   UNL     1      -9.828   5.838 128.684  0.00  0.00    +0.000 A 
ATOM     32  C   UNL     1     -10.636   5.609 130.028  0.00  0.00    +0.000 A 
ATOM     33  C   UNL     1     -11.545   6.715 129.924  0.00  0.00    +0.000 A 
ATOM     34  C   UNL     1     -10.228   5.111 131.843  0.00  0.00    +0.000 C 
ATOM     35  C   UNL     1      -9.644   3.883 132.831  0.00  0.00    +0.000 C 
ATOM     36  H   UNL     1     -12.836   9.550 129.174  0.00  0.00    +0.000 HD
ENDBRANCH  16  19
ENDBRANCH  12  15
BRANCH   8  37
ATOM     37  C   UNL     1      -4.548  -2.695 130.902  0.00  0.00    +0.000 C 
ATOM     38  C   UNL     1      -3.673  -3.412 129.954  0.00  0.00    +0.000 C 
ATOM     39  C   UNL     1      -3.631  -2.897 132.002  0.00  0.00    +0.000 C 
ENDBRANCH   8  37
BRANCH  12  40
ATOM     40  C   UNL     1      -5.398   0.544 130.776  0.00  0.00    +0.000 C 
ATOM     41  C   UNL     1      -4.639   1.848 131.375  0.00  0.00    +0.000 C 
ATOM     42  C   UNL     1      -5.209   0.158 129.246  0.00  0.00    +0.000 C 
ENDBRANCH  12  40
BRANCH  14  43
ATOM     43  O   UNL     1      -8.383  -2.166 134.055  0.00  0.00    +0.000 OA
ATOM     44  H   UNL     1      -8.207  -2.703 134.851  0.00  0.00    +0.000 HD
ENDBRANCH  14  43
TORSDOF 5
ENDMDL
MODEL 6
REMARK VINA RESULT:      -9.8      3.744      5.881
REMARK  Name = Dihydroergocornine
REMARK  10 active torsions:
REMARK  status: ('A' for Active; 'I' for Inactive)
REMARK    1  A    between atoms: C_9  and  C_10
REMARK    2  A    between atoms: C_10  and  C_11
REMARK    3  A    between atoms: C_10  and  C_12
REMARK    4  A    between atoms: C_16  and  N_17
REMARK    5  A    between atoms: C_16  and  C_42
REMARK    6  A    between atoms: C_18  and  C_20
REMARK    7  A    between atoms: N_22  and  C_23
REMARK    8  A    between atoms: C_40  and  O_41
REMARK    9  A    between atoms: C_42  and  C_43
REMARK   10  A    between atoms: C_42  and  C_44
REMARK                            x       y       z     vdW  Elec       q    Type
REMARK                         _______ _______ _______ _____ _____    ______ ____
ROOT
ATOM      1  C   UNL     1      -3.940   4.992 130.749  0.00  0.00    +0.000 C 
ATOM      2  C   UNL     1      -2.438   5.418 130.718  0.00  0.00    +0.000 C 
ATOM      3  C   UNL     1      -2.336   6.860 131.297  0.00  0.00    +0.000 C 
ATOM      4  C   UNL     1      -3.698   7.199 131.841  0.00  0.00    +0.000 C 
ATOM      5  N   UNL     1      -4.566   6.223 131.225  0.00  0.00    +0.000 N 
ATOM      6  C   UNL     1      -5.759   6.534 130.676  0.00  0.00    +0.000 C 
ATOM      7  O   UNL     1      -6.194   7.662 130.534  0.00  0.00    +0.000 OA
ATOM      8  C   UNL     1      -6.531   5.267 130.380  0.00  0.00    +0.000 C 
ATOM      9  N   UNL     1      -5.666   3.822 130.498  0.00  0.00    +0.000 N 
ATOM     10  C   UNL     1      -6.039   2.423 130.331  0.00  0.00    +0.000 C 
ATOM     11  O   UNL     1      -5.375   1.527 130.839  0.00  0.00    +0.000 OA
ATOM     12  C   UNL     1      -7.341   2.267 129.567  0.00  0.00    +0.000 C 
ATOM     13  O   UNL     1      -6.314   3.455 128.723  0.00  0.00    +0.000 OA
ATOM     14  C   UNL     1      -4.815   3.957 129.447  0.00  0.00    +0.000 C 
ENDROOT
BRANCH  12  15
ATOM     15  N   UNL     1      -8.145   1.364 128.680  0.00  0.00    +0.000 N 
ATOM     16  C   UNL     1      -7.302   0.278 128.227  0.00  0.00    +0.000 C 
ATOM     17  O   UNL     1      -6.425   0.673 127.451  0.00  0.00    +0.000 OA
ATOM     18  H   UNL     1      -8.983   1.097 129.217  0.00  0.00    +0.000 HD
BRANCH  16  19
ATOM     19  C   UNL     1      -7.193  -1.396 128.692  0.00  0.00    +0.000 C 
ATOM     20  C   UNL     1      -5.770  -1.720 129.380  0.00  0.00    +0.000 C 
ATOM     21  N   UNL     1      -5.627  -3.335 130.084  0.00  0.00    +0.000 NA
ATOM     22  C   UNL     1      -4.313  -3.710 130.639  0.00  0.00    +0.000 C 
ATOM     23  C   UNL     1      -6.523  -3.714 131.368  0.00  0.00    +0.000 C 
ATOM     24  C   UNL     1      -7.338  -3.277 132.969  0.00  0.00    +0.000 C 
ATOM     25  C   UNL     1      -6.326  -3.061 133.879  0.00  0.00    +0.000 A 
ATOM     26  C   UNL     1      -6.024  -3.677 135.092  0.00  0.00    +0.000 A 
ATOM     27  N   UNL     1      -4.738  -3.327 135.297  0.00  0.00    +0.000 N 
ATOM     28  C   UNL     1      -4.235  -2.528 134.273  0.00  0.00    +0.000 A 
ATOM     29  C   UNL     1      -2.912  -2.203 134.028  0.00  0.00    +0.000 A 
ATOM     30  C   UNL     1      -2.749  -1.558 132.810  0.00  0.00    +0.000 A 
ATOM     31  C   UNL     1      -3.933  -1.298 131.898  0.00  0.00    +0.000 A 
ATOM     32  C   UNL     1      -5.459  -1.646 132.148  0.00  0.00    +0.000 A 
ATOM     33  C   UNL     1      -5.336  -2.233 133.452  0.00  0.00    +0.000 A 
ATOM     34  C   UNL     1      -6.924  -2.353 131.117  0.00  0.00    +0.000 C 
ATOM     35  C   UNL     1      -7.947  -2.070 129.813  0.00  0.00    +0.000 C 
ATOM     36  H   UNL     1      -4.168  -3.740 136.027  0.00  0.00    +0.000 HD
ENDBRANCH  16  19
ENDBRANCH  12  15
BRANCH   8  37
ATOM     37  C   UNL     1      -7.710   5.286 131.322  0.00  0.00    +0.000 C 
ATOM     38  C   UNL     1      -8.645   6.401 131.563  0.00  0.00    +0.000 C 
ATOM     39  C   UNL     1      -7.028   5.501 132.580  0.00  0.00    +0.000 C 
ENDBRANCH   8  37
BRANCH  12  40
ATOM     40  C   UNL     1      -8.679   2.118 130.826  0.00  0.00    +0.000 C 
ATOM     41  C   UNL     1      -8.945   0.885 131.849  0.00  0.00    +0.000 C 
ATOM     42  C   UNL     1      -9.897   3.022 130.351  0.00  0.00    +0.000 C 
ENDBRANCH  12  40
BRANCH  14  43
ATOM     43  O   UNL     1      -3.806   2.973 129.239  0.00  0.00    +0.000 OA
ATOM     44  H   UNL     1      -3.611   2.941 128.282  0.00  0.00    +0.000 HD
ENDBRANCH  14  43
TORSDOF 5
ENDMDL
MODEL 7
REMARK VINA RESULT:      -9.8      3.616      7.675
REMARK  Name = Dihydroergocornine
REMARK  10 active torsions:
REMARK  status: ('A' for Active; 'I' for Inactive)
REMARK    1  A    between atoms: C_9  and  C_10
REMARK    2  A    between atoms: C_10  and  C_11
REMARK    3  A    between atoms: C_10  and  C_12
REMARK    4  A    between atoms: C_16  and  N_17
REMARK    5  A    between atoms: C_16  and  C_42
REMARK    6  A    between atoms: C_18  and  C_20
REMARK    7  A    between atoms: N_22  and  C_23
REMARK    8  A    between atoms: C_40  and  O_41
REMARK    9  A    between atoms: C_42  and  C_43
REMARK   10  A    between atoms: C_42  and  C_44
REMARK                            x       y       z     vdW  Elec       q    Type
REMARK                         _______ _______ _______ _____ _____    ______ ____
ROOT
ATOM      1  C   UNL     1      -7.761   2.065 125.744  0.00  0.00    +0.000 C 
ATOM      2  C   UNL     1      -8.895   1.677 124.744  0.00  0.00    +0.000 C 
ATOM      3  C   UNL     1      -8.365   1.918 123.300  0.00  0.00    +0.000 C 
ATOM      4  C   UNL     1      -6.900   2.241 123.431  0.00  0.00    +0.000 C 
ATOM      5  N   UNL     1      -6.748   2.579 124.827  0.00  0.00    +0.000 N 
ATOM      6  C   UNL     1      -6.044   3.648 125.257  0.00  0.00    +0.000 C 
ATOM      7  O   UNL     1      -5.555   4.502 124.541  0.00  0.00    +0.000 OA
ATOM      8  C   UNL     1      -5.844   3.559 126.754  0.00  0.00    +0.000 C 
ATOM      9  N   UNL     1      -6.753   2.386 127.559  0.00  0.00    +0.000 N 
ATOM     10  C   UNL     1      -6.824   1.966 128.953  0.00  0.00    +0.000 C 
ATOM     11  O   UNL     1      -7.244   0.857 129.258  0.00  0.00    +0.000 OA
ATOM     12  C   UNL     1      -6.248   3.009 129.893  0.00  0.00    +0.000 C 
ATOM     13  O   UNL     1      -7.314   3.820 128.715  0.00  0.00    +0.000 OA
ATOM     14  C   UNL     1      -8.004   2.898 127.411  0.00  0.00    +0.000 C 
ENDROOT
BRANCH  12  15
ATOM     15  N   UNL     1      -6.286   3.564 131.286  0.00  0.00    +0.000 N 
ATOM     16  C   UNL     1      -7.355   2.920 132.019  0.00  0.00    +0.000 C 
ATOM     17  O   UNL     1      -8.466   3.249 131.589  0.00  0.00    +0.000 OA
ATOM     18  H   UNL     1      -5.337   3.453 131.671  0.00  0.00    +0.000 HD
BRANCH  16  19
ATOM     19  C   UNL     1      -7.359   1.680 133.240  0.00  0.00    +0.000 C 
ATOM     20  C   UNL     1      -7.708   0.237 132.606  0.00  0.00    +0.000 C 
ATOM     21  N   UNL     1      -7.533  -1.130 133.712  0.00  0.00    +0.000 NA
ATOM     22  C   UNL     1      -7.932  -2.457 133.205  0.00  0.00    +0.000 C 
ATOM     23  C   UNL     1      -6.064  -1.531 134.239  0.00  0.00    +0.000 C 
ATOM     24  C   UNL     1      -4.242  -1.722 133.988  0.00  0.00    +0.000 C 
ATOM     25  C   UNL     1      -4.076  -2.750 133.085  0.00  0.00    +0.000 A 
ATOM     26  C   UNL     1      -3.407  -3.969 133.182  0.00  0.00    +0.000 A 
ATOM     27  N   UNL     1      -3.933  -4.684 132.167  0.00  0.00    +0.000 N 
ATOM     28  C   UNL     1      -4.889  -3.967 131.452  0.00  0.00    +0.000 A 
ATOM     29  C   UNL     1      -5.797  -4.457 130.528  0.00  0.00    +0.000 A 
ATOM     30  C   UNL     1      -6.737  -3.503 130.161  0.00  0.00    +0.000 A 
ATOM     31  C   UNL     1      -6.716  -2.113 130.765  0.00  0.00    +0.000 A 
ATOM     32  C   UNL     1      -5.690  -1.513 131.814  0.00  0.00    +0.000 A 
ATOM     33  C   UNL     1      -4.840  -2.660 131.964  0.00  0.00    +0.000 A 
ATOM     34  C   UNL     1      -5.777  -0.404 133.386  0.00  0.00    +0.000 C 
ATOM     35  C   UNL     1      -6.156   1.127 133.966  0.00  0.00    +0.000 C 
ATOM     36  H   UNL     1      -3.766  -5.677 132.053  0.00  0.00    +0.000 HD
ENDBRANCH  16  19
ENDBRANCH  12  15
BRANCH   8  37
ATOM     37  C   UNL     1      -4.363   3.343 126.948  0.00  0.00    +0.000 C 
ATOM     38  C   UNL     1      -3.264   3.886 126.128  0.00  0.00    +0.000 C 
ATOM     39  C   UNL     1      -4.221   2.020 126.380  0.00  0.00    +0.000 C 
ENDBRANCH   8  37
BRANCH  12  40
ATOM     40  C   UNL     1      -4.493   2.535 130.198  0.00  0.00    +0.000 C 
ATOM     41  C   UNL     1      -3.938   1.161 130.861  0.00  0.00    +0.000 C 
ATOM     42  C   UNL     1      -3.644   3.872 130.332  0.00  0.00    +0.000 C 
ENDBRANCH  12  40
BRANCH  14  43
ATOM     43  O   UNL     1      -9.122   2.144 127.869  0.00  0.00    +0.000 OA
ATOM     44  H   UNL     1      -9.200   2.280 128.834  0.00  0.00    +0.000 HD
ENDBRANCH  14  43
TORSDOF 5
ENDMDL
MODEL 8
REMARK VINA RESULT:      -9.8      4.693      9.869
REMARK  Name = Dihydroergocornine
REMARK  10 active torsions:
REMARK  status: ('A' for Active; 'I' for Inactive)
REMARK    1  A    between atoms: C_9  and  C_10
REMARK    2  A    between atoms: C_10  and  C_11
REMARK    3  A    between atoms: C_10  and  C_12
REMARK    4  A    between atoms: C_16  and  N_17
REMARK    5  A    between atoms: C_16  and  C_42
REMARK    6  A    between atoms: C_18  and  C_20
REMARK    7  A    between atoms: N_22  and  C_23
REMARK    8  A    between atoms: C_40  and  O_41
REMARK    9  A    between atoms: C_42  and  C_43
REMARK   10  A    between atoms: C_42  and  C_44
REMARK                            x       y       z     vdW  Elec       q    Type
REMARK                         _______ _______ _______ _____ _____    ______ ____
ROOT
ATOM      1  C   UNL     1      -6.193  -3.655 133.656  0.00  0.00    +0.000 C 
ATOM      2  C   UNL     1      -6.365  -4.563 134.915  0.00  0.00    +0.000 C 
ATOM      3  C   UNL     1      -5.462  -5.818 134.728  0.00  0.00    +0.000 C 
ATOM      4  C   UNL     1      -4.630  -5.566 133.499  0.00  0.00    +0.000 C 
ATOM      5  N   UNL     1      -5.321  -4.488 132.832  0.00  0.00    +0.000 N 
ATOM      6  C   UNL     1      -5.565  -4.473 131.504  0.00  0.00    +0.000 C 
ATOM      7  O   UNL     1      -5.340  -5.392 130.739  0.00  0.00    +0.000 OA
ATOM      8  C   UNL     1      -6.041  -3.099 131.088  0.00  0.00    +0.000 C 
ATOM      9  N   UNL     1      -6.443  -2.038 132.338  0.00  0.00    +0.000 N 
ATOM     10  C   UNL     1      -6.897  -0.653 132.360  0.00  0.00    +0.000 C 
ATOM     11  O   UNL     1      -6.754   0.043 133.358  0.00  0.00    +0.000 OA
ATOM     12  C   UNL     1      -7.447  -0.212 131.017  0.00  0.00    +0.000 C 
ATOM     13  O   UNL     1      -8.119  -1.814 131.417  0.00  0.00    +0.000 OA
ATOM     14  C   UNL     1      -7.552  -2.649 132.834  0.00  0.00    +0.000 C 
ENDROOT
BRANCH  12  15
ATOM     15  N   UNL     1      -8.388   0.727 130.322  0.00  0.00    +0.000 N 
ATOM     16  C   UNL     1      -9.144   1.456 131.318  0.00  0.00    +0.000 C 
ATOM     17  O   UNL     1      -9.930   0.719 131.924  0.00  0.00    +0.000 OA
ATOM     18  H   UNL     1      -7.815   1.293 129.680  0.00  0.00    +0.000 HD
BRANCH  16  19
ATOM     19  C   UNL     1      -9.033   3.087 131.915  0.00  0.00    +0.000 C 
ATOM     20  C   UNL     1      -8.374   3.127 133.387  0.00  0.00    +0.000 C 
ATOM     21  N   UNL     1      -8.016   4.744 134.004  0.00  0.00    +0.000 NA
ATOM     22  C   UNL     1      -7.500   4.835 135.383  0.00  0.00    +0.000 C 
ATOM     23  C   UNL     1      -6.873   5.624 133.286  0.00  0.00    +0.000 C 
ATOM     24  C   UNL     1      -5.248   5.783 132.418  0.00  0.00    +0.000 C 
ATOM     25  C   UNL     1      -4.275   5.483 133.346  0.00  0.00    +0.000 A 
ATOM     26  C   UNL     1      -3.206   6.227 133.841  0.00  0.00    +0.000 A 
ATOM     27  N   UNL     1      -2.884   5.575 134.977  0.00  0.00    +0.000 N 
ATOM     28  C   UNL     1      -3.700   4.470 135.204  0.00  0.00    +0.000 A 
ATOM     29  C   UNL     1      -3.822   3.735 136.372  0.00  0.00    +0.000 A 
ATOM     30  C   UNL     1      -4.873   2.830 136.314  0.00  0.00    +0.000 A 
ATOM     31  C   UNL     1      -5.755   2.735 135.084  0.00  0.00    +0.000 A 
ATOM     32  C   UNL     1      -5.641   3.549 133.728  0.00  0.00    +0.000 A 
ATOM     33  C   UNL     1      -4.483   4.336 134.046  0.00  0.00    +0.000 A 
ATOM     34  C   UNL     1      -6.851   4.413 132.504  0.00  0.00    +0.000 C 
ATOM     35  C   UNL     1      -8.106   4.168 131.413  0.00  0.00    +0.000 C 
ATOM     36  H   UNL     1      -2.235   5.951 135.658  0.00  0.00    +0.000 HD
ENDBRANCH  16  19
ENDBRANCH  12  15
BRANCH   8  37
ATOM     37  C   UNL     1      -4.942  -2.541 130.218  0.00  0.00    +0.000 C 
ATOM     38  C   UNL     1      -4.133  -3.267 129.221  0.00  0.00    +0.000 C 
ATOM     39  C   UNL     1      -3.855  -2.505 131.171  0.00  0.00    +0.000 C 
ENDBRANCH   8  37
BRANCH  12  40
ATOM     40  C   UNL     1      -6.062   0.616 130.124  0.00  0.00    +0.000 C 
ATOM     41  C   UNL     1      -5.224   1.925 130.592  0.00  0.00    +0.000 C 
ATOM     42  C   UNL     1      -6.222   0.296 128.575  0.00  0.00    +0.000 C 
ENDBRANCH  12  40
BRANCH  14  43
ATOM     43  O   UNL     1      -8.170  -2.123 134.005  0.00  0.00    +0.000 OA
ATOM     44  H   UNL     1      -7.867  -2.653 134.767  0.00  0.00    +0.000 HD
ENDBRANCH  14  43
TORSDOF 5
ENDMDL
MODEL 9
REMARK VINA RESULT:      -9.7      2.587      4.511
REMARK  Name = Dihydroergocornine
REMARK  10 active torsions:
REMARK  status: ('A' for Active; 'I' for Inactive)
REMARK    1  A    between atoms: C_9  and  C_10
REMARK    2  A    between atoms: C_10  and  C_11
REMARK    3  A    between atoms: C_10  and  C_12
REMARK    4  A    between atoms: C_16  and  N_17
REMARK    5  A    between atoms: C_16  and  C_42
REMARK    6  A    between atoms: C_18  and  C_20
REMARK    7  A    between atoms: N_22  and  C_23
REMARK    8  A    between atoms: C_40  and  O_41
REMARK    9  A    between atoms: C_42  and  C_43
REMARK   10  A    between atoms: C_42  and  C_44
REMARK                            x       y       z     vdW  Elec       q    Type
REMARK                         _______ _______ _______ _____ _____    ______ ____
ROOT
ATOM      1  C   UNL     1      -9.437   4.822 130.341  0.00  0.00    +0.000 C 
ATOM      2  C   UNL     1     -10.948   4.967 129.976  0.00  0.00    +0.000 C 
ATOM      3  C   UNL     1     -11.619   5.865 131.056  0.00  0.00    +0.000 C 
ATOM      4  C   UNL     1     -10.507   6.400 131.918  0.00  0.00    +0.000 C 
ATOM      5  N   UNL     1      -9.392   5.534 131.615  0.00  0.00    +0.000 N 
ATOM      6  C   UNL     1      -8.583   5.009 132.561  0.00  0.00    +0.000 C 
ATOM      7  O   UNL     1      -8.753   5.106 133.762  0.00  0.00    +0.000 OA
ATOM      8  C   UNL     1      -7.366   4.392 131.907  0.00  0.00    +0.000 C 
ATOM      9  N   UNL     1      -7.427   4.222 130.229  0.00  0.00    +0.000 N 
ATOM     10  C   UNL     1      -6.475   3.721 129.245  0.00  0.00    +0.000 C 
ATOM     11  O   UNL     1      -6.557   4.044 128.066  0.00  0.00    +0.000 OA
ATOM     12  C   UNL     1      -5.389   2.875 129.882  0.00  0.00    +0.000 C 
ATOM     13  O   UNL     1      -6.968   2.378 130.543  0.00  0.00    +0.000 OA
ATOM     14  C   UNL     1      -8.396   3.274 130.112  0.00  0.00    +0.000 C 
ENDROOT
BRANCH  12  15
ATOM     15  N   UNL     1      -4.405   1.765 129.658  0.00  0.00    +0.000 N 
ATOM     16  C   UNL     1      -4.921   0.553 130.259  0.00  0.00    +0.000 C 
ATOM     17  O   UNL     1      -4.938   0.626 131.492  0.00  0.00    +0.000 OA
ATOM     18  H   UNL     1      -4.228   1.731 128.644  0.00  0.00    +0.000 HD
BRANCH  16  19
ATOM     19  C   UNL     1      -5.656  -0.872 129.581  0.00  0.00    +0.000 C 
ATOM     20  C   UNL     1      -6.821  -0.488 128.534  0.00  0.00    +0.000 C 
ATOM     21  N   UNL     1      -7.492  -1.847 127.625  0.00  0.00    +0.000 NA
ATOM     22  C   UNL     1      -8.625  -1.558 126.726  0.00  0.00    +0.000 C 
ATOM     23  C   UNL     1      -6.559  -2.618 126.561  0.00  0.00    +0.000 C 
ATOM     24  C   UNL     1      -5.234  -2.633 125.272  0.00  0.00    +0.000 C 
ATOM     25  C   UNL     1      -5.744  -1.970 124.176  0.00  0.00    +0.000 A 
ATOM     26  C   UNL     1      -5.953  -2.380 122.860  0.00  0.00    +0.000 A 
ATOM     27  N   UNL     1      -6.824  -1.463 122.393  0.00  0.00    +0.000 N 
ATOM     28  C   UNL     1      -7.161  -0.512 123.354  0.00  0.00    +0.000 A 
ATOM     29  C   UNL     1      -8.198   0.405 123.308  0.00  0.00    +0.000 A 
ATOM     30  C   UNL     1      -8.371   1.060 124.519  0.00  0.00    +0.000 A 
ATOM     31  C   UNL     1      -7.498   0.734 125.715  0.00  0.00    +0.000 A 
ATOM     32  C   UNL     1      -6.298  -0.299 125.804  0.00  0.00    +0.000 A 
ATOM     33  C   UNL     1      -6.318  -0.768 124.447  0.00  0.00    +0.000 A 
ATOM     34  C   UNL     1      -5.663  -1.608 127.065  0.00  0.00    +0.000 C 
ATOM     35  C   UNL     1      -5.023  -1.833 128.603  0.00  0.00    +0.000 C 
ATOM     36  H   UNL     1      -7.298  -1.562 121.502  0.00  0.00    +0.000 HD
ENDBRANCH  16  19
ENDBRANCH  12  15
BRANCH   8  37
ATOM     37  C   UNL     1      -6.203   5.252 132.336  0.00  0.00    +0.000 C 
ATOM     38  C   UNL     1      -5.970   5.845 133.666  0.00  0.00    +0.000 C 
ATOM     39  C   UNL     1      -6.599   6.521 131.766  0.00  0.00    +0.000 C 
ENDBRANCH   8  37
BRANCH  12  40
ATOM     40  C   UNL     1      -3.957   3.995 130.189  0.00  0.00    +0.000 C 
ATOM     41  C   UNL     1      -2.979   4.679 129.088  0.00  0.00    +0.000 C 
ATOM     42  C   UNL     1      -3.408   3.694 131.649  0.00  0.00    +0.000 C 
ENDBRANCH  12  40
BRANCH  14  43
ATOM     43  O   UNL     1      -8.847   2.900 128.814  0.00  0.00    +0.000 OA
ATOM     44  H   UNL     1      -8.987   1.933 128.813  0.00  0.00    +0.000 HD
ENDBRANCH  14  43
TORSDOF 5
ENDMDL
