MODEL 1
REMARK VINA RESULT:      -6.4      0.000      0.000
REMARK  Name = Dihydralazine
REMARK  4 active torsions:
REMARK  status: ('A' for Active; 'I' for Inactive)
REMARK    1  A    between atoms: N_1  and  N_2
REMARK    2  A    between atoms: N_2  and  C_3
REMARK    3  A    between atoms: C_10  and  N_11
REMARK    4  A    between atoms: N_11  and  N_12
REMARK                            x       y       z     vdW  Elec       q    Type
REMARK                         _______ _______ _______ _____ _____    ______ ____
ROOT
ATOM      1  C   UNL     1     -11.032   6.335 130.919  0.00  0.00    +0.000 A 
ATOM      2  C   UNL     1     -11.731   7.382 130.288  0.00  0.00    +0.000 A 
ATOM      3  C   UNL     1     -12.612   8.230 131.007  0.00  0.00    +0.000 A 
ATOM      4  C   UNL     1     -13.256   9.322 130.444  0.00  0.00    +0.000 A 
ATOM      5  C   UNL     1     -13.046   9.596 129.114  0.00  0.00    +0.000 A 
ATOM      6  C   UNL     1     -12.206   8.772 128.373  0.00  0.00    +0.000 A 
ATOM      7  C   UNL     1     -11.503   7.649 128.900  0.00  0.00    +0.000 A 
ATOM      8  C   UNL     1     -10.586   6.812 128.205  0.00  0.00    +0.000 A 
ATOM      9  N   UNL     1      -9.941   5.825 128.874  0.00  0.00    +0.000 NA
ATOM     10  N   UNL     1     -10.149   5.593 130.227  0.00  0.00    +0.000 NA
ENDROOT
BRANCH   1  11
ATOM     11  N   UNL     1     -11.156   6.057 132.317  0.00  0.00    +0.000 N 
ATOM     12  H   UNL     1     -12.014   6.512 132.638  0.00  0.00    +0.000 HD
BRANCH  11  13
ATOM     13  N   UNL     1     -10.016   6.226 133.153  0.00  0.00    +0.000 NA
ATOM     14  H   UNL     1     -10.043   5.585 133.948  0.00  0.00    +0.000 HD
ATOM     15  H   UNL     1      -9.956   7.175 133.531  0.00  0.00    +0.000 HD
ENDBRANCH  11  13
ENDBRANCH   1  11
BRANCH   8  16
ATOM     16  N   UNL     1     -10.218   6.888 126.845  0.00  0.00    +0.000 N 
ATOM     17  H   UNL     1     -10.620   7.714 126.398  0.00  0.00    +0.000 HD
BRANCH  16  18
ATOM     18  N   UNL     1      -9.409   6.065 126.075  0.00  0.00    +0.000 NA
ATOM     19  H   UNL     1      -9.281   6.393 125.130  0.00  0.00    +0.000 HD
ATOM     20  H   UNL     1      -9.773   5.114 126.009  0.00  0.00    +0.000 HD
ENDBRANCH  16  18
ENDBRANCH   8  16
TORSDOF 4
ENDMDL
MODEL 2
REMARK VINA RESULT:      -6.3      2.661      3.746
REMARK  Name = Dihydralazine
REMARK  4 active torsions:
REMARK  status: ('A' for Active; 'I' for Inactive)
REMARK    1  A    between atoms: N_1  and  N_2
REMARK    2  A    between atoms: N_2  and  C_3
REMARK    3  A    between atoms: C_10  and  N_11
REMARK    4  A    between atoms: N_11  and  N_12
REMARK                            x       y       z     vdW  Elec       q    Type
REMARK                         _______ _______ _______ _____ _____    ______ ____
ROOT
ATOM      1  C   UNL     1     -11.978   7.144 131.101  0.00  0.00    +0.000 A 
ATOM      2  C   UNL     1     -11.460   7.310 129.802  0.00  0.00    +0.000 A 
ATOM      3  C   UNL     1     -10.568   6.367 129.229  0.00  0.00    +0.000 A 
ATOM      4  C   UNL     1     -10.100   6.450 127.926  0.00  0.00    +0.000 A 
ATOM      5  C   UNL     1     -10.504   7.505 127.145  0.00  0.00    +0.000 A 
ATOM      6  C   UNL     1     -11.361   8.460 127.683  0.00  0.00    +0.000 A 
ATOM      7  C   UNL     1     -11.890   8.420 129.006  0.00  0.00    +0.000 A 
ATOM      8  C   UNL     1     -12.816   9.333 129.585  0.00  0.00    +0.000 A 
ATOM      9  N   UNL     1     -13.280   9.110 130.839  0.00  0.00    +0.000 NA
ATOM     10  N   UNL     1     -12.878   8.016 131.591  0.00  0.00    +0.000 NA
ENDROOT
BRANCH   1  11
ATOM     11  N   UNL     1     -11.649   6.021 131.926  0.00  0.00    +0.000 N 
ATOM     12  H   UNL     1     -12.524   5.681 132.332  0.00  0.00    +0.000 HD
BRANCH  11  13
ATOM     13  N   UNL     1     -10.550   6.131 132.825  0.00  0.00    +0.000 NA
ATOM     14  H   UNL     1     -10.682   5.531 133.642  0.00  0.00    +0.000 HD
ATOM     15  H   UNL     1     -10.430   7.087 133.167  0.00  0.00    +0.000 HD
ENDBRANCH  11  13
ENDBRANCH   1  11
BRANCH   8  16
ATOM     16  N   UNL     1     -13.364  10.489 128.990  0.00  0.00    +0.000 N 
ATOM     17  H   UNL     1     -13.830  10.266 128.108  0.00  0.00    +0.000 HD
BRANCH  16  18
ATOM     18  N   UNL     1     -13.386  11.808 129.419  0.00  0.00    +0.000 NA
ATOM     19  H   UNL     1     -14.282  12.101 129.778  0.00  0.00    +0.000 HD
ATOM     20  H   UNL     1     -13.139  12.462 128.677  0.00  0.00    +0.000 HD
ENDBRANCH  16  18
ENDBRANCH   8  16
TORSDOF 4
ENDMDL
MODEL 3
REMARK VINA RESULT:      -6.2      1.113      3.896
REMARK  Name = Dihydralazine
REMARK  4 active torsions:
REMARK  status: ('A' for Active; 'I' for Inactive)
REMARK    1  A    between atoms: N_1  and  N_2
REMARK    2  A    between atoms: N_2  and  C_3
REMARK    3  A    between atoms: C_10  and  N_11
REMARK    4  A    between atoms: N_11  and  N_12
REMARK                            x       y       z     vdW  Elec       q    Type
REMARK                         _______ _______ _______ _____ _____    ______ ____
ROOT
ATOM      1  C   UNL     1     -10.539   7.088 128.218  0.00  0.00    +0.000 A 
ATOM      2  C   UNL     1     -11.334   7.459 129.319  0.00  0.00    +0.000 A 
ATOM      3  C   UNL     1     -12.205   8.578 129.268  0.00  0.00    +0.000 A 
ATOM      4  C   UNL     1     -13.063   8.928 130.299  0.00  0.00    +0.000 A 
ATOM      5  C   UNL     1     -13.069   8.165 131.441  0.00  0.00    +0.000 A 
ATOM      6  C   UNL     1     -12.212   7.073 131.534  0.00  0.00    +0.000 A 
ATOM      7  C   UNL     1     -11.322   6.653 130.503  0.00  0.00    +0.000 A 
ATOM      8  C   UNL     1     -10.472   5.511 130.520  0.00  0.00    +0.000 A 
ATOM      9  N   UNL     1      -9.737   5.207 129.422  0.00  0.00    +0.000 NA
ATOM     10  N   UNL     1      -9.779   5.980 128.270  0.00  0.00    +0.000 NA
ENDROOT
BRANCH   1  11
ATOM     11  N   UNL     1     -10.555   7.804 126.979  0.00  0.00    +0.000 N 
ATOM     12  H   UNL     1     -10.745   8.784 127.202  0.00  0.00    +0.000 HD
BRANCH  11  13
ATOM     13  N   UNL     1     -11.291   7.265 125.885  0.00  0.00    +0.000 NA
ATOM     14  H   UNL     1     -10.673   6.785 125.227  0.00  0.00    +0.000 HD
ATOM     15  H   UNL     1     -11.786   7.992 125.362  0.00  0.00    +0.000 HD
ENDBRANCH  11  13
ENDBRANCH   1  11
BRANCH   8  16
ATOM     16  N   UNL     1     -10.298   4.589 131.573  0.00  0.00    +0.000 N 
ATOM     17  H   UNL     1     -10.374   3.626 131.239  0.00  0.00    +0.000 HD
BRANCH  16  18
ATOM     18  N   UNL     1     -10.027   4.788 132.920  0.00  0.00    +0.000 NA
ATOM     19  H   UNL     1      -9.240   5.396 133.088  0.00  0.00    +0.000 HD
ATOM     20  H   UNL     1      -9.832   3.914 133.410  0.00  0.00    +0.000 HD
ENDBRANCH  16  18
ENDBRANCH   8  16
TORSDOF 4
ENDMDL
MODEL 4
REMARK VINA RESULT:      -6.1      1.581      2.184
REMARK  Name = Dihydralazine
REMARK  4 active torsions:
REMARK  status: ('A' for Active; 'I' for Inactive)
REMARK    1  A    between atoms: N_1  and  N_2
REMARK    2  A    between atoms: N_2  and  C_3
REMARK    3  A    between atoms: C_10  and  N_11
REMARK    4  A    between atoms: N_11  and  N_12
REMARK                            x       y       z     vdW  Elec       q    Type
REMARK                         _______ _______ _______ _____ _____    ______ ____
ROOT
ATOM      1  C   UNL     1      -9.689   5.520 129.596  0.00  0.00    +0.000 A 
ATOM      2  C   UNL     1     -10.790   6.327 129.940  0.00  0.00    +0.000 A 
ATOM      3  C   UNL     1     -11.326   6.337 131.254  0.00  0.00    +0.000 A 
ATOM      4  C   UNL     1     -12.355   7.175 131.656  0.00  0.00    +0.000 A 
ATOM      5  C   UNL     1     -12.901   8.036 130.736  0.00  0.00    +0.000 A 
ATOM      6  C   UNL     1     -12.416   8.037 129.432  0.00  0.00    +0.000 A 
ATOM      7  C   UNL     1     -11.350   7.213 128.965  0.00  0.00    +0.000 A 
ATOM      8  C   UNL     1     -10.773   7.218 127.664  0.00  0.00    +0.000 A 
ATOM      9  N   UNL     1      -9.709   6.420 127.400  0.00  0.00    +0.000 NA
ATOM     10  N   UNL     1      -9.157   5.585 128.362  0.00  0.00    +0.000 NA
ENDROOT
BRANCH   1  11
ATOM     11  N   UNL     1      -9.035   4.664 130.538  0.00  0.00    +0.000 N 
ATOM     12  H   UNL     1      -8.033   4.862 130.478  0.00  0.00    +0.000 HD
BRANCH  11  13
ATOM     13  N   UNL     1      -9.392   3.286 130.575  0.00  0.00    +0.000 NA
ATOM     14  H   UNL     1      -9.782   3.031 131.486  0.00  0.00    +0.000 HD
ATOM     15  H   UNL     1      -8.587   2.677 130.409  0.00  0.00    +0.000 HD
ENDBRANCH  11  13
ENDBRANCH   1  11
BRANCH   8  16
ATOM     16  N   UNL     1     -11.165   7.999 126.556  0.00  0.00    +0.000 N 
ATOM     17  H   UNL     1     -11.927   8.634 126.801  0.00  0.00    +0.000 HD
BRANCH  16  18
ATOM     18  N   UNL     1     -10.672   8.048 125.260  0.00  0.00    +0.000 NA
ATOM     19  H   UNL     1     -11.124   7.402 124.631  0.00  0.00    +0.000 HD
ATOM     20  H   UNL     1      -9.672   7.850 125.216  0.00  0.00    +0.000 HD
ENDBRANCH  16  18
ENDBRANCH   8  16
TORSDOF 4
ENDMDL
MODEL 5
REMARK VINA RESULT:      -5.6     10.400     11.234
REMARK  Name = Dihydralazine
REMARK  4 active torsions:
REMARK  status: ('A' for Active; 'I' for Inactive)
REMARK    1  A    between atoms: N_1  and  N_2
REMARK    2  A    between atoms: N_2  and  C_3
REMARK    3  A    between atoms: C_10  and  N_11
REMARK    4  A    between atoms: N_11  and  N_12
REMARK                            x       y       z     vdW  Elec       q    Type
REMARK                         _______ _______ _______ _____ _____    ______ ____
ROOT
ATOM      1  C   UNL     1      -6.051  -1.305 126.344  0.00  0.00    +0.000 A 
ATOM      2  C   UNL     1      -6.974  -2.166 126.968  0.00  0.00    +0.000 A 
ATOM      3  C   UNL     1      -7.055  -2.276 128.380  0.00  0.00    +0.000 A 
ATOM      4  C   UNL     1      -8.003  -3.048 129.035  0.00  0.00    +0.000 A 
ATOM      5  C   UNL     1      -8.906  -3.760 128.285  0.00  0.00    +0.000 A 
ATOM      6  C   UNL     1      -8.841  -3.693 126.897  0.00  0.00    +0.000 A 
ATOM      7  C   UNL     1      -7.904  -2.904 126.168  0.00  0.00    +0.000 A 
ATOM      8  C   UNL     1      -7.833  -2.750 124.755  0.00  0.00    +0.000 A 
ATOM      9  N   UNL     1      -6.924  -1.899 124.219  0.00  0.00    +0.000 NA
ATOM     10  N   UNL     1      -6.046  -1.167 125.006  0.00  0.00    +0.000 NA
ENDROOT
BRANCH   1  11
ATOM     11  N   UNL     1      -5.141  -0.483 127.083  0.00  0.00    +0.000 N 
ATOM     12  H   UNL     1      -5.490  -0.439 128.043  0.00  0.00    +0.000 HD
BRANCH  11  13
ATOM     13  N   UNL     1      -4.722   0.755 126.518  0.00  0.00    +0.000 NA
ATOM     14  H   UNL     1      -5.377   1.505 126.751  0.00  0.00    +0.000 HD
ATOM     15  H   UNL     1      -4.663   0.709 125.498  0.00  0.00    +0.000 HD
ENDBRANCH  11  13
ENDBRANCH   1  11
BRANCH   8  16
ATOM     16  N   UNL     1      -8.639  -3.379 123.783  0.00  0.00    +0.000 N 
ATOM     17  H   UNL     1      -8.104  -4.061 123.242  0.00  0.00    +0.000 HD
BRANCH  16  18
ATOM     18  N   UNL     1      -9.988  -3.236 123.490  0.00  0.00    +0.000 NA
ATOM     19  H   UNL     1     -10.357  -2.325 123.720  0.00  0.00    +0.000 HD
ATOM     20  H   UNL     1     -10.567  -3.918 123.980  0.00  0.00    +0.000 HD
ENDBRANCH  16  18
ENDBRANCH   8  16
TORSDOF 4
ENDMDL
MODEL 6
REMARK VINA RESULT:      -5.6     10.319     11.490
REMARK  Name = Dihydralazine
REMARK  4 active torsions:
REMARK  status: ('A' for Active; 'I' for Inactive)
REMARK    1  A    between atoms: N_1  and  N_2
REMARK    2  A    between atoms: N_2  and  C_3
REMARK    3  A    between atoms: C_10  and  N_11
REMARK    4  A    between atoms: N_11  and  N_12
REMARK                            x       y       z     vdW  Elec       q    Type
REMARK                         _______ _______ _______ _____ _____    ______ ____
ROOT
ATOM      1  C   UNL     1      -7.910  -2.903 124.919  0.00  0.00    +0.000 A 
ATOM      2  C   UNL     1      -7.984  -2.924 126.325  0.00  0.00    +0.000 A 
ATOM      3  C   UNL     1      -8.929  -3.730 127.011  0.00  0.00    +0.000 A 
ATOM      4  C   UNL     1      -8.981  -3.843 128.392  0.00  0.00    +0.000 A 
ATOM      5  C   UNL     1      -8.082  -3.129 129.146  0.00  0.00    +0.000 A 
ATOM      6  C   UNL     1      -7.155  -2.312 128.507  0.00  0.00    +0.000 A 
ATOM      7  C   UNL     1      -7.041  -2.169 127.093  0.00  0.00    +0.000 A 
ATOM      8  C   UNL     1      -6.074  -1.398 126.388  0.00  0.00    +0.000 A 
ATOM      9  N   UNL     1      -6.055  -1.428 125.032  0.00  0.00    +0.000 NA
ATOM     10  N   UNL     1      -6.956  -2.186 124.298  0.00  0.00    +0.000 NA
ENDROOT
BRANCH   1  11
ATOM     11  N   UNL     1      -8.773  -3.688 124.089  0.00  0.00    +0.000 N 
ATOM     12  H   UNL     1      -8.175  -4.207 123.442  0.00  0.00    +0.000 HD
BRANCH  11  13
ATOM     13  N   UNL     1      -9.918  -3.069 123.513  0.00  0.00    +0.000 NA
ATOM     14  H   UNL     1      -9.893  -2.055 123.642  0.00  0.00    +0.000 HD
ATOM     15  H   UNL     1     -10.788  -3.407 123.933  0.00  0.00    +0.000 HD
ENDBRANCH  11  13
ENDBRANCH   1  11
BRANCH   8  16
ATOM     16  N   UNL     1      -5.063  -0.582 126.936  0.00  0.00    +0.000 N 
ATOM     17  H   UNL     1      -4.360  -1.140 127.424  0.00  0.00    +0.000 HD
BRANCH  16  18
ATOM     18  N   UNL     1      -4.881   0.793 126.889  0.00  0.00    +0.000 NA
ATOM     19  H   UNL     1      -4.183   1.131 127.534  0.00  0.00    +0.000 HD
ATOM     20  H   UNL     1      -5.739   1.306 127.090  0.00  0.00    +0.000 HD
ENDBRANCH  16  18
ENDBRANCH   8  16
TORSDOF 4
ENDMDL
MODEL 7
REMARK VINA RESULT:      -5.5     10.367     12.025
REMARK  Name = Dihydralazine
REMARK  4 active torsions:
REMARK  status: ('A' for Active; 'I' for Inactive)
REMARK    1  A    between atoms: N_1  and  N_2
REMARK    2  A    between atoms: N_2  and  C_3
REMARK    3  A    between atoms: C_10  and  N_11
REMARK    4  A    between atoms: N_11  and  N_12
REMARK                            x       y       z     vdW  Elec       q    Type
REMARK                         _______ _______ _______ _____ _____    ______ ____
ROOT
ATOM      1  C   UNL     1      -8.897  -1.017 123.683  0.00  0.00    +0.000 A 
ATOM      2  C   UNL     1      -7.691  -1.745 123.686  0.00  0.00    +0.000 A 
ATOM      3  C   UNL     1      -6.809  -1.732 122.575  0.00  0.00    +0.000 A 
ATOM      4  C   UNL     1      -5.576  -2.366 122.567  0.00  0.00    +0.000 A 
ATOM      5  C   UNL     1      -5.185  -3.059 123.687  0.00  0.00    +0.000 A 
ATOM      6  C   UNL     1      -6.034  -3.112 124.787  0.00  0.00    +0.000 A 
ATOM      7  C   UNL     1      -7.304  -2.466 124.861  0.00  0.00    +0.000 A 
ATOM      8  C   UNL     1      -8.182  -2.434 125.980  0.00  0.00    +0.000 A 
ATOM      9  N   UNL     1      -9.325  -1.708 125.913  0.00  0.00    +0.000 NA
ATOM     10  N   UNL     1      -9.677  -0.990 124.778  0.00  0.00    +0.000 NA
ENDROOT
BRANCH   1  11
ATOM     11  N   UNL     1      -9.313  -0.217 122.571  0.00  0.00    +0.000 N 
ATOM     12  H   UNL     1      -8.583   0.483 122.417  0.00  0.00    +0.000 HD
BRANCH  11  13
ATOM     13  N   UNL     1     -10.651   0.267 122.539  0.00  0.00    +0.000 NA
ATOM     14  H   UNL     1     -10.923   0.660 123.443  0.00  0.00    +0.000 HD
ATOM     15  H   UNL     1     -11.321  -0.473 122.316  0.00  0.00    +0.000 HD
ENDBRANCH  11  13
ENDBRANCH   1  11
BRANCH   8  16
ATOM     16  N   UNL     1      -8.006  -3.071 127.226  0.00  0.00    +0.000 N 
ATOM     17  H   UNL     1      -7.089  -2.860 127.624  0.00  0.00    +0.000 HD
BRANCH  16  18
ATOM     18  N   UNL     1      -8.861  -3.877 127.963  0.00  0.00    +0.000 NA
ATOM     19  H   UNL     1      -8.668  -3.872 128.954  0.00  0.00    +0.000 HD
ATOM     20  H   UNL     1      -8.832  -4.852 127.664  0.00  0.00    +0.000 HD
ENDBRANCH  16  18
ENDBRANCH   8  16
TORSDOF 4
ENDMDL
MODEL 8
REMARK VINA RESULT:      -5.4      4.351      6.487
REMARK  Name = Dihydralazine
REMARK  4 active torsions:
REMARK  status: ('A' for Active; 'I' for Inactive)
REMARK    1  A    between atoms: N_1  and  N_2
REMARK    2  A    between atoms: N_2  and  C_3
REMARK    3  A    between atoms: C_10  and  N_11
REMARK    4  A    between atoms: N_11  and  N_12
REMARK                            x       y       z     vdW  Elec       q    Type
REMARK                         _______ _______ _______ _____ _____    ______ ____
ROOT
ATOM      1  C   UNL     1      -6.676   6.622 131.489  0.00  0.00    +0.000 A 
ATOM      2  C   UNL     1      -6.816   5.920 132.701  0.00  0.00    +0.000 A 
ATOM      3  C   UNL     1      -5.691   5.532 133.473  0.00  0.00    +0.000 A 
ATOM      4  C   UNL     1      -5.787   4.913 134.711  0.00  0.00    +0.000 A 
ATOM      5  C   UNL     1      -7.034   4.644 135.219  0.00  0.00    +0.000 A 
ATOM      6  C   UNL     1      -8.159   4.991 134.478  0.00  0.00    +0.000 A 
ATOM      7  C   UNL     1      -8.125   5.644 133.211  0.00  0.00    +0.000 A 
ATOM      8  C   UNL     1      -9.242   6.076 132.442  0.00  0.00    +0.000 A 
ATOM      9  N   UNL     1      -9.037   6.754 131.286  0.00  0.00    +0.000 NA
ATOM     10  N   UNL     1      -7.763   7.040 130.816  0.00  0.00    +0.000 NA
ENDROOT
BRANCH   1  11
ATOM     11  N   UNL     1      -5.401   6.994 130.955  0.00  0.00    +0.000 N 
ATOM     12  H   UNL     1      -4.762   7.091 131.748  0.00  0.00    +0.000 HD
BRANCH  11  13
ATOM     13  N   UNL     1      -5.342   8.032 129.983  0.00  0.00    +0.000 NA
ATOM     14  H   UNL     1      -6.224   8.548 129.940  0.00  0.00    +0.000 HD
ATOM     15  H   UNL     1      -5.159   7.668 129.045  0.00  0.00    +0.000 HD
ENDBRANCH  11  13
ENDBRANCH   1  11
BRANCH   8  16
ATOM     16  N   UNL     1     -10.609   5.908 132.748  0.00  0.00    +0.000 N 
ATOM     17  H   UNL     1     -10.741   5.643 133.726  0.00  0.00    +0.000 HD
BRANCH  16  18
ATOM     18  N   UNL     1     -11.742   6.068 131.962  0.00  0.00    +0.000 NA
ATOM     19  H   UNL     1     -11.539   6.314 131.005  0.00  0.00    +0.000 HD
ATOM     20  H   UNL     1     -12.366   6.790 132.324  0.00  0.00    +0.000 HD
ENDBRANCH  16  18
ENDBRANCH   8  16
TORSDOF 4
ENDMDL
MODEL 9
REMARK VINA RESULT:      -5.2      9.865     11.203
REMARK  Name = Dihydralazine
REMARK  4 active torsions:
REMARK  status: ('A' for Active; 'I' for Inactive)
REMARK    1  A    between atoms: N_1  and  N_2
REMARK    2  A    between atoms: N_2  and  C_3
REMARK    3  A    between atoms: C_10  and  N_11
REMARK    4  A    between atoms: N_11  and  N_12
REMARK                            x       y       z     vdW  Elec       q    Type
REMARK                         _______ _______ _______ _____ _____    ______ ____
ROOT
ATOM      1  C   UNL     1      -7.822  -1.991 126.181  0.00  0.00    +0.000 A 
ATOM      2  C   UNL     1      -7.106  -2.046 124.969  0.00  0.00    +0.000 A 
ATOM      3  C   UNL     1      -5.965  -2.874 124.814  0.00  0.00    +0.000 A 
ATOM      4  C   UNL     1      -5.281  -3.021 123.616  0.00  0.00    +0.000 A 
ATOM      5  C   UNL     1      -5.716  -2.319 122.518  0.00  0.00    +0.000 A 
ATOM      6  C   UNL     1      -6.819  -1.479 122.641  0.00  0.00    +0.000 A 
ATOM      7  C   UNL     1      -7.573  -1.302 123.838  0.00  0.00    +0.000 A 
ATOM      8  C   UNL     1      -8.742  -0.508 124.002  0.00  0.00    +0.000 A 
ATOM      9  N   UNL     1      -9.387  -0.505 125.195  0.00  0.00    +0.000 NA
ATOM     10  N   UNL     1      -8.942  -1.252 126.276  0.00  0.00    +0.000 NA
ENDROOT
BRANCH   1  11
ATOM     11  N   UNL     1      -7.455  -2.762 127.329  0.00  0.00    +0.000 N 
ATOM     12  H   UNL     1      -8.292  -3.266 127.632  0.00  0.00    +0.000 HD
BRANCH  11  13
ATOM     13  N   UNL     1      -6.702  -2.136 128.363  0.00  0.00    +0.000 NA
ATOM     14  H   UNL     1      -6.847  -2.605 129.260  0.00  0.00    +0.000 HD
ATOM     15  H   UNL     1      -6.966  -1.156 128.488  0.00  0.00    +0.000 HD
ENDBRANCH  11  13
ENDBRANCH   1  11
BRANCH   8  16
ATOM     16  N   UNL     1      -9.370   0.303 123.034  0.00  0.00    +0.000 N 
ATOM     17  H   UNL     1      -8.769   1.083 122.757  0.00  0.00    +0.000 HD
BRANCH  16  18
ATOM     18  N   UNL     1     -10.606   0.187 122.414  0.00  0.00    +0.000 NA
ATOM     19  H   UNL     1     -11.239  -0.438 122.890  0.00  0.00    +0.000 HD
ATOM     20  H   UNL     1     -10.529  -0.148 121.454  0.00  0.00    +0.000 HD
ENDBRANCH  16  18
ENDBRANCH   8  16
TORSDOF 4
ENDMDL
