MODEL 1
REMARK VINA RESULT:     -12.0      0.000      0.000
REMARK  Name = Dihydroergotamine
REMARK  7 active torsions:
REMARK  status: ('A' for Active; 'I' for Inactive)
REMARK    1  A    between atoms: C_9  and  C_10
REMARK    2  A    between atoms: C_10  and  C_11
REMARK    3  A    between atoms: C_20  and  C_21
REMARK    4  A    between atoms: C_20  and  N_22
REMARK    5  A    between atoms: C_23  and  C_25
REMARK    6  A    between atoms: N_27  and  C_28
REMARK    7  A    between atoms: C_45  and  O_46
REMARK                            x       y       z     vdW  Elec       q    Type
REMARK                         _______ _______ _______ _____ _____    ______ ____
ROOT
ATOM      1  C   UNL     1      -7.769   2.816 122.687  0.00  0.00    +0.000 C 
ATOM      2  C   UNL     1      -8.451   3.179 121.348  0.00  0.00    +0.000 C 
ATOM      3  C   UNL     1      -7.414   3.867 120.474  0.00  0.00    +0.000 C 
ATOM      4  C   UNL     1      -6.103   3.771 121.208  0.00  0.00    +0.000 C 
ATOM      5  N   UNL     1      -6.437   3.350 122.547  0.00  0.00    +0.000 N 
ATOM      6  C   UNL     1      -5.987   4.027 123.627  0.00  0.00    +0.000 C 
ATOM      7  O   UNL     1      -5.403   5.091 123.466  0.00  0.00    +0.000 OA
ATOM      8  C   UNL     1      -6.421   3.479 124.988  0.00  0.00    +0.000 C 
ATOM      9  N   UNL     1      -7.524   2.409 124.734  0.00  0.00    +0.000 N 
ATOM     10  C   UNL     1      -8.088   1.651 125.778  0.00  0.00    +0.000 C 
ATOM     11  O   UNL     1      -8.682   0.604 125.558  0.00  0.00    +0.000 OA
ATOM     12  C   UNL     1      -7.664   2.235 127.105  0.00  0.00    +0.000 C 
ATOM     13  C   UNL     1      -6.802   0.775 127.457  0.00  0.00    +0.000 C 
ATOM     14  O   UNL     1      -8.573   3.372 125.962  0.00  0.00    +0.000 OA
ATOM     15  C   UNL     1      -8.604   3.136 124.250  0.00  0.00    +0.000 C 
ENDROOT
BRANCH  12  16
ATOM     16  N   UNL     1      -7.661   2.081 128.843  0.00  0.00    +0.000 N 
ATOM     17  C   UNL     1      -8.730   2.497 129.658  0.00  0.00    +0.000 C 
ATOM     18  O   UNL     1      -9.873   2.343 129.248  0.00  0.00    +0.000 OA
ATOM     19  H   UNL     1      -7.171   2.876 129.336  0.00  0.00    +0.000 HD
BRANCH  17  20
ATOM     20  C   UNL     1      -8.295   3.470 131.087  0.00  0.00    +0.000 C 
ATOM     21  C   UNL     1      -7.161   2.946 131.876  0.00  0.00    +0.000 C 
ATOM     22  N   UNL     1      -7.117   3.691 133.144  0.00  0.00    +0.000 NA
ATOM     23  C   UNL     1      -6.009   3.184 133.912  0.00  0.00    +0.000 C 
ATOM     24  C   UNL     1      -6.935   5.267 133.063  0.00  0.00    +0.000 C 
ATOM     25  C   UNL     1      -5.739   5.968 133.071  0.00  0.00    +0.000 C 
ATOM     26  C   UNL     1      -4.427   5.978 133.589  0.00  0.00    +0.000 A 
ATOM     27  C   UNL     1      -3.803   5.095 132.709  0.00  0.00    +0.000 A 
ATOM     28  N   UNL     1      -2.821   4.994 133.595  0.00  0.00    +0.000 N 
ATOM     29  C   UNL     1      -2.071   6.034 133.289  0.00  0.00    +0.000 A 
ATOM     30  C   UNL     1      -0.739   5.735 132.926  0.00  0.00    +0.000 A 
ATOM     31  C   UNL     1      -0.522   6.719 132.119  0.00  0.00    +0.000 A 
ATOM     32  C   UNL     1      -2.120   7.361 131.582  0.00  0.00    +0.000 A 
ATOM     33  C   UNL     1      -4.138   7.295 131.720  0.00  0.00    +0.000 A 
ATOM     34  C   UNL     1      -3.424   6.899 133.052  0.00  0.00    +0.000 A 
ATOM     35  C   UNL     1      -6.028   6.475 131.635  0.00  0.00    +0.000 C 
ATOM     36  C   UNL     1      -7.652   5.261 131.011  0.00  0.00    +0.000 C 
ATOM     37  H   UNL     1      -2.884   4.991 134.579  0.00  0.00    +0.000 HD
ENDBRANCH  17  20
ENDBRANCH  12  16
BRANCH  15  38
ATOM     38  O   UNL     1      -9.851   2.488 123.886  0.00  0.00    +0.000 OA
ATOM     39  H   UNL     1     -10.649   3.008 124.148  0.00  0.00    +0.000 HD
ENDBRANCH  15  38
BRANCH   8  40
ATOM     40  C   UNL     1      -5.408   2.778 125.824  0.00  0.00    +0.000 C 
BRANCH  40  41
ATOM     41  C   UNL     1      -4.384   3.569 126.483  0.00  0.00    +0.000 A 
ATOM     42  C   UNL     1      -3.055   3.214 126.496  0.00  0.00    +0.000 A 
ATOM     43  C   UNL     1      -2.206   3.817 127.379  0.00  0.00    +0.000 A 
ATOM     44  C   UNL     1      -2.597   4.994 127.975  0.00  0.00    +0.000 A 
ATOM     45  C   UNL     1      -3.904   5.439 127.850  0.00  0.00    +0.000 A 
ATOM     46  C   UNL     1      -4.807   4.728 127.099  0.00  0.00    +0.000 A 
ENDBRANCH  40  41
ENDBRANCH   8  40
TORSDOF 5
ENDMDL
MODEL 2
REMARK VINA RESULT:     -11.3      3.573      5.231
REMARK  Name = Dihydroergotamine
REMARK  7 active torsions:
REMARK  status: ('A' for Active; 'I' for Inactive)
REMARK    1  A    between atoms: C_9  and  C_10
REMARK    2  A    between atoms: C_10  and  C_11
REMARK    3  A    between atoms: C_20  and  C_21
REMARK    4  A    between atoms: C_20  and  N_22
REMARK    5  A    between atoms: C_23  and  C_25
REMARK    6  A    between atoms: N_27  and  C_28
REMARK    7  A    between atoms: C_45  and  O_46
REMARK                            x       y       z     vdW  Elec       q    Type
REMARK                         _______ _______ _______ _____ _____    ______ ____
ROOT
ATOM      1  C   UNL     1      -7.903   2.800 122.640  0.00  0.00    +0.000 C 
ATOM      2  C   UNL     1      -8.694   3.216 121.378  0.00  0.00    +0.000 C 
ATOM      3  C   UNL     1      -7.724   3.911 120.435  0.00  0.00    +0.000 C 
ATOM      4  C   UNL     1      -6.356   3.770 121.047  0.00  0.00    +0.000 C 
ATOM      5  N   UNL     1      -6.578   3.315 122.397  0.00  0.00    +0.000 N 
ATOM      6  C   UNL     1      -6.021   3.951 123.452  0.00  0.00    +0.000 C 
ATOM      7  O   UNL     1      -5.432   5.009 123.270  0.00  0.00    +0.000 OA
ATOM      8  C   UNL     1      -6.344   3.371 124.830  0.00  0.00    +0.000 C 
ATOM      9  N   UNL     1      -7.487   2.328 124.645  0.00  0.00    +0.000 N 
ATOM     10  C   UNL     1      -7.971   1.549 125.713  0.00  0.00    +0.000 C 
ATOM     11  O   UNL     1      -8.603   0.520 125.517  0.00  0.00    +0.000 OA
ATOM     12  C   UNL     1      -7.420   2.085 127.013  0.00  0.00    +0.000 C 
ATOM     13  C   UNL     1      -6.560   0.600 127.246  0.00  0.00    +0.000 C 
ATOM     14  O   UNL     1      -8.403   3.272 125.989  0.00  0.00    +0.000 OA
ATOM     15  C   UNL     1      -8.590   3.088 124.280  0.00  0.00    +0.000 C 
ENDROOT
BRANCH  12  16
ATOM     16  N   UNL     1      -7.266   1.879 128.739  0.00  0.00    +0.000 N 
ATOM     17  C   UNL     1      -6.723   2.860 129.590  0.00  0.00    +0.000 C 
ATOM     18  O   UNL     1      -6.958   4.037 129.351  0.00  0.00    +0.000 OA
ATOM     19  H   UNL     1      -6.392   1.360 129.026  0.00  0.00    +0.000 HD
BRANCH  17  20
ATOM     20  C   UNL     1      -5.510   2.294 130.767  0.00  0.00    +0.000 C 
ATOM     21  C   UNL     1      -6.064   1.813 132.049  0.00  0.00    +0.000 C 
ATOM     22  N   UNL     1      -4.943   1.653 132.989  0.00  0.00    +0.000 NA
ATOM     23  C   UNL     1      -5.481   1.179 134.238  0.00  0.00    +0.000 C 
ATOM     24  C   UNL     1      -3.781   0.650 132.581  0.00  0.00    +0.000 C 
ATOM     25  C   UNL     1      -3.704  -0.701 132.883  0.00  0.00    +0.000 C 
ATOM     26  C   UNL     1      -4.015  -1.670 133.859  0.00  0.00    +0.000 A 
ATOM     27  C   UNL     1      -5.357  -1.902 133.564  0.00  0.00    +0.000 A 
ATOM     28  N   UNL     1      -5.466  -2.463 134.761  0.00  0.00    +0.000 N 
ATOM     29  C   UNL     1      -5.065  -3.696 134.521  0.00  0.00    +0.000 A 
ATOM     30  C   UNL     1      -6.008  -4.706 134.810  0.00  0.00    +0.000 A 
ATOM     31  C   UNL     1      -5.646  -5.580 133.932  0.00  0.00    +0.000 A 
ATOM     32  C   UNL     1      -4.700  -4.727 132.655  0.00  0.00    +0.000 A 
ATOM     33  C   UNL     1      -3.866  -3.008 131.989  0.00  0.00    +0.000 A 
ATOM     34  C   UNL     1      -3.912  -3.097 133.548  0.00  0.00    +0.000 A 
ATOM     35  C   UNL     1      -3.786  -1.042 131.373  0.00  0.00    +0.000 C 
ATOM     36  C   UNL     1      -4.363   0.800 130.492  0.00  0.00    +0.000 C 
ATOM     37  H   UNL     1      -5.024  -2.198 135.602  0.00  0.00    +0.000 HD
ENDBRANCH  17  20
ENDBRANCH  12  16
BRANCH  15  38
ATOM     38  O   UNL     1      -9.877   2.473 124.010  0.00  0.00    +0.000 OA
ATOM     39  H   UNL     1     -10.625   3.119 124.021  0.00  0.00    +0.000 HD
ENDBRANCH  15  38
BRANCH   8  40
ATOM     40  C   UNL     1      -5.275   2.627 125.553  0.00  0.00    +0.000 C 
BRANCH  40  41
ATOM     41  C   UNL     1      -4.271   3.384 126.277  0.00  0.00    +0.000 A 
ATOM     42  C   UNL     1      -2.983   2.937 126.461  0.00  0.00    +0.000 A 
ATOM     43  C   UNL     1      -2.191   3.534 127.399  0.00  0.00    +0.000 A 
ATOM     44  C   UNL     1      -2.551   4.772 127.878  0.00  0.00    +0.000 A 
ATOM     45  C   UNL     1      -3.797   5.301 127.580  0.00  0.00    +0.000 A 
ATOM     46  C   UNL     1      -4.666   4.608 126.774  0.00  0.00    +0.000 A 
ENDBRANCH  40  41
ENDBRANCH   8  40
TORSDOF 5
ENDMDL
MODEL 3
REMARK VINA RESULT:     -10.8      4.123      7.337
REMARK  Name = Dihydroergotamine
REMARK  7 active torsions:
REMARK  status: ('A' for Active; 'I' for Inactive)
REMARK    1  A    between atoms: C_9  and  C_10
REMARK    2  A    between atoms: C_10  and  C_11
REMARK    3  A    between atoms: C_20  and  C_21
REMARK    4  A    between atoms: C_20  and  N_22
REMARK    5  A    between atoms: C_23  and  C_25
REMARK    6  A    between atoms: N_27  and  C_28
REMARK    7  A    between atoms: C_45  and  O_46
REMARK                            x       y       z     vdW  Elec       q    Type
REMARK                         _______ _______ _______ _____ _____    ______ ____
ROOT
ATOM      1  C   UNL     1      -4.587   4.455 127.153  0.00  0.00    +0.000 C 
ATOM      2  C   UNL     1      -4.426   3.416 126.019  0.00  0.00    +0.000 C 
ATOM      3  C   UNL     1      -5.754   2.693 125.863  0.00  0.00    +0.000 C 
ATOM      4  C   UNL     1      -6.732   3.392 126.769  0.00  0.00    +0.000 C 
ATOM      5  N   UNL     1      -5.935   4.242 127.621  0.00  0.00    +0.000 N 
ATOM      6  C   UNL     1      -6.063   4.204 128.966  0.00  0.00    +0.000 C 
ATOM      7  O   UNL     1      -6.765   3.340 129.477  0.00  0.00    +0.000 OA
ATOM      8  C   UNL     1      -5.152   5.149 129.751  0.00  0.00    +0.000 C 
ATOM      9  N   UNL     1      -4.099   5.723 128.756  0.00  0.00    +0.000 N 
ATOM     10  C   UNL     1      -3.152   6.690 129.142  0.00  0.00    +0.000 C 
ATOM     11  O   UNL     1      -2.569   7.377 128.314  0.00  0.00    +0.000 OA
ATOM     12  C   UNL     1      -3.166   6.831 130.646  0.00  0.00    +0.000 C 
ATOM     13  C   UNL     1      -3.719   8.463 130.475  0.00  0.00    +0.000 C 
ATOM     14  O   UNL     1      -2.799   5.142 129.984  0.00  0.00    +0.000 OA
ATOM     15  C   UNL     1      -3.316   4.628 128.416  0.00  0.00    +0.000 C 
ENDROOT
BRANCH  12  16
ATOM     16  N   UNL     1      -2.578   7.692 132.045  0.00  0.00    +0.000 N 
ATOM     17  C   UNL     1      -1.515   7.232 132.846  0.00  0.00    +0.000 C 
ATOM     18  O   UNL     1      -0.574   6.668 132.302  0.00  0.00    +0.000 OA
ATOM     19  H   UNL     1      -3.128   7.494 132.924  0.00  0.00    +0.000 HD
BRANCH  17  20
ATOM     20  C   UNL     1      -1.787   7.267 134.607  0.00  0.00    +0.000 C 
ATOM     21  C   UNL     1      -2.385   8.517 135.120  0.00  0.00    +0.000 C 
ATOM     22  N   UNL     1      -2.283   8.492 136.587  0.00  0.00    +0.000 NA
ATOM     23  C   UNL     1      -2.870   9.707 137.089  0.00  0.00    +0.000 C 
ATOM     24  C   UNL     1      -2.990   7.292 137.352  0.00  0.00    +0.000 C 
ATOM     25  C   UNL     1      -4.286   7.267 137.841  0.00  0.00    +0.000 C 
ATOM     26  C   UNL     1      -5.303   8.056 138.418  0.00  0.00    +0.000 A 
ATOM     27  C   UNL     1      -5.838   8.649 137.276  0.00  0.00    +0.000 A 
ATOM     28  N   UNL     1      -6.411   9.540 138.076  0.00  0.00    +0.000 N 
ATOM     29  C   UNL     1      -7.517   8.916 138.429  0.00  0.00    +0.000 A 
ATOM     30  C   UNL     1      -8.720   9.580 138.099  0.00  0.00    +0.000 A 
ATOM     31  C   UNL     1      -9.485   8.552 137.944  0.00  0.00    +0.000 A 
ATOM     32  C   UNL     1      -8.433   7.113 137.659  0.00  0.00    +0.000 A 
ATOM     33  C   UNL     1      -6.567   6.341 137.540  0.00  0.00    +0.000 A 
ATOM     34  C   UNL     1      -6.666   7.538 138.540  0.00  0.00    +0.000 A 
ATOM     35  C   UNL     1      -4.634   6.123 136.854  0.00  0.00    +0.000 C 
ATOM     36  C   UNL     1      -2.975   6.102 135.533  0.00  0.00    +0.000 C 
ATOM     37  H   UNL     1      -6.053   9.937 138.904  0.00  0.00    +0.000 HD
ENDBRANCH  17  20
ENDBRANCH  12  16
BRANCH  15  38
ATOM     38  O   UNL     1      -2.204   4.751 127.491  0.00  0.00    +0.000 OA
ATOM     39  H   UNL     1      -2.411   5.319 126.709  0.00  0.00    +0.000 HD
ENDBRANCH  15  38
BRANCH   8  40
ATOM     40  C   UNL     1      -5.760   6.353 130.385  0.00  0.00    +0.000 C 
BRANCH  40  41
ATOM     41  C   UNL     1      -6.515   6.184 131.612  0.00  0.00    +0.000 A 
ATOM     42  C   UNL     1      -5.924   5.925 132.827  0.00  0.00    +0.000 A 
ATOM     43  C   UNL     1      -6.687   5.473 133.864  0.00  0.00    +0.000 A 
ATOM     44  C   UNL     1      -8.053   5.627 133.797  0.00  0.00    +0.000 A 
ATOM     45  C   UNL     1      -8.653   6.028 132.614  0.00  0.00    +0.000 A 
ATOM     46  C   UNL     1      -7.885   6.312 131.512  0.00  0.00    +0.000 A 
ENDBRANCH  40  41
ENDBRANCH   8  40
TORSDOF 5
ENDMDL
MODEL 4
REMARK VINA RESULT:     -10.8      3.630      8.748
REMARK  Name = Dihydroergotamine
REMARK  7 active torsions:
REMARK  status: ('A' for Active; 'I' for Inactive)
REMARK    1  A    between atoms: C_9  and  C_10
REMARK    2  A    between atoms: C_10  and  C_11
REMARK    3  A    between atoms: C_20  and  C_21
REMARK    4  A    between atoms: C_20  and  N_22
REMARK    5  A    between atoms: C_23  and  C_25
REMARK    6  A    between atoms: N_27  and  C_28
REMARK    7  A    between atoms: C_45  and  O_46
REMARK                            x       y       z     vdW  Elec       q    Type
REMARK                         _______ _______ _______ _____ _____    ______ ____
ROOT
ATOM      1  C   UNL     1      -2.727   7.522 131.700  0.00  0.00    +0.000 C 
ATOM      2  C   UNL     1      -2.600   8.831 132.515  0.00  0.00    +0.000 C 
ATOM      3  C   UNL     1      -2.523   8.452 133.985  0.00  0.00    +0.000 C 
ATOM      4  C   UNL     1      -2.442   6.950 134.038  0.00  0.00    +0.000 C 
ATOM      5  N   UNL     1      -2.778   6.495 132.711  0.00  0.00    +0.000 N 
ATOM      6  C   UNL     1      -3.734   5.560 132.512  0.00  0.00    +0.000 C 
ATOM      7  O   UNL     1      -4.419   5.193 133.459  0.00  0.00    +0.000 OA
ATOM      8  C   UNL     1      -3.998   5.173 131.056  0.00  0.00    +0.000 C 
ATOM      9  N   UNL     1      -3.251   6.200 130.154  0.00  0.00    +0.000 N 
ATOM     10  C   UNL     1      -3.225   6.085 128.751  0.00  0.00    +0.000 C 
ATOM     11  O   UNL     1      -2.383   6.666 128.079  0.00  0.00    +0.000 OA
ATOM     12  C   UNL     1      -4.219   5.035 128.316  0.00  0.00    +0.000 C 
ATOM     13  C   UNL     1      -2.915   4.068 127.715  0.00  0.00    +0.000 C 
ATOM     14  O   UNL     1      -4.900   6.456 129.287  0.00  0.00    +0.000 OA
ATOM     15  C   UNL     1      -3.925   7.396 130.362  0.00  0.00    +0.000 C 
ENDROOT
BRANCH  12  16
ATOM     16  N   UNL     1      -4.879   4.092 127.006  0.00  0.00    +0.000 N 
ATOM     17  C   UNL     1      -6.261   3.947 126.775  0.00  0.00    +0.000 C 
ATOM     18  O   UNL     1      -6.992   4.907 126.980  0.00  0.00    +0.000 OA
ATOM     19  H   UNL     1      -4.961   3.062 127.226  0.00  0.00    +0.000 HD
BRANCH  17  20
ATOM     20  C   UNL     1      -6.838   2.287 126.480  0.00  0.00    +0.000 C 
ATOM     21  C   UNL     1      -5.786   1.250 126.491  0.00  0.00    +0.000 C 
ATOM     22  N   UNL     1      -6.376   0.010 125.964  0.00  0.00    +0.000 NA
ATOM     23  C   UNL     1      -5.352  -1.004 125.978  0.00  0.00    +0.000 C 
ATOM     24  C   UNL     1      -7.628  -0.593 126.734  0.00  0.00    +0.000 C 
ATOM     25  C   UNL     1      -7.602  -1.517 127.768  0.00  0.00    +0.000 C 
ATOM     26  C   UNL     1      -6.918  -2.640 128.276  0.00  0.00    +0.000 A 
ATOM     27  C   UNL     1      -5.855  -2.014 128.926  0.00  0.00    +0.000 A 
ATOM     28  N   UNL     1      -5.241  -3.191 128.935  0.00  0.00    +0.000 N 
ATOM     29  C   UNL     1      -5.744  -3.751 130.018  0.00  0.00    +0.000 A 
ATOM     30  C   UNL     1      -4.801  -4.115 131.005  0.00  0.00    +0.000 A 
ATOM     31  C   UNL     1      -5.542  -3.983 132.053  0.00  0.00    +0.000 A 
ATOM     32  C   UNL     1      -6.932  -2.917 131.621  0.00  0.00    +0.000 A 
ATOM     33  C   UNL     1      -7.924  -1.871 130.201  0.00  0.00    +0.000 A 
ATOM     34  C   UNL     1      -7.191  -3.127 129.630  0.00  0.00    +0.000 A 
ATOM     35  C   UNL     1      -8.211  -0.460 128.725  0.00  0.00    +0.000 C 
ATOM     36  C   UNL     1      -8.033   1.346 127.627  0.00  0.00    +0.000 C 
ATOM     37  H   UNL     1      -5.254  -3.892 128.242  0.00  0.00    +0.000 HD
ENDBRANCH  17  20
ENDBRANCH  12  16
BRANCH  15  38
ATOM     38  O   UNL     1      -3.525   8.618 129.690  0.00  0.00    +0.000 OA
ATOM     39  H   UNL     1      -3.451   8.515 128.710  0.00  0.00    +0.000 HD
ENDBRANCH  15  38
BRANCH   8  40
ATOM     40  C   UNL     1      -3.523   3.844 130.580  0.00  0.00    +0.000 C 
BRANCH  40  41
ATOM     41  C   UNL     1      -4.159   2.650 131.106  0.00  0.00    +0.000 A 
ATOM     42  C   UNL     1      -3.605   1.885 132.106  0.00  0.00    +0.000 A 
ATOM     43  C   UNL     1      -4.085   0.628 132.335  0.00  0.00    +0.000 A 
ATOM     44  C   UNL     1      -5.318   0.287 131.828  0.00  0.00    +0.000 A 
ATOM     45  C   UNL     1      -5.956   1.122 130.924  0.00  0.00    +0.000 A 
ATOM     46  C   UNL     1      -5.379   2.313 130.559  0.00  0.00    +0.000 A 
ENDBRANCH  40  41
ENDBRANCH   8  40
TORSDOF 5
ENDMDL
MODEL 5
REMARK VINA RESULT:     -10.7      1.671      2.646
REMARK  Name = Dihydroergotamine
REMARK  7 active torsions:
REMARK  status: ('A' for Active; 'I' for Inactive)
REMARK    1  A    between atoms: C_9  and  C_10
REMARK    2  A    between atoms: C_10  and  C_11
REMARK    3  A    between atoms: C_20  and  C_21
REMARK    4  A    between atoms: C_20  and  N_22
REMARK    5  A    between atoms: C_23  and  C_25
REMARK    6  A    between atoms: N_27  and  C_28
REMARK    7  A    between atoms: C_45  and  O_46
REMARK                            x       y       z     vdW  Elec       q    Type
REMARK                         _______ _______ _______ _____ _____    ______ ____
ROOT
ATOM      1  C   UNL     1      -7.943   2.692 122.766  0.00  0.00    +0.000 C 
ATOM      2  C   UNL     1      -8.682   3.144 121.485  0.00  0.00    +0.000 C 
ATOM      3  C   UNL     1      -7.684   3.891 120.616  0.00  0.00    +0.000 C 
ATOM      4  C   UNL     1      -6.342   3.748 121.283  0.00  0.00    +0.000 C 
ATOM      5  N   UNL     1      -6.617   3.236 122.604  0.00  0.00    +0.000 N 
ATOM      6  C   UNL     1      -6.119   3.839 123.707  0.00  0.00    +0.000 C 
ATOM      7  O   UNL     1      -5.541   4.912 123.593  0.00  0.00    +0.000 OA
ATOM      8  C   UNL     1      -6.494   3.199 125.045  0.00  0.00    +0.000 C 
ATOM      9  N   UNL     1      -7.609   2.147 124.767  0.00  0.00    +0.000 N 
ATOM     10  C   UNL     1      -8.128   1.319 125.781  0.00  0.00    +0.000 C 
ATOM     11  O   UNL     1      -8.732   0.289 125.516  0.00  0.00    +0.000 OA
ATOM     12  C   UNL     1      -7.645   1.812 127.125  0.00  0.00    +0.000 C 
ATOM     13  C   UNL     1      -6.771   0.332 127.339  0.00  0.00    +0.000 C 
ATOM     14  O   UNL     1      -8.601   3.023 126.103  0.00  0.00    +0.000 OA
ATOM     15  C   UNL     1      -8.708   2.903 124.382  0.00  0.00    +0.000 C 
ENDROOT
BRANCH  12  16
ATOM     16  N   UNL     1      -7.566   1.540 128.846  0.00  0.00    +0.000 N 
ATOM     17  C   UNL     1      -7.462   2.579 129.790  0.00  0.00    +0.000 C 
ATOM     18  O   UNL     1      -8.068   3.622 129.581  0.00  0.00    +0.000 OA
ATOM     19  H   UNL     1      -6.592   1.327 129.196  0.00  0.00    +0.000 HD
BRANCH  17  20
ATOM     20  C   UNL     1      -6.225   2.370 131.056  0.00  0.00    +0.000 C 
ATOM     21  C   UNL     1      -5.197   3.430 131.103  0.00  0.00    +0.000 C 
ATOM     22  N   UNL     1      -4.121   2.969 131.995  0.00  0.00    +0.000 NA
ATOM     23  C   UNL     1      -3.120   4.003 132.045  0.00  0.00    +0.000 C 
ATOM     24  C   UNL     1      -4.507   2.632 133.498  0.00  0.00    +0.000 C 
ATOM     25  C   UNL     1      -4.485   3.501 134.577  0.00  0.00    +0.000 C 
ATOM     26  C   UNL     1      -3.808   4.603 135.140  0.00  0.00    +0.000 A 
ATOM     27  C   UNL     1      -4.388   5.648 134.423  0.00  0.00    +0.000 A 
ATOM     28  N   UNL     1      -3.375   6.408 134.819  0.00  0.00    +0.000 N 
ATOM     29  C   UNL     1      -3.789   6.817 136.002  0.00  0.00    +0.000 A 
ATOM     30  C   UNL     1      -3.897   8.217 136.155  0.00  0.00    +0.000 A 
ATOM     31  C   UNL     1      -4.856   8.254 137.018  0.00  0.00    +0.000 A 
ATOM     32  C   UNL     1      -5.729   6.677 136.949  0.00  0.00    +0.000 A 
ATOM     33  C   UNL     1      -5.855   4.811 136.176  0.00  0.00    +0.000 A 
ATOM     34  C   UNL     1      -4.385   5.331 136.271  0.00  0.00    +0.000 A 
ATOM     35  C   UNL     1      -6.021   3.356 134.724  0.00  0.00    +0.000 C 
ATOM     36  C   UNL     1      -6.589   2.386 132.925  0.00  0.00    +0.000 C 
ATOM     37  H   UNL     1      -2.431   6.152 134.940  0.00  0.00    +0.000 HD
ENDBRANCH  17  20
ENDBRANCH  12  16
BRANCH  15  38
ATOM     38  O   UNL     1      -9.970   2.280 124.030  0.00  0.00    +0.000 OA
ATOM     39  H   UNL     1     -10.181   2.348 123.067  0.00  0.00    +0.000 HD
ENDBRANCH  15  38
BRANCH   8  40
ATOM     40  C   UNL     1      -5.446   2.444 125.786  0.00  0.00    +0.000 C 
BRANCH  40  41
ATOM     41  C   UNL     1      -4.479   3.188 126.572  0.00  0.00    +0.000 A 
ATOM     42  C   UNL     1      -4.821   4.261 127.361  0.00  0.00    +0.000 A 
ATOM     43  C   UNL     1      -3.845   5.099 127.819  0.00  0.00    +0.000 A 
ATOM     44  C   UNL     1      -2.539   4.669 127.793  0.00  0.00    +0.000 A 
ATOM     45  C   UNL     1      -2.199   3.507 127.118  0.00  0.00    +0.000 A 
ATOM     46  C   UNL     1      -3.171   2.756 126.504  0.00  0.00    +0.000 A 
ENDBRANCH  40  41
ENDBRANCH   8  40
TORSDOF 5
ENDMDL
MODEL 6
REMARK VINA RESULT:     -10.7      3.331     10.073
REMARK  Name = Dihydroergotamine
REMARK  7 active torsions:
REMARK  status: ('A' for Active; 'I' for Inactive)
REMARK    1  A    between atoms: C_9  and  C_10
REMARK    2  A    between atoms: C_10  and  C_11
REMARK    3  A    between atoms: C_20  and  C_21
REMARK    4  A    between atoms: C_20  and  N_22
REMARK    5  A    between atoms: C_23  and  C_25
REMARK    6  A    between atoms: N_27  and  C_28
REMARK    7  A    between atoms: C_45  and  O_46
REMARK                            x       y       z     vdW  Elec       q    Type
REMARK                         _______ _______ _______ _____ _____    ______ ____
ROOT
ATOM      1  C   UNL     1      -4.209   6.144 134.247  0.00  0.00    +0.000 C 
ATOM      2  C   UNL     1      -3.838   7.204 135.310  0.00  0.00    +0.000 C 
ATOM      3  C   UNL     1      -4.874   7.124 136.421  0.00  0.00    +0.000 C 
ATOM      4  C   UNL     1      -5.747   5.938 136.109  0.00  0.00    +0.000 C 
ATOM      5  N   UNL     1      -5.432   5.569 134.750  0.00  0.00    +0.000 N 
ATOM      6  C   UNL     1      -6.404   5.418 133.822  0.00  0.00    +0.000 C 
ATOM      7  O   UNL     1      -7.554   5.730 134.102  0.00  0.00    +0.000 OA
ATOM      8  C   UNL     1      -5.933   5.034 132.418  0.00  0.00    +0.000 C 
ATOM      9  N   UNL     1      -4.384   5.194 132.381  0.00  0.00    +0.000 N 
ATOM     10  C   UNL     1      -3.621   4.846 131.250  0.00  0.00    +0.000 C 
ATOM     11  O   UNL     1      -2.416   4.647 131.330  0.00  0.00    +0.000 OA
ATOM     12  C   UNL     1      -4.545   4.590 130.083  0.00  0.00    +0.000 C 
ATOM     13  C   UNL     1      -4.037   2.935 130.061  0.00  0.00    +0.000 C 
ATOM     14  O   UNL     1      -4.651   6.267 130.860  0.00  0.00    +0.000 OA
ATOM     15  C   UNL     1      -4.176   6.562 132.496  0.00  0.00    +0.000 C 
ENDROOT
BRANCH  12  16
ATOM     16  N   UNL     1      -4.709   4.055 128.431  0.00  0.00    +0.000 N 
ATOM     17  C   UNL     1      -4.959   4.928 127.356  0.00  0.00    +0.000 C 
ATOM     18  O   UNL     1      -4.431   6.032 127.364  0.00  0.00    +0.000 OA
ATOM     19  H   UNL     1      -5.682   3.721 128.190  0.00  0.00    +0.000 HD
BRANCH  17  20
ATOM     20  C   UNL     1      -6.252   4.439 126.230  0.00  0.00    +0.000 C 
ATOM     21  C   UNL     1      -5.810   3.586 125.108  0.00  0.00    +0.000 C 
ATOM     22  N   UNL     1      -6.917   3.509 124.142  0.00  0.00    +0.000 NA
ATOM     23  C   UNL     1      -6.490   2.673 123.049  0.00  0.00    +0.000 C 
ATOM     24  C   UNL     1      -8.300   2.919 124.656  0.00  0.00    +0.000 C 
ATOM     25  C   UNL     1      -8.704   1.593 124.618  0.00  0.00    +0.000 C 
ATOM     26  C   UNL     1      -8.624   0.398 123.874  0.00  0.00    +0.000 A 
ATOM     27  C   UNL     1      -7.388  -0.082 124.302  0.00  0.00    +0.000 A 
ATOM     28  N   UNL     1      -7.398  -0.887 123.247  0.00  0.00    +0.000 N 
ATOM     29  C   UNL     1      -8.097  -1.912 123.694  0.00  0.00    +0.000 A 
ATOM     30  C   UNL     1      -7.430  -3.156 123.674  0.00  0.00    +0.000 A 
ATOM     31  C   UNL     1      -8.014  -3.718 124.678  0.00  0.00    +0.000 A 
ATOM     32  C   UNL     1      -8.743  -2.418 125.696  0.00  0.00    +0.000 A 
ATOM     33  C   UNL     1      -9.137  -0.451 125.954  0.00  0.00    +0.000 A 
ATOM     34  C   UNL     1      -9.084  -0.867 124.449  0.00  0.00    +0.000 A 
ATOM     35  C   UNL     1      -8.738   1.562 126.168  0.00  0.00    +0.000 C 
ATOM     36  C   UNL     1      -7.740   3.353 126.711  0.00  0.00    +0.000 C 
ATOM     37  H   UNL     1      -7.744  -0.704 122.342  0.00  0.00    +0.000 HD
ENDBRANCH  17  20
ENDBRANCH  12  16
BRANCH  15  38
ATOM     38  O   UNL     1      -2.839   7.127 132.504  0.00  0.00    +0.000 OA
ATOM     39  H   UNL     1      -2.567   7.467 133.391  0.00  0.00    +0.000 HD
ENDBRANCH  15  38
BRANCH   8  40
ATOM     40  C   UNL     1      -6.175   3.642 131.946  0.00  0.00    +0.000 C 
BRANCH  40  41
ATOM     41  C   UNL     1      -7.530   3.251 131.604  0.00  0.00    +0.000 A 
ATOM     42  C   UNL     1      -8.140   3.613 130.425  0.00  0.00    +0.000 A 
ATOM     43  C   UNL     1      -9.493   3.485 130.299  0.00  0.00    +0.000 A 
ATOM     44  C   UNL     1     -10.166   2.679 131.188  0.00  0.00    +0.000 A 
ATOM     45  C   UNL     1      -9.521   2.188 132.312  0.00  0.00    +0.000 A 
ATOM     46  C   UNL     1      -8.194   2.470 132.525  0.00  0.00    +0.000 A 
ENDBRANCH  40  41
ENDBRANCH   8  40
TORSDOF 5
ENDMDL
MODEL 7
REMARK VINA RESULT:     -10.6      4.919      7.498
REMARK  Name = Dihydroergotamine
REMARK  7 active torsions:
REMARK  status: ('A' for Active; 'I' for Inactive)
REMARK    1  A    between atoms: C_9  and  C_10
REMARK    2  A    between atoms: C_10  and  C_11
REMARK    3  A    between atoms: C_20  and  C_21
REMARK    4  A    between atoms: C_20  and  N_22
REMARK    5  A    between atoms: C_23  and  C_25
REMARK    6  A    between atoms: N_27  and  C_28
REMARK    7  A    between atoms: C_45  and  O_46
REMARK                            x       y       z     vdW  Elec       q    Type
REMARK                         _______ _______ _______ _____ _____    ______ ____
ROOT
ATOM      1  C   UNL     1      -8.795  -0.441 124.812  0.00  0.00    +0.000 C 
ATOM      2  C   UNL     1      -9.118  -0.314 123.305  0.00  0.00    +0.000 C 
ATOM      3  C   UNL     1      -9.091  -1.712 122.709  0.00  0.00    +0.000 C 
ATOM      4  C   UNL     1      -8.917  -2.667 123.860  0.00  0.00    +0.000 C 
ATOM      5  N   UNL     1      -8.545  -1.850 124.989  0.00  0.00    +0.000 N 
ATOM      6  C   UNL     1      -7.451  -2.137 125.731  0.00  0.00    +0.000 C 
ATOM      7  O   UNL     1      -6.689  -3.020 125.358  0.00  0.00    +0.000 OA
ATOM      8  C   UNL     1      -7.164  -1.186 126.894  0.00  0.00    +0.000 C 
ATOM      9  N   UNL     1      -8.097   0.051 126.732  0.00  0.00    +0.000 N 
ATOM     10  C   UNL     1      -8.140   1.087 127.684  0.00  0.00    +0.000 C 
ATOM     11  O   UNL     1      -9.085   1.863 127.740  0.00  0.00    +0.000 OA
ATOM     12  C   UNL     1      -6.995   0.923 128.655  0.00  0.00    +0.000 C 
ATOM     13  C   UNL     1      -8.134   0.655 129.932  0.00  0.00    +0.000 C 
ATOM     14  O   UNL     1      -6.538   1.094 126.870  0.00  0.00    +0.000 OA
ATOM     15  C   UNL     1      -7.628   0.688 125.591  0.00  0.00    +0.000 C 
ENDROOT
BRANCH  12  16
ATOM     16  N   UNL     1      -6.221   1.473 130.118  0.00  0.00    +0.000 N 
ATOM     17  C   UNL     1      -4.824   1.522 130.283  0.00  0.00    +0.000 C 
ATOM     18  O   UNL     1      -4.132   1.841 129.324  0.00  0.00    +0.000 OA
ATOM     19  H   UNL     1      -6.131   0.723 130.856  0.00  0.00    +0.000 HD
BRANCH  17  20
ATOM     20  C   UNL     1      -4.187   0.835 131.799  0.00  0.00    +0.000 C 
ATOM     21  C   UNL     1      -5.135   0.842 132.932  0.00  0.00    +0.000 C 
ATOM     22  N   UNL     1      -4.378   0.510 134.150  0.00  0.00    +0.000 NA
ATOM     23  C   UNL     1      -5.302   0.512 135.255  0.00  0.00    +0.000 C 
ATOM     24  C   UNL     1      -3.622  -0.887 134.187  0.00  0.00    +0.000 C 
ATOM     25  C   UNL     1      -4.125  -2.092 134.652  0.00  0.00    +0.000 C 
ATOM     26  C   UNL     1      -4.974  -2.678 135.613  0.00  0.00    +0.000 A 
ATOM     27  C   UNL     1      -6.211  -2.500 134.997  0.00  0.00    +0.000 A 
ATOM     28  N   UNL     1      -6.770  -2.734 136.178  0.00  0.00    +0.000 N 
ATOM     29  C   UNL     1      -6.822  -4.051 136.198  0.00  0.00    +0.000 A 
ATOM     30  C   UNL     1      -8.115  -4.603 136.337  0.00  0.00    +0.000 A 
ATOM     31  C   UNL     1      -7.935  -5.708 135.695  0.00  0.00    +0.000 A 
ATOM     32  C   UNL     1      -6.493  -5.504 134.629  0.00  0.00    +0.000 A 
ATOM     33  C   UNL     1      -4.954  -4.341 134.018  0.00  0.00    +0.000 A 
ATOM     34  C   UNL     1      -5.353  -4.088 135.508  0.00  0.00    +0.000 A 
ATOM     35  C   UNL     1      -4.013  -2.687 133.224  0.00  0.00    +0.000 C 
ATOM     36  C   UNL     1      -3.656  -0.981 132.016  0.00  0.00    +0.000 C 
ATOM     37  H   UNL     1      -6.446  -2.467 137.070  0.00  0.00    +0.000 HD
ENDBRANCH  17  20
ENDBRANCH  12  16
BRANCH  15  38
ATOM     38  O   UNL     1      -8.245   1.904 125.094  0.00  0.00    +0.000 OA
ATOM     39  H   UNL     1      -8.990   1.733 124.468  0.00  0.00    +0.000 HD
ENDBRANCH  15  38
BRANCH   8  40
ATOM     40  C   UNL     1      -7.422  -1.667 128.280  0.00  0.00    +0.000 C 
BRANCH  40  41
ATOM     41  C   UNL     1      -6.403  -2.464 128.939  0.00  0.00    +0.000 A 
ATOM     42  C   UNL     1      -5.057  -2.300 128.709  0.00  0.00    +0.000 A 
ATOM     43  C   UNL     1      -4.183  -3.268 129.109  0.00  0.00    +0.000 A 
ATOM     44  C   UNL     1      -4.601  -4.196 130.035  0.00  0.00    +0.000 A 
ATOM     45  C   UNL     1      -5.940  -4.278 130.385  0.00  0.00    +0.000 A 
ATOM     46  C   UNL     1      -6.851  -3.408 129.839  0.00  0.00    +0.000 A 
ENDBRANCH  40  41
ENDBRANCH   8  40
TORSDOF 5
ENDMDL
MODEL 8
REMARK VINA RESULT:     -10.5      3.542     10.296
REMARK  Name = Dihydroergotamine
REMARK  7 active torsions:
REMARK  status: ('A' for Active; 'I' for Inactive)
REMARK    1  A    between atoms: C_9  and  C_10
REMARK    2  A    between atoms: C_10  and  C_11
REMARK    3  A    between atoms: C_20  and  C_21
REMARK    4  A    between atoms: C_20  and  N_22
REMARK    5  A    between atoms: C_23  and  C_25
REMARK    6  A    between atoms: N_27  and  C_28
REMARK    7  A    between atoms: C_45  and  O_46
REMARK                            x       y       z     vdW  Elec       q    Type
REMARK                         _______ _______ _______ _____ _____    ______ ____
ROOT
ATOM      1  C   UNL     1      -6.807   6.252 136.118  0.00  0.00    +0.000 C 
ATOM      2  C   UNL     1      -7.245   6.084 137.591  0.00  0.00    +0.000 C 
ATOM      3  C   UNL     1      -6.055   6.440 138.469  0.00  0.00    +0.000 C 
ATOM      4  C   UNL     1      -4.985   6.964 137.549  0.00  0.00    +0.000 C 
ATOM      5  N   UNL     1      -5.417   6.623 136.215  0.00  0.00    +0.000 N 
ATOM      6  C   UNL     1      -4.600   5.968 135.360  0.00  0.00    +0.000 C 
ATOM      7  O   UNL     1      -3.529   5.537 135.767  0.00  0.00    +0.000 OA
ATOM      8  C   UNL     1      -5.185   5.660 133.980  0.00  0.00    +0.000 C 
ATOM      9  N   UNL     1      -6.712   5.961 134.039  0.00  0.00    +0.000 N 
ATOM     10  C   UNL     1      -7.541   5.855 132.906  0.00  0.00    +0.000 C 
ATOM     11  O   UNL     1      -8.634   6.405 132.861  0.00  0.00    +0.000 OA
ATOM     12  C   UNL     1      -6.783   5.169 131.794  0.00  0.00    +0.000 C 
ATOM     13  C   UNL     1      -6.875   6.620 130.853  0.00  0.00    +0.000 C 
ATOM     14  O   UNL     1      -6.959   4.220 133.373  0.00  0.00    +0.000 OA
ATOM     15  C   UNL     1      -7.221   4.995 134.896  0.00  0.00    +0.000 C 
ENDROOT
BRANCH  12  16
ATOM     16  N   UNL     1      -6.763   4.666 130.124  0.00  0.00    +0.000 N 
ATOM     17  C   UNL     1      -7.298   3.443 129.678  0.00  0.00    +0.000 C 
ATOM     18  O   UNL     1      -8.319   3.023 130.206  0.00  0.00    +0.000 OA
ATOM     19  H   UNL     1      -5.859   4.205 129.832  0.00  0.00    +0.000 HD
BRANCH  17  20
ATOM     20  C   UNL     1      -6.268   2.488 128.580  0.00  0.00    +0.000 C 
ATOM     21  C   UNL     1      -6.388   1.024 128.729  0.00  0.00    +0.000 C 
ATOM     22  N   UNL     1      -5.292   0.406 127.966  0.00  0.00    +0.000 NA
ATOM     23  C   UNL     1      -5.411  -1.023 128.107  0.00  0.00    +0.000 C 
ATOM     24  C   UNL     1      -5.220   0.708 126.408  0.00  0.00    +0.000 C 
ATOM     25  C   UNL     1      -5.808  -0.027 125.391  0.00  0.00    +0.000 C 
ATOM     26  C   UNL     1      -6.166  -1.329 124.985  0.00  0.00    +0.000 A 
ATOM     27  C   UNL     1      -7.368  -1.485 125.673  0.00  0.00    +0.000 A 
ATOM     28  N   UNL     1      -7.256  -2.790 125.458  0.00  0.00    +0.000 N 
ATOM     29  C   UNL     1      -7.779  -2.913 124.254  0.00  0.00    +0.000 A 
ATOM     30  C   UNL     1      -8.896  -3.772 124.164  0.00  0.00    +0.000 A 
ATOM     31  C   UNL     1      -9.512  -3.203 123.183  0.00  0.00    +0.000 A 
ATOM     32  C   UNL     1      -8.902  -1.510 123.049  0.00  0.00    +0.000 A 
ATOM     33  C   UNL     1      -7.617  -0.087 123.695  0.00  0.00    +0.000 A 
ATOM     34  C   UNL     1      -7.039  -1.532 123.827  0.00  0.00    +0.000 A 
ATOM     35  C   UNL     1      -6.701   1.189 125.032  0.00  0.00    +0.000 C 
ATOM     36  C   UNL     1      -6.429   2.493 126.683  0.00  0.00    +0.000 C 
ATOM     37  H   UNL     1      -6.438  -3.340 125.451  0.00  0.00    +0.000 HD
ENDBRANCH  17  20
ENDBRANCH  12  16
BRANCH  15  38
ATOM     38  O   UNL     1      -8.635   4.937 135.218  0.00  0.00    +0.000 OA
ATOM     39  H   UNL     1      -9.171   5.610 134.733  0.00  0.00    +0.000 HD
ENDBRANCH  15  38
BRANCH   8  40
ATOM     40  C   UNL     1      -4.695   6.445 132.813  0.00  0.00    +0.000 C 
BRANCH  40  41
ATOM     41  C   UNL     1      -3.263   6.540 132.592  0.00  0.00    +0.000 A 
ATOM     42  C   UNL     1      -2.487   5.463 132.233  0.00  0.00    +0.000 A 
ATOM     43  C   UNL     1      -1.129   5.545 132.344  0.00  0.00    +0.000 A 
ATOM     44  C   UNL     1      -0.548   6.786 132.462  0.00  0.00    +0.000 A 
ATOM     45  C   UNL     1      -1.334   7.907 132.684  0.00  0.00    +0.000 A 
ATOM     46  C   UNL     1      -2.701   7.789 132.747  0.00  0.00    +0.000 A 
ENDBRANCH  40  41
ENDBRANCH   8  40
TORSDOF 5
ENDMDL
MODEL 9
REMARK VINA RESULT:     -10.1      2.574      4.904
REMARK  Name = Dihydroergotamine
REMARK  7 active torsions:
REMARK  status: ('A' for Active; 'I' for Inactive)
REMARK    1  A    between atoms: C_9  and  C_10
REMARK    2  A    between atoms: C_10  and  C_11
REMARK    3  A    between atoms: C_20  and  C_21
REMARK    4  A    between atoms: C_20  and  N_22
REMARK    5  A    between atoms: C_23  and  C_25
REMARK    6  A    between atoms: N_27  and  C_28
REMARK    7  A    between atoms: C_45  and  O_46
REMARK                            x       y       z     vdW  Elec       q    Type
REMARK                         _______ _______ _______ _____ _____    ______ ____
ROOT
ATOM      1  C   UNL     1      -8.783  -0.639 124.499  0.00  0.00    +0.000 C 
ATOM      2  C   UNL     1      -9.066  -1.436 123.204  0.00  0.00    +0.000 C 
ATOM      3  C   UNL     1      -9.198  -2.902 123.586  0.00  0.00    +0.000 C 
ATOM      4  C   UNL     1      -9.156  -2.960 125.089  0.00  0.00    +0.000 C 
ATOM      5  N   UNL     1      -8.706  -1.658 125.517  0.00  0.00    +0.000 N 
ATOM      6  C   UNL     1      -7.665  -1.521 126.369  0.00  0.00    +0.000 C 
ATOM      7  O   UNL     1      -7.009  -2.508 126.676  0.00  0.00    +0.000 OA
ATOM      8  C   UNL     1      -7.284  -0.085 126.735  0.00  0.00    +0.000 C 
ATOM      9  N   UNL     1      -8.060   0.866 125.775  0.00  0.00    +0.000 N 
ATOM     10  C   UNL     1      -7.994   2.267 125.894  0.00  0.00    +0.000 C 
ATOM     11  O   UNL     1      -8.840   2.991 125.386  0.00  0.00    +0.000 OA
ATOM     12  C   UNL     1      -6.891   2.636 126.858  0.00  0.00    +0.000 C 
ATOM     13  C   UNL     1      -8.072   3.306 127.932  0.00  0.00    +0.000 C 
ATOM     14  O   UNL     1      -6.390   1.636 125.383  0.00  0.00    +0.000 OA
ATOM     15  C   UNL     1      -7.501   0.626 124.527  0.00  0.00    +0.000 C 
ENDROOT
BRANCH  12  16
ATOM     16  N   UNL     1      -6.078   3.899 127.745  0.00  0.00    +0.000 N 
ATOM     17  C   UNL     1      -4.787   4.359 127.427  0.00  0.00    +0.000 C 
ATOM     18  O   UNL     1      -4.464   4.432 126.249  0.00  0.00    +0.000 OA
ATOM     19  H   UNL     1      -5.580   3.555 128.610  0.00  0.00    +0.000 HD
BRANCH  17  20
ATOM     20  C   UNL     1      -3.652   4.519 128.793  0.00  0.00    +0.000 C 
ATOM     21  C   UNL     1      -3.804   5.755 129.588  0.00  0.00    +0.000 C 
ATOM     22  N   UNL     1      -2.637   5.860 130.478  0.00  0.00    +0.000 NA
ATOM     23  C   UNL     1      -2.786   7.062 131.257  0.00  0.00    +0.000 C 
ATOM     24  C   UNL     1      -2.390   4.675 131.507  0.00  0.00    +0.000 C 
ATOM     25  C   UNL     1      -2.870   4.587 132.804  0.00  0.00    +0.000 C 
ATOM     26  C   UNL     1      -3.195   5.338 133.953  0.00  0.00    +0.000 A 
ATOM     27  C   UNL     1      -4.467   5.790 133.606  0.00  0.00    +0.000 A 
ATOM     28  N   UNL     1      -4.347   6.695 134.569  0.00  0.00    +0.000 N 
ATOM     29  C   UNL     1      -4.735   6.016 135.630  0.00  0.00    +0.000 A 
ATOM     30  C   UNL     1      -5.844   6.553 136.320  0.00  0.00    +0.000 A 
ATOM     31  C   UNL     1      -6.342   5.458 136.788  0.00  0.00    +0.000 A 
ATOM     32  C   UNL     1      -5.702   4.089 135.802  0.00  0.00    +0.000 A 
ATOM     33  C   UNL     1      -4.482   3.461 134.316  0.00  0.00    +0.000 A 
ATOM     34  C   UNL     1      -3.937   4.724 135.056  0.00  0.00    +0.000 A 
ATOM     35  C   UNL     1      -3.704   3.342 132.409  0.00  0.00    +0.000 C 
ATOM     36  C   UNL     1      -3.603   3.344 130.291  0.00  0.00    +0.000 C 
ATOM     37  H   UNL     1      -3.538   7.187 134.848  0.00  0.00    +0.000 HD
ENDBRANCH  17  20
ENDBRANCH  12  16
BRANCH  15  38
ATOM     38  O   UNL     1      -7.961   1.328 123.343  0.00  0.00    +0.000 OA
ATOM     39  H   UNL     1      -7.493   2.185 123.194  0.00  0.00    +0.000 HD
ENDBRANCH  15  38
BRANCH   8  40
ATOM     40  C   UNL     1      -7.618   0.409 128.099  0.00  0.00    +0.000 C 
BRANCH  40  41
ATOM     41  C   UNL     1      -6.609   0.315 129.138  0.00  0.00    +0.000 A 
ATOM     42  C   UNL     1      -5.301  -0.028 128.884  0.00  0.00    +0.000 A 
ATOM     43  C   UNL     1      -4.490  -0.401 129.916  0.00  0.00    +0.000 A 
ATOM     44  C   UNL     1      -4.868  -0.087 131.202  0.00  0.00    +0.000 A 
ATOM     45  C   UNL     1      -6.142   0.397 131.456  0.00  0.00    +0.000 A 
ATOM     46  C   UNL     1      -7.021   0.604 130.422  0.00  0.00    +0.000 A 
ENDBRANCH  40  41
ENDBRANCH   8  40
TORSDOF 5
ENDMDL
