MODEL 1
REMARK VINA RESULT:      -5.2      0.000      0.000
REMARK  Name = Diiodohydroxyquinoline
REMARK  1 active torsions:
REMARK  status: ('A' for Active; 'I' for Inactive)
REMARK    1  A    between atoms: O_1  and  C_2
REMARK                            x       y       z     vdW  Elec       q    Type
REMARK                         _______ _______ _______ _____ _____    ______ ____
ROOT
ATOM      1  C   UNL     1     -10.525   4.065 130.563  0.00  0.00    +0.000 A 
ATOM      2  C   UNL     1     -10.518   5.395 130.128  0.00  0.00    +0.000 A 
ATOM      3  N   UNL     1     -11.606   5.888 129.496  0.00  0.00    +0.000 NA
ATOM      4  C   UNL     1     -11.511   7.113 128.931  0.00  0.00    +0.000 A 
ATOM      5  C   UNL     1     -10.387   7.909 129.009  0.00  0.00    +0.000 A 
ATOM      6  C   UNL     1      -9.342   7.469 129.801  0.00  0.00    +0.000 A 
ATOM      7  C   UNL     1      -9.340   6.164 130.325  0.00  0.00    +0.000 A 
ATOM      8  C   UNL     1      -8.225   5.569 130.961  0.00  0.00    +0.000 A 
ATOM      9  I   UNL     1      -6.394   6.582 131.271  0.00  0.00    +0.000 I 
ATOM     10  C   UNL     1      -8.251   4.231 131.351  0.00  0.00    +0.000 A 
ATOM     11  C   UNL     1      -9.406   3.477 131.153  0.00  0.00    +0.000 A 
ATOM     12  I   UNL     1      -9.368   1.469 131.732  0.00  0.00    +0.000 I 
ENDROOT
BRANCH   1  13
ATOM     13  O   UNL     1     -11.662   3.310 130.361  0.00  0.00    +0.000 OA
ATOM     14  H   UNL     1     -12.324   3.653 130.995  0.00  0.00    +0.000 HD
ENDBRANCH   1  13
TORSDOF 1
ENDMDL
MODEL 2
REMARK VINA RESULT:      -5.2      3.527      4.605
REMARK  Name = Diiodohydroxyquinoline
REMARK  1 active torsions:
REMARK  status: ('A' for Active; 'I' for Inactive)
REMARK    1  A    between atoms: O_1  and  C_2
REMARK                            x       y       z     vdW  Elec       q    Type
REMARK                         _______ _______ _______ _____ _____    ______ ____
ROOT
ATOM      1  C   UNL     1      -8.610   7.031 130.801  0.00  0.00    +0.000 A 
ATOM      2  C   UNL     1      -7.264   6.939 131.171  0.00  0.00    +0.000 A 
ATOM      3  N   UNL     1      -6.321   7.487 130.373  0.00  0.00    +0.000 NA
ATOM      4  C   UNL     1      -5.023   7.234 130.658  0.00  0.00    +0.000 A 
ATOM      5  C   UNL     1      -4.606   6.495 131.746  0.00  0.00    +0.000 A 
ATOM      6  C   UNL     1      -5.569   6.085 132.651  0.00  0.00    +0.000 A 
ATOM      7  C   UNL     1      -6.937   6.226 132.356  0.00  0.00    +0.000 A 
ATOM      8  C   UNL     1      -7.975   5.647 133.121  0.00  0.00    +0.000 A 
ATOM      9  I   UNL     1      -7.625   4.516 134.875  0.00  0.00    +0.000 I 
ATOM     10  C   UNL     1      -9.303   5.725 132.706  0.00  0.00    +0.000 A 
ATOM     11  C   UNL     1      -9.622   6.421 131.542  0.00  0.00    +0.000 A 
ATOM     12  I   UNL     1     -11.628   6.475 130.959  0.00  0.00    +0.000 I 
ENDROOT
BRANCH   1  13
ATOM     13  O   UNL     1      -8.932   7.712 129.643  0.00  0.00    +0.000 OA
ATOM     14  H   UNL     1      -8.419   7.280 128.931  0.00  0.00    +0.000 HD
ENDBRANCH   1  13
TORSDOF 1
ENDMDL
MODEL 3
REMARK VINA RESULT:      -5.1      3.580      4.920
REMARK  Name = Diiodohydroxyquinoline
REMARK  1 active torsions:
REMARK  status: ('A' for Active; 'I' for Inactive)
REMARK    1  A    between atoms: O_1  and  C_2
REMARK                            x       y       z     vdW  Elec       q    Type
REMARK                         _______ _______ _______ _____ _____    ______ ____
ROOT
ATOM      1  C   UNL     1      -5.717   7.112 131.016  0.00  0.00    +0.000 A 
ATOM      2  C   UNL     1      -7.063   6.779 131.201  0.00  0.00    +0.000 A 
ATOM      3  N   UNL     1      -7.979   7.217 130.309  0.00  0.00    +0.000 NA
ATOM      4  C   UNL     1      -9.288   7.034 130.601  0.00  0.00    +0.000 A 
ATOM      5  C   UNL     1      -9.738   6.378 131.729  0.00  0.00    +0.000 A 
ATOM      6  C   UNL     1      -8.792   5.785 132.547  0.00  0.00    +0.000 A 
ATOM      7  C   UNL     1      -7.421   6.030 132.353  0.00  0.00    +0.000 A 
ATOM      8  C   UNL     1      -6.412   5.638 133.263  0.00  0.00    +0.000 A 
ATOM      9  I   UNL     1      -6.812   4.566 135.043  0.00  0.00    +0.000 I 
ATOM     10  C   UNL     1      -5.084   6.017 133.069  0.00  0.00    +0.000 A 
ATOM     11  C   UNL     1      -4.735   6.755 131.941  0.00  0.00    +0.000 A 
ATOM     12  I   UNL     1      -2.734   7.316 131.726  0.00  0.00    +0.000 I 
ENDROOT
BRANCH   1  13
ATOM     13  O   UNL     1      -5.366   7.852 129.904  0.00  0.00    +0.000 OA
ATOM     14  H   UNL     1      -6.117   8.458 129.741  0.00  0.00    +0.000 HD
ENDBRANCH   1  13
TORSDOF 1
ENDMDL
MODEL 4
REMARK VINA RESULT:      -5.0      7.177      7.554
REMARK  Name = Diiodohydroxyquinoline
REMARK  1 active torsions:
REMARK  status: ('A' for Active; 'I' for Inactive)
REMARK    1  A    between atoms: O_1  and  C_2
REMARK                            x       y       z     vdW  Elec       q    Type
REMARK                         _______ _______ _______ _____ _____    ______ ____
ROOT
ATOM      1  C   UNL     1      -7.162   3.430 125.825  0.00  0.00    +0.000 A 
ATOM      2  C   UNL     1      -8.029   2.946 124.840  0.00  0.00    +0.000 A 
ATOM      3  N   UNL     1      -9.184   2.351 125.212  0.00  0.00    +0.000 NA
ATOM      4  C   UNL     1      -9.919   1.737 124.256  0.00  0.00    +0.000 A 
ATOM      5  C   UNL     1      -9.583   1.729 122.917  0.00  0.00    +0.000 A 
ATOM      6  C   UNL     1      -8.493   2.484 122.524  0.00  0.00    +0.000 A 
ATOM      7  C   UNL     1      -7.634   3.056 123.480  0.00  0.00    +0.000 A 
ATOM      8  C   UNL     1      -6.392   3.657 123.168  0.00  0.00    +0.000 A 
ATOM      9  I   UNL     1      -5.660   3.837 121.192  0.00  0.00    +0.000 I 
ATOM     10  C   UNL     1      -5.534   4.096 124.175  0.00  0.00    +0.000 A 
ATOM     11  C   UNL     1      -5.921   3.984 125.509  0.00  0.00    +0.000 A 
ATOM     12  I   UNL     1      -4.577   4.634 126.970  0.00  0.00    +0.000 I 
ENDROOT
BRANCH   1  13
ATOM     13  O   UNL     1      -7.535   3.313 127.150  0.00  0.00    +0.000 OA
ATOM     14  H   UNL     1      -7.956   4.165 127.382  0.00  0.00    +0.000 HD
ENDBRANCH   1  13
TORSDOF 1
ENDMDL
MODEL 5
REMARK VINA RESULT:      -4.9      7.414      9.118
REMARK  Name = Diiodohydroxyquinoline
REMARK  1 active torsions:
REMARK  status: ('A' for Active; 'I' for Inactive)
REMARK    1  A    between atoms: O_1  and  C_2
REMARK                            x       y       z     vdW  Elec       q    Type
REMARK                         _______ _______ _______ _____ _____    ______ ____
ROOT
ATOM      1  C   UNL     1      -7.281  -0.232 127.340  0.00  0.00    +0.000 A 
ATOM      2  C   UNL     1      -7.869  -1.466 127.639  0.00  0.00    +0.000 A 
ATOM      3  N   UNL     1      -7.873  -1.903 128.917  0.00  0.00    +0.000 NA
ATOM      4  C   UNL     1      -8.286  -3.170 129.155  0.00  0.00    +0.000 A 
ATOM      5  C   UNL     1      -8.753  -4.021 128.175  0.00  0.00    +0.000 A 
ATOM      6  C   UNL     1      -8.907  -3.508 126.899  0.00  0.00    +0.000 A 
ATOM      7  C   UNL     1      -8.399  -2.238 126.570  0.00  0.00    +0.000 A 
ATOM      8  C   UNL     1      -8.326  -1.733 125.251  0.00  0.00    +0.000 A 
ATOM      9  I   UNL     1      -9.027  -2.800 123.564  0.00  0.00    +0.000 I 
ATOM     10  C   UNL     1      -7.701  -0.516 124.983  0.00  0.00    +0.000 A 
ATOM     11  C   UNL     1      -7.178   0.238 126.031  0.00  0.00    +0.000 A 
ATOM     12  I   UNL     1      -6.228   2.037 125.557  0.00  0.00    +0.000 I 
ENDROOT
BRANCH   1  13
ATOM     13  O   UNL     1      -6.753   0.515 128.374  0.00  0.00    +0.000 OA
ATOM     14  H   UNL     1      -5.871   0.130 128.556  0.00  0.00    +0.000 HD
ENDBRANCH   1  13
TORSDOF 1
ENDMDL
MODEL 6
REMARK VINA RESULT:      -4.8      2.863      3.839
REMARK  Name = Diiodohydroxyquinoline
REMARK  1 active torsions:
REMARK  status: ('A' for Active; 'I' for Inactive)
REMARK    1  A    between atoms: O_1  and  C_2
REMARK                            x       y       z     vdW  Elec       q    Type
REMARK                         _______ _______ _______ _____ _____    ______ ____
ROOT
ATOM      1  C   UNL     1     -10.243   6.000 129.601  0.00  0.00    +0.000 A 
ATOM      2  C   UNL     1      -9.091   5.212 129.503  0.00  0.00    +0.000 A 
ATOM      3  N   UNL     1      -8.586   4.930 128.282  0.00  0.00    +0.000 NA
ATOM      4  C   UNL     1      -7.581   4.027 128.203  0.00  0.00    +0.000 A 
ATOM      5  C   UNL     1      -7.008   3.419 129.302  0.00  0.00    +0.000 A 
ATOM      6  C   UNL     1      -7.415   3.842 130.555  0.00  0.00    +0.000 A 
ATOM      7  C   UNL     1      -8.523   4.696 130.699  0.00  0.00    +0.000 A 
ATOM      8  C   UNL     1      -9.128   5.003 131.939  0.00  0.00    +0.000 A 
ATOM      9  I   UNL     1      -8.417   4.260 133.788  0.00  0.00    +0.000 I 
ATOM     10  C   UNL     1     -10.297   5.761 132.000  0.00  0.00    +0.000 A 
ATOM     11  C   UNL     1     -10.855   6.262 130.826  0.00  0.00    +0.000 A 
ATOM     12  I   UNL     1     -12.624   7.365 130.984  0.00  0.00    +0.000 I 
ENDROOT
BRANCH   1  13
ATOM     13  O   UNL     1     -10.807   6.492 128.441  0.00  0.00    +0.000 OA
ATOM     14  H   UNL     1     -10.316   6.069 127.707  0.00  0.00    +0.000 HD
ENDBRANCH   1  13
TORSDOF 1
ENDMDL
MODEL 7
REMARK VINA RESULT:      -4.8      8.361      8.705
REMARK  Name = Diiodohydroxyquinoline
REMARK  1 active torsions:
REMARK  status: ('A' for Active; 'I' for Inactive)
REMARK    1  A    between atoms: O_1  and  C_2
REMARK                            x       y       z     vdW  Elec       q    Type
REMARK                         _______ _______ _______ _____ _____    ______ ____
ROOT
ATOM      1  C   UNL     1      -7.519  -1.589 123.616  0.00  0.00    +0.000 A 
ATOM      2  C   UNL     1      -8.238  -0.409 123.831  0.00  0.00    +0.000 A 
ATOM      3  N   UNL     1      -9.422  -0.235 123.204  0.00  0.00    +0.000 NA
ATOM      4  C   UNL     1     -10.013   0.980 123.286  0.00  0.00    +0.000 A 
ATOM      5  C   UNL     1      -9.502   2.033 124.017  0.00  0.00    +0.000 A 
ATOM      6  C   UNL     1      -8.381   1.793 124.792  0.00  0.00    +0.000 A 
ATOM      7  C   UNL     1      -7.667   0.588 124.667  0.00  0.00    +0.000 A 
ATOM      8  C   UNL     1      -6.405   0.351 125.260  0.00  0.00    +0.000 A 
ATOM      9  I   UNL     1      -5.418   1.769 126.482  0.00  0.00    +0.000 I 
ATOM     10  C   UNL     1      -5.697  -0.820 124.997  0.00  0.00    +0.000 A 
ATOM     11  C   UNL     1      -6.257  -1.795 124.174  0.00  0.00    +0.000 A 
ATOM     12  I   UNL     1      -5.130  -3.514 123.797  0.00  0.00    +0.000 I 
ENDROOT
BRANCH   1  13
ATOM     13  O   UNL     1      -8.063  -2.555 122.794  0.00  0.00    +0.000 OA
ATOM     14  H   UNL     1      -8.716  -3.034 123.344  0.00  0.00    +0.000 HD
ENDBRANCH   1  13
TORSDOF 1
ENDMDL
MODEL 8
REMARK VINA RESULT:      -4.8      7.703      8.993
REMARK  Name = Diiodohydroxyquinoline
REMARK  1 active torsions:
REMARK  status: ('A' for Active; 'I' for Inactive)
REMARK    1  A    between atoms: O_1  and  C_2
REMARK                            x       y       z     vdW  Elec       q    Type
REMARK                         _______ _______ _______ _____ _____    ______ ____
ROOT
ATOM      1  C   UNL     1      -8.140   0.400 125.146  0.00  0.00    +0.000 A 
ATOM      2  C   UNL     1      -8.461  -0.863 124.638  0.00  0.00    +0.000 A 
ATOM      3  N   UNL     1      -8.772  -0.987 123.328  0.00  0.00    +0.000 NA
ATOM      4  C   UNL     1      -9.250  -2.179 122.899  0.00  0.00    +0.000 A 
ATOM      5  C   UNL     1      -9.386  -3.288 123.709  0.00  0.00    +0.000 A 
ATOM      6  C   UNL     1      -8.905  -3.200 125.004  0.00  0.00    +0.000 A 
ATOM      7  C   UNL     1      -8.497  -1.963 125.535  0.00  0.00    +0.000 A 
ATOM      8  C   UNL     1      -8.197  -1.750 126.901  0.00  0.00    +0.000 A 
ATOM      9  I   UNL     1      -8.263  -3.288 128.352  0.00  0.00    +0.000 I 
ATOM     10  C   UNL     1      -7.915  -0.473 127.383  0.00  0.00    +0.000 A 
ATOM     11  C   UNL     1      -7.884   0.606 126.502  0.00  0.00    +0.000 A 
ATOM     12  I   UNL     1      -7.485   2.498 127.294  0.00  0.00    +0.000 I 
ENDROOT
BRANCH   1  13
ATOM     13  O   UNL     1      -8.117   1.475 124.280  0.00  0.00    +0.000 OA
ATOM     14  H   UNL     1      -8.664   2.168 124.703  0.00  0.00    +0.000 HD
ENDBRANCH   1  13
TORSDOF 1
ENDMDL
MODEL 9
REMARK VINA RESULT:      -4.8      8.032      8.897
REMARK  Name = Diiodohydroxyquinoline
REMARK  1 active torsions:
REMARK  status: ('A' for Active; 'I' for Inactive)
REMARK    1  A    between atoms: O_1  and  C_2
REMARK                            x       y       z     vdW  Elec       q    Type
REMARK                         _______ _______ _______ _____ _____    ______ ____
ROOT
ATOM      1  C   UNL     1      -8.554  -2.794 126.929  0.00  0.00    +0.000 A 
ATOM      2  C   UNL     1      -8.722  -2.465 125.580  0.00  0.00    +0.000 A 
ATOM      3  N   UNL     1      -9.350  -3.337 124.761  0.00  0.00    +0.000 NA
ATOM      4  C   UNL     1      -9.345  -3.078 123.433  0.00  0.00    +0.000 A 
ATOM      5  C   UNL     1      -8.782  -1.949 122.874  0.00  0.00    +0.000 A 
ATOM      6  C   UNL     1      -8.293  -0.982 123.734  0.00  0.00    +0.000 A 
ATOM      7  C   UNL     1      -8.177  -1.239 125.111  0.00  0.00    +0.000 A 
ATOM      8  C   UNL     1      -7.499  -0.394 126.019  0.00  0.00    +0.000 A 
ATOM      9  I   UNL     1      -6.596   1.432 125.445  0.00  0.00    +0.000 I 
ATOM     10  C   UNL     1      -7.317  -0.768 127.350  0.00  0.00    +0.000 A 
ATOM     11  C   UNL     1      -7.848  -1.971 127.807  0.00  0.00    +0.000 A 
ATOM     12  I   UNL     1      -7.514  -2.486 129.804  0.00  0.00    +0.000 I 
ENDROOT
BRANCH   1  13
ATOM     13  O   UNL     1      -9.070  -3.991 127.386  0.00  0.00    +0.000 OA
ATOM     14  H   UNL     1      -8.845  -4.655 126.703  0.00  0.00    +0.000 HD
ENDBRANCH   1  13
TORSDOF 1
ENDMDL
