MODEL 1
REMARK VINA RESULT:      -6.6      0.000      0.000
REMARK  Name = Diloxanide furoate
REMARK  6 active torsions:
REMARK  status: ('A' for Active; 'I' for Inactive)
REMARK    1  A    between atoms: C_1  and  N_2
REMARK    2  A    between atoms: N_2  and  C_8
REMARK    3  A    between atoms: C_3  and  C_5
REMARK    4  A    between atoms: C_11  and  O_12
REMARK    5  A    between atoms: O_12  and  C_13
REMARK    6  A    between atoms: C_13  and  C_15
REMARK                            x       y       z     vdW  Elec       q    Type
REMARK                         _______ _______ _______ _____ _____    ______ ____
ROOT
ATOM      1  C   UNL     1      -7.341   5.568 131.201  0.00  0.00    +0.000 A 
ATOM      2  C   UNL     1      -8.173   6.138 132.181  0.00  0.00    +0.000 A 
ATOM      3  C   UNL     1      -9.581   6.061 132.082  0.00  0.00    +0.000 A 
ATOM      4  C   UNL     1     -10.168   5.450 130.968  0.00  0.00    +0.000 A 
ATOM      5  C   UNL     1      -9.340   4.884 130.009  0.00  0.00    +0.000 A 
ATOM      6  C   UNL     1      -7.955   4.961 130.110  0.00  0.00    +0.000 A 
ENDROOT
BRANCH   1   8
ATOM      7  C   UNL     1      -5.350   4.370 132.040  0.00  0.00    +0.000 C 
ATOM      8  N   UNL     1      -5.907   5.523 131.313  0.00  0.00    +0.000 N 
ATOM      9  C   UNL     1      -5.137   6.602 130.823  0.00  0.00    +0.000 C 
ATOM     10  O   UNL     1      -5.670   7.602 130.327  0.00  0.00    +0.000 OA
BRANCH   9  11
ATOM     11  C   UNL     1      -3.612   6.557 131.037  0.00  0.00    +0.000 C 
ATOM     12 CL   UNL     1      -2.763   6.447 129.473  0.00  0.00    +0.000 Cl
ATOM     13 CL   UNL     1      -3.030   8.029 131.867  0.00  0.00    +0.000 Cl
ENDBRANCH   9  11
ENDBRANCH   1   8
BRANCH   4  14
ATOM     14  O   UNL     1     -11.588   5.467 130.833  0.00  0.00    +0.000 OA
BRANCH  14  15
ATOM     15  C   UNL     1     -12.326   6.646 130.584  0.00  0.00    +0.000 C 
ATOM     16  O   UNL     1     -13.168   7.144 131.334  0.00  0.00    +0.000 OA
BRANCH  15  17
ATOM     17  C   UNL     1     -12.007   7.221 129.309  0.00  0.00    +0.000 A 
ATOM     18  C   UNL     1     -11.275   8.333 128.940  0.00  0.00    +0.000 A 
ATOM     19  C   UNL     1     -11.189   8.312 127.524  0.00  0.00    +0.000 A 
ATOM     20  C   UNL     1     -11.875   7.195 127.111  0.00  0.00    +0.000 A 
ATOM     21  O   UNL     1     -12.357   6.519 128.183  0.00  0.00    +0.000 OA
ENDBRANCH  15  17
ENDBRANCH  14  15
ENDBRANCH   4  14
TORSDOF 5
ENDMDL
MODEL 2
REMARK VINA RESULT:      -6.5      3.371      3.952
REMARK  Name = Diloxanide furoate
REMARK  6 active torsions:
REMARK  status: ('A' for Active; 'I' for Inactive)
REMARK    1  A    between atoms: C_1  and  N_2
REMARK    2  A    between atoms: N_2  and  C_8
REMARK    3  A    between atoms: C_3  and  C_5
REMARK    4  A    between atoms: C_11  and  O_12
REMARK    5  A    between atoms: O_12  and  C_13
REMARK    6  A    between atoms: C_13  and  C_15
REMARK                            x       y       z     vdW  Elec       q    Type
REMARK                         _______ _______ _______ _____ _____    ______ ____
ROOT
ATOM      1  C   UNL     1      -9.441   4.500 131.197  0.00  0.00    +0.000 A 
ATOM      2  C   UNL     1      -9.543   5.708 131.909  0.00  0.00    +0.000 A 
ATOM      3  C   UNL     1     -10.668   6.552 131.765  0.00  0.00    +0.000 A 
ATOM      4  C   UNL     1     -11.682   6.211 130.862  0.00  0.00    +0.000 A 
ATOM      5  C   UNL     1     -11.576   5.014 130.167  0.00  0.00    +0.000 A 
ATOM      6  C   UNL     1     -10.468   4.186 130.313  0.00  0.00    +0.000 A 
ENDROOT
BRANCH   1   8
ATOM      7  C   UNL     1      -7.286   3.595 130.398  0.00  0.00    +0.000 C 
ATOM      8  N   UNL     1      -8.372   3.556 131.392  0.00  0.00    +0.000 N 
ATOM      9  C   UNL     1      -8.463   2.606 132.434  0.00  0.00    +0.000 C 
ATOM     10  O   UNL     1      -9.459   2.545 133.166  0.00  0.00    +0.000 OA
BRANCH   9  11
ATOM     11  C   UNL     1      -7.340   1.560 132.558  0.00  0.00    +0.000 C 
ATOM     12 CL   UNL     1      -6.519   1.705 134.134  0.00  0.00    +0.000 Cl
ATOM     13 CL   UNL     1      -7.986  -0.103 132.435  0.00  0.00    +0.000 Cl
ENDBRANCH   9  11
ENDBRANCH   1   8
BRANCH   4  14
ATOM     14  O   UNL     1     -12.761   7.119 130.654  0.00  0.00    +0.000 OA
BRANCH  14  15
ATOM     15  C   UNL     1     -12.632   8.317 129.914  0.00  0.00    +0.000 C 
ATOM     16  O   UNL     1     -12.921   9.447 130.311  0.00  0.00    +0.000 OA
BRANCH  15  17
ATOM     17  C   UNL     1     -12.133   8.079 128.590  0.00  0.00    +0.000 A 
ATOM     18  C   UNL     1     -10.926   8.361 127.979  0.00  0.00    +0.000 A 
ATOM     19  C   UNL     1     -10.967   7.755 126.697  0.00  0.00    +0.000 A 
ATOM     20  C   UNL     1     -12.194   7.143 126.597  0.00  0.00    +0.000 A 
ATOM     21  O   UNL     1     -12.898   7.317 127.742  0.00  0.00    +0.000 OA
ENDBRANCH  15  17
ENDBRANCH  14  15
ENDBRANCH   4  14
TORSDOF 5
ENDMDL
MODEL 3
REMARK VINA RESULT:      -6.5      9.482     10.732
REMARK  Name = Diloxanide furoate
REMARK  6 active torsions:
REMARK  status: ('A' for Active; 'I' for Inactive)
REMARK    1  A    between atoms: C_1  and  N_2
REMARK    2  A    between atoms: N_2  and  C_8
REMARK    3  A    between atoms: C_3  and  C_5
REMARK    4  A    between atoms: C_11  and  O_12
REMARK    5  A    between atoms: O_12  and  C_13
REMARK    6  A    between atoms: C_13  and  C_15
REMARK                            x       y       z     vdW  Elec       q    Type
REMARK                         _______ _______ _______ _____ _____    ______ ____
ROOT
ATOM      1  C   UNL     1      -7.592  -2.599 128.912  0.00  0.00    +0.000 A 
ATOM      2  C   UNL     1      -7.426  -1.420 128.165  0.00  0.00    +0.000 A 
ATOM      3  C   UNL     1      -8.076  -1.241 126.922  0.00  0.00    +0.000 A 
ATOM      4  C   UNL     1      -8.862  -2.271 126.394  0.00  0.00    +0.000 A 
ATOM      5  C   UNL     1      -9.025  -3.430 127.140  0.00  0.00    +0.000 A 
ATOM      6  C   UNL     1      -8.385  -3.602 128.363  0.00  0.00    +0.000 A 
ENDROOT
BRANCH   1   8
ATOM      7  C   UNL     1      -7.827  -2.220 131.341  0.00  0.00    +0.000 C 
ATOM      8  N   UNL     1      -7.043  -2.783 130.230  0.00  0.00    +0.000 N 
ATOM      9  C   UNL     1      -5.773  -3.385 130.377  0.00  0.00    +0.000 C 
ATOM     10  O   UNL     1      -5.106  -3.731 129.394  0.00  0.00    +0.000 OA
BRANCH   9  11
ATOM     11  C   UNL     1      -5.181  -3.487 131.795  0.00  0.00    +0.000 C 
ATOM     12 CL   UNL     1      -5.077  -5.191 132.309  0.00  0.00    +0.000 Cl
ATOM     13 CL   UNL     1      -3.533  -2.799 131.861  0.00  0.00    +0.000 Cl
ENDBRANCH   9  11
ENDBRANCH   1   8
BRANCH   4  14
ATOM     14  O   UNL     1      -9.430  -2.116 125.095  0.00  0.00    +0.000 OA
BRANCH  14  15
ATOM     15  C   UNL     1      -9.087  -2.939 123.998  0.00  0.00    +0.000 C 
ATOM     16  O   UNL     1      -9.870  -3.618 123.331  0.00  0.00    +0.000 OA
BRANCH  15  17
ATOM     17  C   UNL     1      -7.676  -2.928 123.739  0.00  0.00    +0.000 A 
ATOM     18  C   UNL     1      -6.842  -2.009 123.131  0.00  0.00    +0.000 A 
ATOM     19  C   UNL     1      -5.518  -2.488 123.298  0.00  0.00    +0.000 A 
ATOM     20  C   UNL     1      -5.618  -3.670 123.992  0.00  0.00    +0.000 A 
ATOM     21  O   UNL     1      -6.916  -3.935 124.279  0.00  0.00    +0.000 OA
ENDBRANCH  15  17
ENDBRANCH  14  15
ENDBRANCH   4  14
TORSDOF 5
ENDMDL
MODEL 4
REMARK VINA RESULT:      -6.4      4.072      7.152
REMARK  Name = Diloxanide furoate
REMARK  6 active torsions:
REMARK  status: ('A' for Active; 'I' for Inactive)
REMARK    1  A    between atoms: C_1  and  N_2
REMARK    2  A    between atoms: N_2  and  C_8
REMARK    3  A    between atoms: C_3  and  C_5
REMARK    4  A    between atoms: C_11  and  O_12
REMARK    5  A    between atoms: O_12  and  C_13
REMARK    6  A    between atoms: C_13  and  C_15
REMARK                            x       y       z     vdW  Elec       q    Type
REMARK                         _______ _______ _______ _____ _____    ______ ____
ROOT
ATOM      1  C   UNL     1      -9.711   6.288 130.481  0.00  0.00    +0.000 A 
ATOM      2  C   UNL     1      -8.590   6.967 130.991  0.00  0.00    +0.000 A 
ATOM      3  C   UNL     1      -7.290   6.423 130.881  0.00  0.00    +0.000 A 
ATOM      4  C   UNL     1      -7.110   5.163 130.299  0.00  0.00    +0.000 A 
ATOM      5  C   UNL     1      -8.221   4.501 129.793  0.00  0.00    +0.000 A 
ATOM      6  C   UNL     1      -9.498   5.041 129.902  0.00  0.00    +0.000 A 
ENDROOT
BRANCH   1   8
ATOM      7  C   UNL     1     -11.869   6.564 131.650  0.00  0.00    +0.000 C 
ATOM      8  N   UNL     1     -11.036   6.850 130.469  0.00  0.00    +0.000 N 
ATOM      9  C   UNL     1     -11.490   7.538 129.322  0.00  0.00    +0.000 C 
ATOM     10  O   UNL     1     -10.785   7.642 128.311  0.00  0.00    +0.000 OA
BRANCH   9  11
ATOM     11  C   UNL     1     -12.943   8.050 129.315  0.00  0.00    +0.000 C 
ATOM     12 CL   UNL     1     -12.979   9.831 129.377  0.00  0.00    +0.000 Cl
ATOM     13 CL   UNL     1     -13.803   7.541 127.832  0.00  0.00    +0.000 Cl
ENDBRANCH   9  11
ENDBRANCH   1   8
BRANCH   4  14
ATOM     14  O   UNL     1      -5.807   4.583 130.285  0.00  0.00    +0.000 OA
BRANCH  14  15
ATOM     15  C   UNL     1      -5.065   4.380 129.100  0.00  0.00    +0.000 C 
ATOM     16  O   UNL     1      -5.228   3.463 128.292  0.00  0.00    +0.000 OA
BRANCH  15  17
ATOM     17  C   UNL     1      -4.040   5.370 128.931  0.00  0.00    +0.000 A 
ATOM     18  C   UNL     1      -2.666   5.286 128.808  0.00  0.00    +0.000 A 
ATOM     19  C   UNL     1      -2.202   6.594 128.519  0.00  0.00    +0.000 A 
ATOM     20  C   UNL     1      -3.315   7.401 128.486  0.00  0.00    +0.000 A 
ATOM     21  O   UNL     1      -4.432   6.668 128.715  0.00  0.00    +0.000 OA
ENDBRANCH  15  17
ENDBRANCH  14  15
ENDBRANCH   4  14
TORSDOF 5
ENDMDL
MODEL 5
REMARK VINA RESULT:      -6.3      1.355      2.150
REMARK  Name = Diloxanide furoate
REMARK  6 active torsions:
REMARK  status: ('A' for Active; 'I' for Inactive)
REMARK    1  A    between atoms: C_1  and  N_2
REMARK    2  A    between atoms: N_2  and  C_8
REMARK    3  A    between atoms: C_3  and  C_5
REMARK    4  A    between atoms: C_11  and  O_12
REMARK    5  A    between atoms: O_12  and  C_13
REMARK    6  A    between atoms: C_13  and  C_15
REMARK                            x       y       z     vdW  Elec       q    Type
REMARK                         _______ _______ _______ _____ _____    ______ ____
ROOT
ATOM      1  C   UNL     1      -6.863   5.768 130.814  0.00  0.00    +0.000 A 
ATOM      2  C   UNL     1      -7.334   4.824 129.884  0.00  0.00    +0.000 A 
ATOM      3  C   UNL     1      -8.642   4.906 129.354  0.00  0.00    +0.000 A 
ATOM      4  C   UNL     1      -9.508   5.914 129.793  0.00  0.00    +0.000 A 
ATOM      5  C   UNL     1      -9.034   6.845 130.707  0.00  0.00    +0.000 A 
ATOM      6  C   UNL     1      -7.745   6.761 131.225  0.00  0.00    +0.000 A 
ENDROOT
BRANCH   1   8
ATOM      7  C   UNL     1      -5.224   4.947 132.469  0.00  0.00    +0.000 C 
ATOM      8  N   UNL     1      -5.507   5.791 131.296  0.00  0.00    +0.000 N 
ATOM      9  C   UNL     1      -4.571   6.668 130.703  0.00  0.00    +0.000 C 
ATOM     10  O   UNL     1      -4.899   7.443 129.796  0.00  0.00    +0.000 OA
BRANCH   9  11
ATOM     11  C   UNL     1      -3.154   6.726 131.303  0.00  0.00    +0.000 C 
ATOM     12 CL   UNL     1      -1.929   6.419 130.045  0.00  0.00    +0.000 Cl
ATOM     13 CL   UNL     1      -2.813   8.332 132.010  0.00  0.00    +0.000 Cl
ENDBRANCH   9  11
ENDBRANCH   1   8
BRANCH   4  14
ATOM     14  O   UNL     1     -10.855   5.926 129.326  0.00  0.00    +0.000 OA
BRANCH  14  15
ATOM     15  C   UNL     1     -11.332   6.846 128.364  0.00  0.00    +0.000 C 
ATOM     16  O   UNL     1     -11.099   6.812 127.153  0.00  0.00    +0.000 OA
BRANCH  15  17
ATOM     17  C   UNL     1     -12.127   7.882 128.958  0.00  0.00    +0.000 A 
ATOM     18  C   UNL     1     -12.482   8.157 130.265  0.00  0.00    +0.000 A 
ATOM     19  C   UNL     1     -13.164   9.401 130.247  0.00  0.00    +0.000 A 
ATOM     20  C   UNL     1     -13.190   9.810 128.935  0.00  0.00    +0.000 A 
ATOM     21  O   UNL     1     -12.550   8.909 128.151  0.00  0.00    +0.000 OA
ENDBRANCH  15  17
ENDBRANCH  14  15
ENDBRANCH   4  14
TORSDOF 5
ENDMDL
MODEL 6
REMARK VINA RESULT:      -6.1      6.557      7.771
REMARK  Name = Diloxanide furoate
REMARK  6 active torsions:
REMARK  status: ('A' for Active; 'I' for Inactive)
REMARK    1  A    between atoms: C_1  and  N_2
REMARK    2  A    between atoms: N_2  and  C_8
REMARK    3  A    between atoms: C_3  and  C_5
REMARK    4  A    between atoms: C_11  and  O_12
REMARK    5  A    between atoms: O_12  and  C_13
REMARK    6  A    between atoms: C_13  and  C_15
REMARK                            x       y       z     vdW  Elec       q    Type
REMARK                         _______ _______ _______ _____ _____    ______ ____
ROOT
ATOM      1  C   UNL     1      -4.523   3.204 125.854  0.00  0.00    +0.000 A 
ATOM      2  C   UNL     1      -5.181   3.857 124.797  0.00  0.00    +0.000 A 
ATOM      3  C   UNL     1      -6.306   3.279 124.165  0.00  0.00    +0.000 A 
ATOM      4  C   UNL     1      -6.751   2.012 124.559  0.00  0.00    +0.000 A 
ATOM      5  C   UNL     1      -6.099   1.376 125.607  0.00  0.00    +0.000 A 
ATOM      6  C   UNL     1      -4.994   1.949 126.227  0.00  0.00    +0.000 A 
ENDROOT
BRANCH   1   8
ATOM      7  C   UNL     1      -2.126   3.165 126.447  0.00  0.00    +0.000 C 
ATOM      8  N   UNL     1      -3.446   3.799 126.601  0.00  0.00    +0.000 N 
ATOM      9  C   UNL     1      -3.720   4.861 127.491  0.00  0.00    +0.000 C 
ATOM     10  O   UNL     1      -4.873   5.274 127.668  0.00  0.00    +0.000 OA
BRANCH   9  11
ATOM     11  C   UNL     1      -2.557   5.415 128.335  0.00  0.00    +0.000 C 
ATOM     12 CL   UNL     1      -2.405   7.177 128.113  0.00  0.00    +0.000 Cl
ATOM     13 CL   UNL     1      -2.816   5.108 130.077  0.00  0.00    +0.000 Cl
ENDBRANCH   9  11
ENDBRANCH   1   8
BRANCH   4  14
ATOM     14  O   UNL     1      -7.823   1.399 123.846  0.00  0.00    +0.000 OA
BRANCH  14  15
ATOM     15  C   UNL     1      -8.940   0.813 124.484  0.00  0.00    +0.000 C 
ATOM     16  O   UNL     1      -9.742   1.395 125.217  0.00  0.00    +0.000 OA
BRANCH  15  17
ATOM     17  C   UNL     1      -9.043  -0.591 124.206  0.00  0.00    +0.000 A 
ATOM     18  C   UNL     1      -8.794  -1.342 123.072  0.00  0.00    +0.000 A 
ATOM     19  C   UNL     1      -8.936  -2.703 123.446  0.00  0.00    +0.000 A 
ATOM     20  C   UNL     1      -9.267  -2.705 124.781  0.00  0.00    +0.000 A 
ATOM     21  O   UNL     1      -9.315  -1.435 125.253  0.00  0.00    +0.000 OA
ENDBRANCH  15  17
ENDBRANCH  14  15
ENDBRANCH   4  14
TORSDOF 5
ENDMDL
MODEL 7
REMARK VINA RESULT:      -6.0      6.136      7.893
REMARK  Name = Diloxanide furoate
REMARK  6 active torsions:
REMARK  status: ('A' for Active; 'I' for Inactive)
REMARK    1  A    between atoms: C_1  and  N_2
REMARK    2  A    between atoms: N_2  and  C_8
REMARK    3  A    between atoms: C_3  and  C_5
REMARK    4  A    between atoms: C_11  and  O_12
REMARK    5  A    between atoms: O_12  and  C_13
REMARK    6  A    between atoms: C_13  and  C_15
REMARK                            x       y       z     vdW  Elec       q    Type
REMARK                         _______ _______ _______ _____ _____    ______ ____
ROOT
ATOM      1  C   UNL     1      -9.252   3.013 131.212  0.00  0.00    +0.000 A 
ATOM      2  C   UNL     1      -9.721   2.041 132.114  0.00  0.00    +0.000 A 
ATOM      3  C   UNL     1      -9.352   0.682 131.985  0.00  0.00    +0.000 A 
ATOM      4  C   UNL     1      -8.544   0.279 130.916  0.00  0.00    +0.000 A 
ATOM      5  C   UNL     1      -8.081   1.245 130.033  0.00  0.00    +0.000 A 
ATOM      6  C   UNL     1      -8.446   2.581 130.164  0.00  0.00    +0.000 A 
ENDROOT
BRANCH   1   8
ATOM      7  C   UNL     1      -8.630   5.140 132.303  0.00  0.00    +0.000 C 
ATOM      8  N   UNL     1      -9.509   4.421 131.365  0.00  0.00    +0.000 N 
ATOM      9  C   UNL     1     -10.616   5.002 130.707  0.00  0.00    +0.000 C 
ATOM     10  O   UNL     1     -11.391   4.321 130.025  0.00  0.00    +0.000 OA
BRANCH   9  11
ATOM     11  C   UNL     1     -10.907   6.493 130.963  0.00  0.00    +0.000 C 
ATOM     12 CL   UNL     1      -9.977   7.515 129.837  0.00  0.00    +0.000 Cl
ATOM     13 CL   UNL     1     -12.640   6.865 130.727  0.00  0.00    +0.000 Cl
ENDBRANCH   9  11
ENDBRANCH   1   8
BRANCH   4  14
ATOM     14  O   UNL     1      -8.262  -1.108 130.742  0.00  0.00    +0.000 OA
BRANCH  14  15
ATOM     15  C   UNL     1      -7.284  -1.591 129.844  0.00  0.00    +0.000 C 
ATOM     16  O   UNL     1      -6.066  -1.429 129.945  0.00  0.00    +0.000 OA
BRANCH  15  17
ATOM     17  C   UNL     1      -7.868  -2.298 128.741  0.00  0.00    +0.000 A 
ATOM     18  C   UNL     1      -7.793  -2.125 127.372  0.00  0.00    +0.000 A 
ATOM     19  C   UNL     1      -8.470  -3.225 126.785  0.00  0.00    +0.000 A 
ATOM     20  C   UNL     1      -8.921  -4.002 127.825  0.00  0.00    +0.000 A 
ATOM     21  O   UNL     1      -8.547  -3.461 129.010  0.00  0.00    +0.000 OA
ENDBRANCH  15  17
ENDBRANCH  14  15
ENDBRANCH   4  14
TORSDOF 5
ENDMDL
MODEL 8
REMARK VINA RESULT:      -6.0      1.593      1.958
REMARK  Name = Diloxanide furoate
REMARK  6 active torsions:
REMARK  status: ('A' for Active; 'I' for Inactive)
REMARK    1  A    between atoms: C_1  and  N_2
REMARK    2  A    between atoms: N_2  and  C_8
REMARK    3  A    between atoms: C_3  and  C_5
REMARK    4  A    between atoms: C_11  and  O_12
REMARK    5  A    between atoms: O_12  and  C_13
REMARK    6  A    between atoms: C_13  and  C_15
REMARK                            x       y       z     vdW  Elec       q    Type
REMARK                         _______ _______ _______ _____ _____    ______ ____
ROOT
ATOM      1  C   UNL     1      -7.469   5.761 131.326  0.00  0.00    +0.000 A 
ATOM      2  C   UNL     1      -8.291   6.101 132.415  0.00  0.00    +0.000 A 
ATOM      3  C   UNL     1      -9.698   5.990 132.334  0.00  0.00    +0.000 A 
ATOM      4  C   UNL     1     -10.296   5.580 131.136  0.00  0.00    +0.000 A 
ATOM      5  C   UNL     1      -9.477   5.242 130.068  0.00  0.00    +0.000 A 
ATOM      6  C   UNL     1      -8.092   5.351 130.152  0.00  0.00    +0.000 A 
ENDROOT
BRANCH   1   8
ATOM      7  C   UNL     1      -5.352   6.959 130.894  0.00  0.00    +0.000 C 
ATOM      8  N   UNL     1      -6.031   5.752 131.396  0.00  0.00    +0.000 N 
ATOM      9  C   UNL     1      -5.363   4.587 131.834  0.00  0.00    +0.000 C 
ATOM     10  O   UNL     1      -5.985   3.559 132.130  0.00  0.00    +0.000 OA
BRANCH   9  11
ATOM     11  C   UNL     1      -3.823   4.587 131.814  0.00  0.00    +0.000 C 
ATOM     12 CL   UNL     1      -3.180   3.540 133.107  0.00  0.00    +0.000 Cl
ATOM     13 CL   UNL     1      -3.194   3.973 130.257  0.00  0.00    +0.000 Cl
ENDBRANCH   9  11
ENDBRANCH   1   8
BRANCH   4  14
ATOM     14  O   UNL     1     -11.719   5.568 131.037  0.00  0.00    +0.000 OA
BRANCH  14  15
ATOM     15  C   UNL     1     -12.490   6.737 130.845  0.00  0.00    +0.000 C 
ATOM     16  O   UNL     1     -13.239   7.254 131.677  0.00  0.00    +0.000 OA
BRANCH  15  17
ATOM     17  C   UNL     1     -12.332   7.274 129.524  0.00  0.00    +0.000 A 
ATOM     18  C   UNL     1     -11.885   8.495 129.057  0.00  0.00    +0.000 A 
ATOM     19  C   UNL     1     -11.816   8.390 127.644  0.00  0.00    +0.000 A 
ATOM     20  C   UNL     1     -12.228   7.116 127.330  0.00  0.00    +0.000 A 
ATOM     21  O   UNL     1     -12.524   6.428 128.460  0.00  0.00    +0.000 OA
ENDBRANCH  15  17
ENDBRANCH  14  15
ENDBRANCH   4  14
TORSDOF 5
ENDMDL
MODEL 9
REMARK VINA RESULT:      -5.9      3.808      4.713
REMARK  Name = Diloxanide furoate
REMARK  6 active torsions:
REMARK  status: ('A' for Active; 'I' for Inactive)
REMARK    1  A    between atoms: C_1  and  N_2
REMARK    2  A    between atoms: N_2  and  C_8
REMARK    3  A    between atoms: C_3  and  C_5
REMARK    4  A    between atoms: C_11  and  O_12
REMARK    5  A    between atoms: O_12  and  C_13
REMARK    6  A    between atoms: C_13  and  C_15
REMARK                            x       y       z     vdW  Elec       q    Type
REMARK                         _______ _______ _______ _____ _____    ______ ____
ROOT
ATOM      1  C   UNL     1      -8.558   2.860 129.707  0.00  0.00    +0.000 A 
ATOM      2  C   UNL     1      -9.824   2.856 130.318  0.00  0.00    +0.000 A 
ATOM      3  C   UNL     1     -10.444   4.058 130.729  0.00  0.00    +0.000 A 
ATOM      4  C   UNL     1      -9.773   5.276 130.571  0.00  0.00    +0.000 A 
ATOM      5  C   UNL     1      -8.526   5.273 129.962  0.00  0.00    +0.000 A 
ATOM      6  C   UNL     1      -7.919   4.087 129.559  0.00  0.00    +0.000 A 
ENDROOT
BRANCH   1   8
ATOM      7  C   UNL     1      -6.902   1.054 130.017  0.00  0.00    +0.000 C 
ATOM      8  N   UNL     1      -7.935   1.677 129.173  0.00  0.00    +0.000 N 
ATOM      9  C   UNL     1      -8.263   1.246 127.868  0.00  0.00    +0.000 C 
ATOM     10  O   UNL     1      -9.052   1.882 127.158  0.00  0.00    +0.000 OA
BRANCH   9  11
ATOM     11  C   UNL     1      -7.513   0.027 127.300  0.00  0.00    +0.000 C 
ATOM     12 CL   UNL     1      -8.584  -0.930 126.243  0.00  0.00    +0.000 Cl
ATOM     13 CL   UNL     1      -6.100   0.529 126.327  0.00  0.00    +0.000 Cl
ENDBRANCH   9  11
ENDBRANCH   1   8
BRANCH   4  14
ATOM     14  O   UNL     1     -10.368   6.468 131.080  0.00  0.00    +0.000 OA
BRANCH  14  15
ATOM     15  C   UNL     1     -11.746   6.756 130.961  0.00  0.00    +0.000 C 
ATOM     16  O   UNL     1     -12.580   6.692 131.867  0.00  0.00    +0.000 OA
BRANCH  15  17
ATOM     17  C   UNL     1     -12.106   7.122 129.621  0.00  0.00    +0.000 A 
ATOM     18  C   UNL     1     -13.124   6.715 128.780  0.00  0.00    +0.000 A 
ATOM     19  C   UNL     1     -13.053   7.538 127.627  0.00  0.00    +0.000 A 
ATOM     20  C   UNL     1     -11.996   8.394 127.827  0.00  0.00    +0.000 A 
ATOM     21  O   UNL     1     -11.429   8.163 129.036  0.00  0.00    +0.000 OA
ENDBRANCH  15  17
ENDBRANCH  14  15
ENDBRANCH   4  14
TORSDOF 5
ENDMDL
