MODEL 1
REMARK VINA RESULT:      -7.1      0.000      0.000
REMARK  Name = Diltiazem
REMARK  11 active torsions:
REMARK  status: ('A' for Active; 'I' for Inactive)
REMARK    1  A    between atoms: C_1  and  O_2
REMARK    2  A    between atoms: O_2  and  C_3
REMARK    3  A    between atoms: C_6  and  C_9
REMARK    4  A    between atoms: N_17  and  C_18
REMARK    5  A    between atoms: C_18  and  C_19
REMARK    6  A    between atoms: C_19  and  N_20
REMARK    7  A    between atoms: N_20  and  C_21
REMARK    8  A    between atoms: N_20  and  C_22
REMARK    9  A    between atoms: C_25  and  O_26
REMARK   10  A    between atoms: O_26  and  C_27
REMARK   11  A    between atoms: C_27  and  C_28
REMARK                            x       y       z     vdW  Elec       q    Type
REMARK                         _______ _______ _______ _____ _____    ______ ____
ROOT
ATOM      1  C   UNL     1      -8.014   5.364 131.591  0.00  0.00    +0.000 C 
ATOM      2  S   UNL     1      -6.211   6.646 131.597  0.00  0.00    +0.000 S 
ATOM      3  C   UNL     1      -4.780   6.209 130.276  0.00  0.00    +0.000 A 
ATOM      4  C   UNL     1      -4.608   4.875 129.906  0.00  0.00    +0.000 A 
ATOM      5  C   UNL     1      -3.625   4.405 129.005  0.00  0.00    +0.000 A 
ATOM      6  C   UNL     1      -2.695   5.243 128.450  0.00  0.00    +0.000 A 
ATOM      7  C   UNL     1      -2.790   6.587 128.783  0.00  0.00    +0.000 A 
ATOM      8  C   UNL     1      -3.807   7.080 129.692  0.00  0.00    +0.000 A 
ATOM      9  N   UNL     1      -5.606   3.992 130.256  0.00  0.00    +0.000 N 
ATOM     10  C   UNL     1      -6.844   4.381 129.824  0.00  0.00    +0.000 C 
ATOM     11  O   UNL     1      -6.991   5.121 128.857  0.00  0.00    +0.000 OA
ATOM     12  C   UNL     1      -7.946   4.029 130.762  0.00  0.00    +0.000 C 
ENDROOT
BRANCH   1  16
ATOM     13  C   UNL     1     -11.625   7.346 130.358  0.00  0.00    +0.000 A 
ATOM     14  C   UNL     1     -10.464   7.647 129.640  0.00  0.00    +0.000 A 
ATOM     15  C   UNL     1      -9.224   7.096 130.029  0.00  0.00    +0.000 A 
ATOM     16  C   UNL     1      -9.162   6.294 131.180  0.00  0.00    +0.000 A 
ATOM     17  C   UNL     1     -10.288   6.266 131.992  0.00  0.00    +0.000 A 
ATOM     18  C   UNL     1     -11.519   6.664 131.549  0.00  0.00    +0.000 A 
BRANCH  13  20
ATOM     19  C   UNL     1     -12.827   8.953 129.158  0.00  0.00    +0.000 C 
ATOM     20  O   UNL     1     -12.834   7.690 129.826  0.00  0.00    +0.000 OA
ENDBRANCH  13  20
ENDBRANCH   1  16
BRANCH   9  21
ATOM     21  C   UNL     1      -5.339   2.876 131.112  0.00  0.00    +0.000 C 
BRANCH  21  22
ATOM     22  C   UNL     1      -4.657   3.198 132.423  0.00  0.00    +0.000 C 
BRANCH  22  23
ATOM     23  N   UNL     1      -5.576   3.481 133.521  0.00  0.00    +0.000 NA
ATOM     24  C   UNL     1      -6.459   2.324 133.738  0.00  0.00    +0.000 C 
ATOM     25  C   UNL     1      -4.719   3.664 134.702  0.00  0.00    +0.000 C 
ENDBRANCH  22  23
ENDBRANCH  21  22
ENDBRANCH   9  21
BRANCH  12  26
ATOM     26  O   UNL     1      -9.095   3.593 129.994  0.00  0.00    +0.000 OA
BRANCH  26  27
ATOM     27  C   UNL     1     -10.216   3.057 130.581  0.00  0.00    +0.000 C 
ATOM     28  C   UNL     1     -10.020   2.112 131.744  0.00  0.00    +0.000 C 
ATOM     29  O   UNL     1     -11.332   3.385 130.252  0.00  0.00    +0.000 OA
ENDBRANCH  26  27
ENDBRANCH  12  26
TORSDOF 7
ENDMDL
MODEL 2
REMARK VINA RESULT:      -7.1      1.068      1.523
REMARK  Name = Diltiazem
REMARK  11 active torsions:
REMARK  status: ('A' for Active; 'I' for Inactive)
REMARK    1  A    between atoms: C_1  and  O_2
REMARK    2  A    between atoms: O_2  and  C_3
REMARK    3  A    between atoms: C_6  and  C_9
REMARK    4  A    between atoms: N_17  and  C_18
REMARK    5  A    between atoms: C_18  and  C_19
REMARK    6  A    between atoms: C_19  and  N_20
REMARK    7  A    between atoms: N_20  and  C_21
REMARK    8  A    between atoms: N_20  and  C_22
REMARK    9  A    between atoms: C_25  and  O_26
REMARK   10  A    between atoms: O_26  and  C_27
REMARK   11  A    between atoms: C_27  and  C_28
REMARK                            x       y       z     vdW  Elec       q    Type
REMARK                         _______ _______ _______ _____ _____    ______ ____
ROOT
ATOM      1  C   UNL     1      -7.932   5.310 131.588  0.00  0.00    +0.000 C 
ATOM      2  S   UNL     1      -6.147   6.616 131.601  0.00  0.00    +0.000 S 
ATOM      3  C   UNL     1      -4.729   6.233 130.249  0.00  0.00    +0.000 A 
ATOM      4  C   UNL     1      -4.544   4.910 129.844  0.00  0.00    +0.000 A 
ATOM      5  C   UNL     1      -3.568   4.477 128.918  0.00  0.00    +0.000 A 
ATOM      6  C   UNL     1      -2.658   5.342 128.371  0.00  0.00    +0.000 A 
ATOM      7  C   UNL     1      -2.766   6.675 128.739  0.00  0.00    +0.000 A 
ATOM      8  C   UNL     1      -3.777   7.131 129.674  0.00  0.00    +0.000 A 
ATOM      9  N   UNL     1      -5.524   4.005 130.186  0.00  0.00    +0.000 N 
ATOM     10  C   UNL     1      -6.774   4.387 129.781  0.00  0.00    +0.000 C 
ATOM     11  O   UNL     1      -6.945   5.149 128.835  0.00  0.00    +0.000 OA
ATOM     12  C   UNL     1      -7.858   3.997 130.725  0.00  0.00    +0.000 C 
ENDROOT
BRANCH   1  16
ATOM     13  C   UNL     1     -11.597   7.272 130.490  0.00  0.00    +0.000 A 
ATOM     14  C   UNL     1     -10.468   7.566 129.719  0.00  0.00    +0.000 A 
ATOM     15  C   UNL     1      -9.212   7.021 130.060  0.00  0.00    +0.000 A 
ATOM     16  C   UNL     1      -9.099   6.234 131.216  0.00  0.00    +0.000 A 
ATOM     17  C   UNL     1     -10.188   6.213 132.077  0.00  0.00    +0.000 A 
ATOM     18  C   UNL     1     -11.438   6.604 131.683  0.00  0.00    +0.000 A 
BRANCH  13  20
ATOM     19  C   UNL     1     -12.834   8.817 129.246  0.00  0.00    +0.000 C 
ATOM     20  O   UNL     1     -12.828   7.608 130.007  0.00  0.00    +0.000 OA
ENDBRANCH  13  20
ENDBRANCH   1  16
BRANCH   9  21
ATOM     21  C   UNL     1      -5.230   2.872 131.010  0.00  0.00    +0.000 C 
BRANCH  21  22
ATOM     22  C   UNL     1      -5.131   1.544 130.294  0.00  0.00    +0.000 C 
BRANCH  22  23
ATOM     23  N   UNL     1      -5.974   0.495 130.861  0.00  0.00    +0.000 NA
ATOM     24  C   UNL     1      -6.430   0.898 132.201  0.00  0.00    +0.000 C 
ATOM     25  C   UNL     1      -7.134   0.406 129.962  0.00  0.00    +0.000 C 
ENDBRANCH  22  23
ENDBRANCH  21  22
ENDBRANCH   9  21
BRANCH  12  26
ATOM     26  O   UNL     1      -9.011   3.564 129.963  0.00  0.00    +0.000 OA
BRANCH  26  27
ATOM     27  C   UNL     1     -10.143   3.060 130.557  0.00  0.00    +0.000 C 
ATOM     28  C   UNL     1      -9.968   2.135 131.739  0.00  0.00    +0.000 C 
ATOM     29  O   UNL     1     -11.253   3.403 130.219  0.00  0.00    +0.000 OA
ENDBRANCH  26  27
ENDBRANCH  12  26
TORSDOF 7
ENDMDL
MODEL 3
REMARK VINA RESULT:      -6.7      6.964     10.069
REMARK  Name = Diltiazem
REMARK  11 active torsions:
REMARK  status: ('A' for Active; 'I' for Inactive)
REMARK    1  A    between atoms: C_1  and  O_2
REMARK    2  A    between atoms: O_2  and  C_3
REMARK    3  A    between atoms: C_6  and  C_9
REMARK    4  A    between atoms: N_17  and  C_18
REMARK    5  A    between atoms: C_18  and  C_19
REMARK    6  A    between atoms: C_19  and  N_20
REMARK    7  A    between atoms: N_20  and  C_21
REMARK    8  A    between atoms: N_20  and  C_22
REMARK    9  A    between atoms: C_25  and  O_26
REMARK   10  A    between atoms: O_26  and  C_27
REMARK   11  A    between atoms: C_27  and  C_28
REMARK                            x       y       z     vdW  Elec       q    Type
REMARK                         _______ _______ _______ _____ _____    ______ ____
ROOT
ATOM      1  C   UNL     1      -7.032  -2.020 129.818  0.00  0.00    +0.000 C 
ATOM      2  S   UNL     1      -8.428  -2.885 128.336  0.00  0.00    +0.000 S 
ATOM      3  C   UNL     1      -7.886  -2.798 126.417  0.00  0.00    +0.000 A 
ATOM      4  C   UNL     1      -7.107  -1.718 126.000  0.00  0.00    +0.000 A 
ATOM      5  C   UNL     1      -6.666  -1.503 124.674  0.00  0.00    +0.000 A 
ATOM      6  C   UNL     1      -7.031  -2.334 123.648  0.00  0.00    +0.000 A 
ATOM      7  C   UNL     1      -7.822  -3.424 123.981  0.00  0.00    +0.000 A 
ATOM      8  C   UNL     1      -8.263  -3.663 125.343  0.00  0.00    +0.000 A 
ATOM      9  N   UNL     1      -6.533  -0.940 126.981  0.00  0.00    +0.000 N 
ATOM     10  C   UNL     1      -5.789  -1.663 127.874  0.00  0.00    +0.000 C 
ATOM     11  O   UNL     1      -5.291  -2.744 127.578  0.00  0.00    +0.000 OA
ATOM     12  C   UNL     1      -5.849  -1.143 129.267  0.00  0.00    +0.000 C 
ENDROOT
BRANCH   1  16
ATOM     13  C   UNL     1      -5.315  -4.855 132.558  0.00  0.00    +0.000 A 
ATOM     14  C   UNL     1      -5.263  -5.179 131.199  0.00  0.00    +0.000 A 
ATOM     15  C   UNL     1      -5.870  -4.338 130.242  0.00  0.00    +0.000 A 
ATOM     16  C   UNL     1      -6.579  -3.207 130.678  0.00  0.00    +0.000 A 
ATOM     17  C   UNL     1      -6.824  -3.100 132.040  0.00  0.00    +0.000 A 
ATOM     18  C   UNL     1      -6.118  -3.815 132.968  0.00  0.00    +0.000 A 
BRANCH  13  20
ATOM     19  C   UNL     1      -3.210  -4.997 133.565  0.00  0.00    +0.000 C 
ATOM     20  O   UNL     1      -4.523  -5.544 133.429  0.00  0.00    +0.000 OA
ENDBRANCH  13  20
ENDBRANCH   1  16
BRANCH   9  21
ATOM     21  C   UNL     1      -6.840   0.454 127.094  0.00  0.00    +0.000 C 
BRANCH  21  22
ATOM     22  C   UNL     1      -8.292   0.792 127.346  0.00  0.00    +0.000 C 
BRANCH  22  23
ATOM     23  N   UNL     1      -8.908   1.601 126.298  0.00  0.00    +0.000 NA
ATOM     24  C   UNL     1      -7.862   2.163 125.429  0.00  0.00    +0.000 C 
ATOM     25  C   UNL     1      -9.731   0.662 125.521  0.00  0.00    +0.000 C 
ENDBRANCH  22  23
ENDBRANCH  21  22
ENDBRANCH   9  21
BRANCH  12  26
ATOM     26  O   UNL     1      -4.533  -1.243 129.864  0.00  0.00    +0.000 OA
BRANCH  26  27
ATOM     27  C   UNL     1      -4.187  -0.568 131.010  0.00  0.00    +0.000 C 
ATOM     28  C   UNL     1      -3.455  -1.334 132.087  0.00  0.00    +0.000 C 
ATOM     29  O   UNL     1      -4.372   0.621 131.135  0.00  0.00    +0.000 OA
ENDBRANCH  26  27
ENDBRANCH  12  26
TORSDOF 7
ENDMDL
MODEL 4
REMARK VINA RESULT:      -6.4      6.865     10.028
REMARK  Name = Diltiazem
REMARK  11 active torsions:
REMARK  status: ('A' for Active; 'I' for Inactive)
REMARK    1  A    between atoms: C_1  and  O_2
REMARK    2  A    between atoms: O_2  and  C_3
REMARK    3  A    between atoms: C_6  and  C_9
REMARK    4  A    between atoms: N_17  and  C_18
REMARK    5  A    between atoms: C_18  and  C_19
REMARK    6  A    between atoms: C_19  and  N_20
REMARK    7  A    between atoms: N_20  and  C_21
REMARK    8  A    between atoms: N_20  and  C_22
REMARK    9  A    between atoms: C_25  and  O_26
REMARK   10  A    between atoms: O_26  and  C_27
REMARK   11  A    between atoms: C_27  and  C_28
REMARK                            x       y       z     vdW  Elec       q    Type
REMARK                         _______ _______ _______ _____ _____    ______ ____
ROOT
ATOM      1  C   UNL     1      -7.349  -1.769 128.840  0.00  0.00    +0.000 C 
ATOM      2  S   UNL     1      -8.510  -3.126 127.534  0.00  0.00    +0.000 S 
ATOM      3  C   UNL     1      -8.444  -2.777 125.571  0.00  0.00    +0.000 A 
ATOM      4  C   UNL     1      -8.293  -1.458 125.139  0.00  0.00    +0.000 A 
ATOM      5  C   UNL     1      -8.254  -1.048 123.787  0.00  0.00    +0.000 A 
ATOM      6  C   UNL     1      -8.427  -1.936 122.759  0.00  0.00    +0.000 A 
ATOM      7  C   UNL     1      -8.601  -3.267 123.107  0.00  0.00    +0.000 A 
ATOM      8  C   UNL     1      -8.623  -3.699 124.493  0.00  0.00    +0.000 A 
ATOM      9  N   UNL     1      -7.921  -0.527 126.084  0.00  0.00    +0.000 N 
ATOM     10  C   UNL     1      -6.782  -0.871 126.759  0.00  0.00    +0.000 C 
ATOM     11  O   UNL     1      -5.943  -1.622 126.275  0.00  0.00    +0.000 OA
ATOM     12  C   UNL     1      -6.782  -0.454 128.189  0.00  0.00    +0.000 C 
ENDROOT
BRANCH   1  16
ATOM     13  C   UNL     1      -4.239  -3.685 131.107  0.00  0.00    +0.000 A 
ATOM     14  C   UNL     1      -4.065  -3.627 129.722  0.00  0.00    +0.000 A 
ATOM     15  C   UNL     1      -5.075  -3.082 128.900  0.00  0.00    +0.000 A 
ATOM     16  C   UNL     1      -6.278  -2.657 129.485  0.00  0.00    +0.000 A 
ATOM     17  C   UNL     1      -6.490  -2.996 130.814  0.00  0.00    +0.000 A 
ATOM     18  C   UNL     1      -5.470  -3.379 131.641  0.00  0.00    +0.000 A 
BRANCH  13  20
ATOM     19  C   UNL     1      -3.521  -4.478 133.186  0.00  0.00    +0.000 C 
ATOM     20  O   UNL     1      -3.164  -3.987 131.892  0.00  0.00    +0.000 OA
ENDBRANCH  13  20
ENDBRANCH   1  16
BRANCH   9  21
ATOM     21  C   UNL     1      -8.760   0.593 126.388  0.00  0.00    +0.000 C 
BRANCH  21  22
ATOM     22  C   UNL     1      -8.215   1.950 125.999  0.00  0.00    +0.000 C 
BRANCH  22  23
ATOM     23  N   UNL     1      -9.049   2.678 125.048  0.00  0.00    +0.000 NA
ATOM     24  C   UNL     1      -8.217   3.176 123.942  0.00  0.00    +0.000 C 
ATOM     25  C   UNL     1     -10.000   1.683 124.530  0.00  0.00    +0.000 C 
ENDBRANCH  22  23
ENDBRANCH  21  22
ENDBRANCH   9  21
BRANCH  12  26
ATOM     26  O   UNL     1      -5.457   0.015 128.541  0.00  0.00    +0.000 OA
BRANCH  26  27
ATOM     27  C   UNL     1      -5.210   0.747 129.678  0.00  0.00    +0.000 C 
ATOM     28  C   UNL     1      -4.177   0.220 130.646  0.00  0.00    +0.000 C 
ATOM     29  O   UNL     1      -5.726   1.824 129.873  0.00  0.00    +0.000 OA
ENDBRANCH  26  27
ENDBRANCH  12  26
TORSDOF 7
ENDMDL
MODEL 5
REMARK VINA RESULT:      -6.4      6.736      9.739
REMARK  Name = Diltiazem
REMARK  11 active torsions:
REMARK  status: ('A' for Active; 'I' for Inactive)
REMARK    1  A    between atoms: C_1  and  O_2
REMARK    2  A    between atoms: O_2  and  C_3
REMARK    3  A    between atoms: C_6  and  C_9
REMARK    4  A    between atoms: N_17  and  C_18
REMARK    5  A    between atoms: C_18  and  C_19
REMARK    6  A    between atoms: C_19  and  N_20
REMARK    7  A    between atoms: N_20  and  C_21
REMARK    8  A    between atoms: N_20  and  C_22
REMARK    9  A    between atoms: C_25  and  O_26
REMARK   10  A    between atoms: O_26  and  C_27
REMARK   11  A    between atoms: C_27  and  C_28
REMARK                            x       y       z     vdW  Elec       q    Type
REMARK                         _______ _______ _______ _____ _____    ______ ____
ROOT
ATOM      1  C   UNL     1      -6.756  -1.859 129.791  0.00  0.00    +0.000 C 
ATOM      2  S   UNL     1      -8.106  -2.576 128.192  0.00  0.00    +0.000 S 
ATOM      3  C   UNL     1      -7.398  -2.554 126.326  0.00  0.00    +0.000 A 
ATOM      4  C   UNL     1      -6.476  -1.565 125.981  0.00  0.00    +0.000 A 
ATOM      5  C   UNL     1      -5.906  -1.402 124.699  0.00  0.00    +0.000 A 
ATOM      6  C   UNL     1      -6.269  -2.194 123.641  0.00  0.00    +0.000 A 
ATOM      7  C   UNL     1      -7.196  -3.193 123.901  0.00  0.00    +0.000 A 
ATOM      8  C   UNL     1      -7.772  -3.378 125.219  0.00  0.00    +0.000 A 
ATOM      9  N   UNL     1      -5.908  -0.849 127.012  0.00  0.00    +0.000 N 
ATOM     10  C   UNL     1      -5.322  -1.643 127.960  0.00  0.00    +0.000 C 
ATOM     11  O   UNL     1      -4.918  -2.771 127.701  0.00  0.00    +0.000 OA
ATOM     12  C   UNL     1      -5.444  -1.114 129.346  0.00  0.00    +0.000 C 
ENDROOT
BRANCH   1  16
ATOM     13  C   UNL     1      -5.614  -4.840 132.672  0.00  0.00    +0.000 A 
ATOM     14  C   UNL     1      -5.417  -5.157 131.325  0.00  0.00    +0.000 A 
ATOM     15  C   UNL     1      -5.835  -4.263 130.315  0.00  0.00    +0.000 A 
ATOM     16  C   UNL     1      -6.505  -3.085 130.679  0.00  0.00    +0.000 A 
ATOM     17  C   UNL     1      -6.909  -2.969 132.002  0.00  0.00    +0.000 A 
ATOM     18  C   UNL     1      -6.381  -3.744 132.997  0.00  0.00    +0.000 A 
BRANCH  13  20
ATOM     19  C   UNL     1      -4.508  -4.836 134.732  0.00  0.00    +0.000 C 
ATOM     20  O   UNL     1      -4.991  -5.596 133.622  0.00  0.00    +0.000 OA
ENDBRANCH  13  20
ENDBRANCH   1  16
BRANCH   9  21
ATOM     21  C   UNL     1      -6.074   0.570 127.106  0.00  0.00    +0.000 C 
BRANCH  21  22
ATOM     22  C   UNL     1      -4.945   1.405 126.544  0.00  0.00    +0.000 C 
BRANCH  22  23
ATOM     23  N   UNL     1      -4.690   2.639 127.282  0.00  0.00    +0.000 NA
ATOM     24  C   UNL     1      -4.069   2.321 128.578  0.00  0.00    +0.000 C 
ATOM     25  C   UNL     1      -3.731   3.389 126.457  0.00  0.00    +0.000 C 
ENDBRANCH  22  23
ENDBRANCH  21  22
ENDBRANCH   9  21
BRANCH  12  26
ATOM     26  O   UNL     1      -4.201  -1.352 130.050  0.00  0.00    +0.000 OA
BRANCH  26  27
ATOM     27  C   UNL     1      -3.934  -0.806 131.284  0.00  0.00    +0.000 C 
ATOM     28  C   UNL     1      -3.285  -1.691 132.321  0.00  0.00    +0.000 C 
ATOM     29  O   UNL     1      -4.121   0.365 131.521  0.00  0.00    +0.000 OA
ENDBRANCH  26  27
ENDBRANCH  12  26
TORSDOF 7
ENDMDL
MODEL 6
REMARK VINA RESULT:      -6.3      4.236      7.101
REMARK  Name = Diltiazem
REMARK  11 active torsions:
REMARK  status: ('A' for Active; 'I' for Inactive)
REMARK    1  A    between atoms: C_1  and  O_2
REMARK    2  A    between atoms: O_2  and  C_3
REMARK    3  A    between atoms: C_6  and  C_9
REMARK    4  A    between atoms: N_17  and  C_18
REMARK    5  A    between atoms: C_18  and  C_19
REMARK    6  A    between atoms: C_19  and  N_20
REMARK    7  A    between atoms: N_20  and  C_21
REMARK    8  A    between atoms: N_20  and  C_22
REMARK    9  A    between atoms: C_25  and  O_26
REMARK   10  A    between atoms: O_26  and  C_27
REMARK   11  A    between atoms: C_27  and  C_28
REMARK                            x       y       z     vdW  Elec       q    Type
REMARK                         _______ _______ _______ _____ _____    ______ ____
ROOT
ATOM      1  C   UNL     1      -6.921   0.388 128.695  0.00  0.00    +0.000 C 
ATOM      2  S   UNL     1      -5.746   1.071 126.950  0.00  0.00    +0.000 S 
ATOM      3  C   UNL     1      -4.338   2.445 127.283  0.00  0.00    +0.000 A 
ATOM      4  C   UNL     1      -4.546   3.370 128.307  0.00  0.00    +0.000 A 
ATOM      5  C   UNL     1      -3.658   4.415 128.647  0.00  0.00    +0.000 A 
ATOM      6  C   UNL     1      -2.511   4.648 127.936  0.00  0.00    +0.000 A 
ATOM      7  C   UNL     1      -2.241   3.780 126.888  0.00  0.00    +0.000 A 
ATOM      8  C   UNL     1      -3.138   2.692 126.544  0.00  0.00    +0.000 A 
ATOM      9  N   UNL     1      -5.566   3.104 129.195  0.00  0.00    +0.000 N 
ATOM     10  C   UNL     1      -5.468   1.868 129.772  0.00  0.00    +0.000 C 
ATOM     11  O   UNL     1      -4.395   1.284 129.877  0.00  0.00    +0.000 OA
ATOM     12  C   UNL     1      -6.783   1.217 130.025  0.00  0.00    +0.000 C 
ENDROOT
BRANCH   1  16
ATOM     13  C   UNL     1      -6.206  -3.699 129.824  0.00  0.00    +0.000 A 
ATOM     14  C   UNL     1      -5.123  -2.993 129.293  0.00  0.00    +0.000 A 
ATOM     15  C   UNL     1      -5.294  -1.671 128.829  0.00  0.00    +0.000 A 
ATOM     16  C   UNL     1      -6.576  -1.099 128.851  0.00  0.00    +0.000 A 
ATOM     17  C   UNL     1      -7.641  -1.944 129.128  0.00  0.00    +0.000 A 
ATOM     18  C   UNL     1      -7.470  -3.165 129.719  0.00  0.00    +0.000 A 
BRANCH  13  20
ATOM     19  C   UNL     1      -5.377  -4.695 131.769  0.00  0.00    +0.000 C 
ATOM     20  O   UNL     1      -5.967  -4.871 130.481  0.00  0.00    +0.000 OA
ENDBRANCH  13  20
ENDBRANCH   1  16
BRANCH   9  21
ATOM     21  C   UNL     1      -6.667   4.006 129.347  0.00  0.00    +0.000 C 
BRANCH  21  22
ATOM     22  C   UNL     1      -6.671   4.837 130.610  0.00  0.00    +0.000 C 
BRANCH  22  23
ATOM     23  N   UNL     1      -6.782   6.274 130.380  0.00  0.00    +0.000 NA
ATOM     24  C   UNL     1      -7.999   6.786 131.031  0.00  0.00    +0.000 C 
ATOM     25  C   UNL     1      -5.601   6.861 131.031  0.00  0.00    +0.000 C 
ENDBRANCH  22  23
ENDBRANCH  21  22
ENDBRANCH   9  21
BRANCH  12  26
ATOM     26  O   UNL     1      -6.732   0.536 131.302  0.00  0.00    +0.000 OA
BRANCH  26  27
ATOM     27  C   UNL     1      -7.742   0.627 132.230  0.00  0.00    +0.000 C 
ATOM     28  C   UNL     1      -9.140   0.264 131.789  0.00  0.00    +0.000 C 
ATOM     29  O   UNL     1      -7.527   0.900 133.389  0.00  0.00    +0.000 OA
ENDBRANCH  26  27
ENDBRANCH  12  26
TORSDOF 7
ENDMDL
MODEL 7
REMARK VINA RESULT:      -6.3      6.289      8.286
REMARK  Name = Diltiazem
REMARK  11 active torsions:
REMARK  status: ('A' for Active; 'I' for Inactive)
REMARK    1  A    between atoms: C_1  and  O_2
REMARK    2  A    between atoms: O_2  and  C_3
REMARK    3  A    between atoms: C_6  and  C_9
REMARK    4  A    between atoms: N_17  and  C_18
REMARK    5  A    between atoms: C_18  and  C_19
REMARK    6  A    between atoms: C_19  and  N_20
REMARK    7  A    between atoms: N_20  and  C_21
REMARK    8  A    between atoms: N_20  and  C_22
REMARK    9  A    between atoms: C_25  and  O_26
REMARK   10  A    between atoms: O_26  and  C_27
REMARK   11  A    between atoms: C_27  and  C_28
REMARK                            x       y       z     vdW  Elec       q    Type
REMARK                         _______ _______ _______ _____ _____    ______ ____
ROOT
ATOM      1  C   UNL     1      -6.108   1.653 126.130  0.00  0.00    +0.000 C 
ATOM      2  S   UNL     1      -5.695  -0.274 125.126  0.00  0.00    +0.000 S 
ATOM      3  C   UNL     1      -7.131  -1.659 125.190  0.00  0.00    +0.000 A 
ATOM      4  C   UNL     1      -7.967  -1.693 126.307  0.00  0.00    +0.000 A 
ATOM      5  C   UNL     1      -9.009  -2.626 126.510  0.00  0.00    +0.000 A 
ATOM      6  C   UNL     1      -9.250  -3.642 125.624  0.00  0.00    +0.000 A 
ATOM      7  C   UNL     1      -8.448  -3.687 124.493  0.00  0.00    +0.000 A 
ATOM      8  C   UNL     1      -7.388  -2.722 124.268  0.00  0.00    +0.000 A 
ATOM      9  N   UNL     1      -7.930  -0.606 127.152  0.00  0.00    +0.000 N 
ATOM     10  C   UNL     1      -8.149   0.582 126.510  0.00  0.00    +0.000 C 
ATOM     11  O   UNL     1      -8.775   0.645 125.457  0.00  0.00    +0.000 OA
ATOM     12  C   UNL     1      -7.369   1.721 127.069  0.00  0.00    +0.000 C 
ENDROOT
BRANCH   1  16
ATOM     13  C   UNL     1      -5.776   4.052 122.577  0.00  0.00    +0.000 A 
ATOM     14  C   UNL     1      -5.277   4.604 123.760  0.00  0.00    +0.000 A 
ATOM     15  C   UNL     1      -5.415   3.912 124.983  0.00  0.00    +0.000 A 
ATOM     16  C   UNL     1      -6.114   2.695 125.004  0.00  0.00    +0.000 A 
ATOM     17  C   UNL     1      -6.816   2.347 123.859  0.00  0.00    +0.000 A 
ATOM     18  C   UNL     1      -6.563   2.924 122.644  0.00  0.00    +0.000 A 
BRANCH  13  20
ATOM     19  C   UNL     1      -6.191   4.149 120.279  0.00  0.00    +0.000 C 
ATOM     20  O   UNL     1      -5.421   4.617 121.387  0.00  0.00    +0.000 OA
ENDBRANCH  13  20
ENDBRANCH   1  16
BRANCH   9  21
ATOM     21  C   UNL     1      -7.549  -0.749 128.525  0.00  0.00    +0.000 C 
BRANCH  21  22
ATOM     22  C   UNL     1      -6.233  -1.451 128.774  0.00  0.00    +0.000 C 
BRANCH  22  23
ATOM     23  N   UNL     1      -6.363  -2.750 129.429  0.00  0.00    +0.000 NA
ATOM     24  C   UNL     1      -5.028  -3.325 129.656  0.00  0.00    +0.000 C 
ATOM     25  C   UNL     1      -6.995  -2.466 130.725  0.00  0.00    +0.000 C 
ENDBRANCH  22  23
ENDBRANCH  21  22
ENDBRANCH   9  21
BRANCH  12  26
ATOM     26  O   UNL     1      -8.204   2.904 127.077  0.00  0.00    +0.000 OA
BRANCH  26  27
ATOM     27  C   UNL     1      -7.974   3.966 127.920  0.00  0.00    +0.000 C 
ATOM     28  C   UNL     1      -6.932   3.796 129.001  0.00  0.00    +0.000 C 
ATOM     29  O   UNL     1      -8.512   5.038 127.763  0.00  0.00    +0.000 OA
ENDBRANCH  26  27
ENDBRANCH  12  26
TORSDOF 7
ENDMDL
MODEL 8
REMARK VINA RESULT:      -6.3      5.135      7.952
REMARK  Name = Diltiazem
REMARK  11 active torsions:
REMARK  status: ('A' for Active; 'I' for Inactive)
REMARK    1  A    between atoms: C_1  and  O_2
REMARK    2  A    between atoms: O_2  and  C_3
REMARK    3  A    between atoms: C_6  and  C_9
REMARK    4  A    between atoms: N_17  and  C_18
REMARK    5  A    between atoms: C_18  and  C_19
REMARK    6  A    between atoms: C_19  and  N_20
REMARK    7  A    between atoms: N_20  and  C_21
REMARK    8  A    between atoms: N_20  and  C_22
REMARK    9  A    between atoms: C_25  and  O_26
REMARK   10  A    between atoms: O_26  and  C_27
REMARK   11  A    between atoms: C_27  and  C_28
REMARK                            x       y       z     vdW  Elec       q    Type
REMARK                         _______ _______ _______ _____ _____    ______ ____
ROOT
ATOM      1  C   UNL     1      -6.336   0.604 127.161  0.00  0.00    +0.000 C 
ATOM      2  S   UNL     1      -6.733   0.105 129.280  0.00  0.00    +0.000 S 
ATOM      3  C   UNL     1      -8.111   1.195 130.227  0.00  0.00    +0.000 A 
ATOM      4  C   UNL     1      -8.273   2.529 129.849  0.00  0.00    +0.000 A 
ATOM      5  C   UNL     1      -9.185   3.432 130.439  0.00  0.00    +0.000 A 
ATOM      6  C   UNL     1      -9.966   3.075 131.506  0.00  0.00    +0.000 A 
ATOM      7  C   UNL     1      -9.850   1.767 131.954  0.00  0.00    +0.000 A 
ATOM      8  C   UNL     1      -8.929   0.828 131.341  0.00  0.00    +0.000 A 
ATOM      9  N   UNL     1      -7.678   2.924 128.671  0.00  0.00    +0.000 N 
ATOM     10  C   UNL     1      -8.033   2.147 127.602  0.00  0.00    +0.000 C 
ATOM     11  O   UNL     1      -9.086   1.520 127.576  0.00  0.00    +0.000 OA
ATOM     12  C   UNL     1      -6.937   1.949 126.613  0.00  0.00    +0.000 C 
ENDROOT
BRANCH   1  16
ATOM     13  C   UNL     1      -7.601  -2.415 124.373  0.00  0.00    +0.000 A 
ATOM     14  C   UNL     1      -8.342  -2.296 125.553  0.00  0.00    +0.000 A 
ATOM     15  C   UNL     1      -7.946  -1.380 126.552  0.00  0.00    +0.000 A 
ATOM     16  C   UNL     1      -6.768  -0.639 126.372  0.00  0.00    +0.000 A 
ATOM     17  C   UNL     1      -5.943  -1.006 125.318  0.00  0.00    +0.000 A 
ATOM     18  C   UNL     1      -6.388  -1.772 124.276  0.00  0.00    +0.000 A 
BRANCH  13  20
ATOM     19  C   UNL     1      -9.552  -3.266 123.406  0.00  0.00    +0.000 C 
ATOM     20  O   UNL     1      -8.133  -3.120 123.332  0.00  0.00    +0.000 OA
ENDBRANCH  13  20
ENDBRANCH   1  16
BRANCH   9  21
ATOM     21  C   UNL     1      -6.684   3.955 128.654  0.00  0.00    +0.000 C 
BRANCH  21  22
ATOM     22  C   UNL     1      -5.511   3.756 129.587  0.00  0.00    +0.000 C 
BRANCH  22  23
ATOM     23  N   UNL     1      -4.213   4.055 128.988  0.00  0.00    +0.000 NA
ATOM     24  C   UNL     1      -3.313   4.608 130.012  0.00  0.00    +0.000 C 
ATOM     25  C   UNL     1      -3.692   2.758 128.534  0.00  0.00    +0.000 C 
ENDBRANCH  22  23
ENDBRANCH  21  22
ENDBRANCH   9  21
BRANCH  12  26
ATOM     26  O   UNL     1      -7.495   2.003 125.277  0.00  0.00    +0.000 OA
BRANCH  26  27
ATOM     27  C   UNL     1      -7.576   3.170 124.555  0.00  0.00    +0.000 C 
ATOM     28  C   UNL     1      -6.472   3.467 123.568  0.00  0.00    +0.000 C 
ATOM     29  O   UNL     1      -8.534   3.904 124.628  0.00  0.00    +0.000 OA
ENDBRANCH  26  27
ENDBRANCH  12  26
TORSDOF 7
ENDMDL
MODEL 9
REMARK VINA RESULT:      -6.2      6.246      8.791
REMARK  Name = Diltiazem
REMARK  11 active torsions:
REMARK  status: ('A' for Active; 'I' for Inactive)
REMARK    1  A    between atoms: C_1  and  O_2
REMARK    2  A    between atoms: O_2  and  C_3
REMARK    3  A    between atoms: C_6  and  C_9
REMARK    4  A    between atoms: N_17  and  C_18
REMARK    5  A    between atoms: C_18  and  C_19
REMARK    6  A    between atoms: C_19  and  N_20
REMARK    7  A    between atoms: N_20  and  C_21
REMARK    8  A    between atoms: N_20  and  C_22
REMARK    9  A    between atoms: C_25  and  O_26
REMARK   10  A    between atoms: O_26  and  C_27
REMARK   11  A    between atoms: C_27  and  C_28
REMARK                            x       y       z     vdW  Elec       q    Type
REMARK                         _______ _______ _______ _____ _____    ______ ____
ROOT
ATOM      1  C   UNL     1      -5.711  -1.245 127.846  0.00  0.00    +0.000 C 
ATOM      2  S   UNL     1      -4.610  -2.868 128.871  0.00  0.00    +0.000 S 
ATOM      3  C   UNL     1      -5.308  -3.460 130.645  0.00  0.00    +0.000 A 
ATOM      4  C   UNL     1      -5.944  -2.517 131.453  0.00  0.00    +0.000 A 
ATOM      5  C   UNL     1      -6.466  -2.775 132.741  0.00  0.00    +0.000 A 
ATOM      6  C   UNL     1      -6.332  -3.999 133.342  0.00  0.00    +0.000 A 
ATOM      7  C   UNL     1      -5.694  -4.987 132.607  0.00  0.00    +0.000 A 
ATOM      8  C   UNL     1      -5.172  -4.736 131.277  0.00  0.00    +0.000 A 
ATOM      9  N   UNL     1      -6.296  -1.322 130.866  0.00  0.00    +0.000 N 
ATOM     10  C   UNL     1      -7.058  -1.479 129.740  0.00  0.00    +0.000 C 
ATOM     11  O   UNL     1      -7.744  -2.479 129.556  0.00  0.00    +0.000 OA
ATOM     12  C   UNL     1      -6.788  -0.464 128.685  0.00  0.00    +0.000 C 
ENDROOT
BRANCH   1  16
ATOM     13  C   UNL     1      -7.447  -2.347 124.070  0.00  0.00    +0.000 A 
ATOM     14  C   UNL     1      -7.922  -3.016 125.202  0.00  0.00    +0.000 A 
ATOM     15  C   UNL     1      -7.352  -2.765 126.469  0.00  0.00    +0.000 A 
ATOM     16  C   UNL     1      -6.262  -1.886 126.566  0.00  0.00    +0.000 A 
ATOM     17  C   UNL     1      -5.670  -1.477 125.379  0.00  0.00    +0.000 A 
ATOM     18  C   UNL     1      -6.303  -1.589 124.171  0.00  0.00    +0.000 A 
BRANCH  13  20
ATOM     19  C   UNL     1      -9.456  -3.013 123.077  0.00  0.00    +0.000 C 
ATOM     20  O   UNL     1      -8.166  -2.423 122.913  0.00  0.00    +0.000 OA
ENDBRANCH  13  20
ENDBRANCH   1  16
BRANCH   9  21
ATOM     21  C   UNL     1      -5.766  -0.080 131.342  0.00  0.00    +0.000 C 
BRANCH  21  22
ATOM     22  C   UNL     1      -6.691   0.742 132.212  0.00  0.00    +0.000 C 
BRANCH  22  23
ATOM     23  N   UNL     1      -7.619   1.587 131.467  0.00  0.00    +0.000 NA
ATOM     24  C   UNL     1      -8.994   1.104 131.663  0.00  0.00    +0.000 C 
ATOM     25  C   UNL     1      -7.485   2.924 132.065  0.00  0.00    +0.000 C 
ENDBRANCH  22  23
ENDBRANCH  21  22
ENDBRANCH   9  21
BRANCH  12  26
ATOM     26  O   UNL     1      -8.043  -0.079 128.073  0.00  0.00    +0.000 OA
BRANCH  26  27
ATOM     27  C   UNL     1      -8.275   1.190 127.597  0.00  0.00    +0.000 C 
ATOM     28  C   UNL     1      -7.687   1.559 126.255  0.00  0.00    +0.000 C 
ATOM     29  O   UNL     1      -8.996   1.971 128.175  0.00  0.00    +0.000 OA
ENDBRANCH  26  27
ENDBRANCH  12  26
TORSDOF 7
ENDMDL
