MODEL 1
REMARK VINA RESULT:      -5.9      0.000      0.000
REMARK  Name = Dimazole
REMARK  10 active torsions:
REMARK  status: ('A' for Active; 'I' for Inactive)
REMARK    1  A    between atoms: C_1  and  C_2
REMARK    2  A    between atoms: C_2  and  N_3
REMARK    3  A    between atoms: N_3  and  C_4
REMARK    4  A    between atoms: N_3  and  C_6
REMARK    5  A    between atoms: C_4  and  C_5
REMARK    6  A    between atoms: C_6  and  C_7
REMARK    7  A    between atoms: C_7  and  O_8
REMARK    8  A    between atoms: O_8  and  C_9
REMARK    9  A    between atoms: N_18  and  C_19
REMARK   10  A    between atoms: N_18  and  C_20
REMARK                            x       y       z     vdW  Elec       q    Type
REMARK                         _______ _______ _______ _____ _____    ______ ____
ROOT
ATOM      1  C   UNL     1      -8.284   0.588 125.670  0.00  0.00    +0.000 A 
ATOM      2  C   UNL     1      -7.283   1.195 124.913  0.00  0.00    +0.000 A 
ATOM      3  C   UNL     1      -7.656   1.902 123.760  0.00  0.00    +0.000 A 
ATOM      4  C   UNL     1      -8.983   2.045 123.368  0.00  0.00    +0.000 A 
ATOM      5  C   UNL     1      -9.985   1.466 124.174  0.00  0.00    +0.000 A 
ATOM      6  C   UNL     1      -9.626   0.746 125.323  0.00  0.00    +0.000 A 
ATOM      7  N   UNL     1      -9.181   2.757 122.198  0.00  0.00    +0.000 NA
ATOM      8  C   UNL     1      -8.035   3.158 121.674  0.00  0.00    +0.000 A 
ATOM      9  S   UNL     1      -6.659   2.703 122.627  0.00  0.00    +0.000 S 
ATOM     10  N   UNL     1      -7.942   3.856 120.507  0.00  0.00    +0.000 N 
ATOM     11  C   UNL     1      -9.145   4.195 119.763  0.00  0.00    +0.000 C 
ATOM     12  C   UNL     1      -6.682   4.287 119.925  0.00  0.00    +0.000 C 
ENDROOT
BRANCH   1  13
ATOM     13  O   UNL     1      -7.849  -0.100 126.777  0.00  0.00    +0.000 OA
BRANCH  13  14
ATOM     14  C   UNL     1      -8.171  -1.497 126.722  0.00  0.00    +0.000 C 
BRANCH  14  15
ATOM     15  C   UNL     1      -7.001  -2.292 126.099  0.00  0.00    +0.000 C 
BRANCH  15  16
ATOM     16  N   UNL     1      -7.191  -2.665 124.662  0.00  0.00    +0.000 NA
BRANCH  16  18
ATOM     17  C   UNL     1      -4.962  -2.948 123.451  0.00  0.00    +0.000 C 
ATOM     18  C   UNL     1      -6.091  -3.576 124.266  0.00  0.00    +0.000 C 
ENDBRANCH  16  18
BRANCH  16  19
ATOM     19  C   UNL     1      -8.536  -3.244 124.470  0.00  0.00    +0.000 C 
ATOM     20  C   UNL     1      -9.295  -2.834 123.217  0.00  0.00    +0.000 C 
ENDBRANCH  16  19
ENDBRANCH  15  16
ENDBRANCH  14  15
ENDBRANCH  13  14
ENDBRANCH   1  13
TORSDOF 6
ENDMDL
MODEL 2
REMARK VINA RESULT:      -5.7      8.212      9.431
REMARK  Name = Dimazole
REMARK  10 active torsions:
REMARK  status: ('A' for Active; 'I' for Inactive)
REMARK    1  A    between atoms: C_1  and  C_2
REMARK    2  A    between atoms: C_2  and  N_3
REMARK    3  A    between atoms: N_3  and  C_4
REMARK    4  A    between atoms: N_3  and  C_6
REMARK    5  A    between atoms: C_4  and  C_5
REMARK    6  A    between atoms: C_6  and  C_7
REMARK    7  A    between atoms: C_7  and  O_8
REMARK    8  A    between atoms: O_8  and  C_9
REMARK    9  A    between atoms: N_18  and  C_19
REMARK   10  A    between atoms: N_18  and  C_20
REMARK                            x       y       z     vdW  Elec       q    Type
REMARK                         _______ _______ _______ _____ _____    ______ ____
ROOT
ATOM      1  C   UNL     1      -8.135   5.805 133.071  0.00  0.00    +0.000 A 
ATOM      2  C   UNL     1      -9.498   5.771 132.782  0.00  0.00    +0.000 A 
ATOM      3  C   UNL     1      -9.936   6.315 131.565  0.00  0.00    +0.000 A 
ATOM      4  C   UNL     1      -9.058   6.854 130.630  0.00  0.00    +0.000 A 
ATOM      5  C   UNL     1      -7.678   6.835 130.918  0.00  0.00    +0.000 A 
ATOM      6  C   UNL     1      -7.227   6.305 132.136  0.00  0.00    +0.000 A 
ATOM      7  N   UNL     1      -9.651   7.364 129.488  0.00  0.00    +0.000 NA
ATOM      8  C   UNL     1     -10.967   7.240 129.528  0.00  0.00    +0.000 A 
ATOM      9  S   UNL     1     -11.529   6.451 130.966  0.00  0.00    +0.000 S 
ATOM     10  N   UNL     1     -11.797   7.685 128.542  0.00  0.00    +0.000 N 
ATOM     11  C   UNL     1     -11.246   8.344 127.368  0.00  0.00    +0.000 C 
ATOM     12  C   UNL     1     -13.245   7.560 128.591  0.00  0.00    +0.000 C 
ENDROOT
BRANCH   1  13
ATOM     13  O   UNL     1      -7.776   5.270 134.284  0.00  0.00    +0.000 OA
BRANCH  13  14
ATOM     14  C   UNL     1      -8.225   3.917 134.447  0.00  0.00    +0.000 C 
BRANCH  14  15
ATOM     15  C   UNL     1      -7.279   2.946 133.704  0.00  0.00    +0.000 C 
BRANCH  15  16
ATOM     16  N   UNL     1      -7.949   2.070 132.692  0.00  0.00    +0.000 NA
BRANCH  16  18
ATOM     17  C   UNL     1      -9.097   2.822 130.540  0.00  0.00    +0.000 C 
ATOM     18  C   UNL     1      -7.814   2.705 131.360  0.00  0.00    +0.000 C 
ENDBRANCH  16  18
BRANCH  16  19
ATOM     19  C   UNL     1      -7.382   0.708 132.757  0.00  0.00    +0.000 C 
ATOM     20  C   UNL     1      -8.229  -0.424 132.196  0.00  0.00    +0.000 C 
ENDBRANCH  16  19
ENDBRANCH  15  16
ENDBRANCH  14  15
ENDBRANCH  13  14
ENDBRANCH   1  13
TORSDOF 6
ENDMDL
MODEL 3
REMARK VINA RESULT:      -5.6      8.283     10.872
REMARK  Name = Dimazole
REMARK  10 active torsions:
REMARK  status: ('A' for Active; 'I' for Inactive)
REMARK    1  A    between atoms: C_1  and  C_2
REMARK    2  A    between atoms: C_2  and  N_3
REMARK    3  A    between atoms: N_3  and  C_4
REMARK    4  A    between atoms: N_3  and  C_6
REMARK    5  A    between atoms: C_4  and  C_5
REMARK    6  A    between atoms: C_6  and  C_7
REMARK    7  A    between atoms: C_7  and  O_8
REMARK    8  A    between atoms: O_8  and  C_9
REMARK    9  A    between atoms: N_18  and  C_19
REMARK   10  A    between atoms: N_18  and  C_20
REMARK                            x       y       z     vdW  Elec       q    Type
REMARK                         _______ _______ _______ _____ _____    ______ ____
ROOT
ATOM      1  C   UNL     1      -9.970   5.535 130.027  0.00  0.00    +0.000 A 
ATOM      2  C   UNL     1      -9.209   4.376 130.176  0.00  0.00    +0.000 A 
ATOM      3  C   UNL     1      -7.916   4.491 130.707  0.00  0.00    +0.000 A 
ATOM      4  C   UNL     1      -7.383   5.709 131.116  0.00  0.00    +0.000 A 
ATOM      5  C   UNL     1      -8.185   6.863 131.003  0.00  0.00    +0.000 A 
ATOM      6  C   UNL     1      -9.476   6.765 130.463  0.00  0.00    +0.000 A 
ATOM      7  N   UNL     1      -6.088   5.655 131.602  0.00  0.00    +0.000 NA
ATOM      8  C   UNL     1      -5.608   4.423 131.566  0.00  0.00    +0.000 A 
ATOM      9  S   UNL     1      -6.752   3.267 130.964  0.00  0.00    +0.000 S 
ATOM     10  N   UNL     1      -4.346   4.093 131.962  0.00  0.00    +0.000 N 
ATOM     11  C   UNL     1      -3.442   5.123 132.451  0.00  0.00    +0.000 C 
ATOM     12  C   UNL     1      -3.813   2.741 131.911  0.00  0.00    +0.000 C 
ENDROOT
BRANCH   1  13
ATOM     13  O   UNL     1     -11.220   5.353 129.488  0.00  0.00    +0.000 OA
BRANCH  13  14
ATOM     14  C   UNL     1     -12.158   6.351 129.917  0.00  0.00    +0.000 C 
BRANCH  14  15
ATOM     15  C   UNL     1     -12.908   6.939 128.701  0.00  0.00    +0.000 C 
BRANCH  15  16
ATOM     16  N   UNL     1     -12.575   8.365 128.389  0.00  0.00    +0.000 NA
BRANCH  16  18
ATOM     17  C   UNL     1     -13.422  10.501 129.502  0.00  0.00    +0.000 C 
ATOM     18  C   UNL     1     -12.703   9.159 129.634  0.00  0.00    +0.000 C 
ENDBRANCH  16  18
BRANCH  16  19
ATOM     19  C   UNL     1     -11.234   8.442 127.775  0.00  0.00    +0.000 C 
ATOM     20  C   UNL     1     -10.993   7.604 126.528  0.00  0.00    +0.000 C 
ENDBRANCH  16  19
ENDBRANCH  15  16
ENDBRANCH  14  15
ENDBRANCH  13  14
ENDBRANCH   1  13
TORSDOF 6
ENDMDL
MODEL 4
REMARK VINA RESULT:      -5.6      8.198     10.482
REMARK  Name = Dimazole
REMARK  10 active torsions:
REMARK  status: ('A' for Active; 'I' for Inactive)
REMARK    1  A    between atoms: C_1  and  C_2
REMARK    2  A    between atoms: C_2  and  N_3
REMARK    3  A    between atoms: N_3  and  C_4
REMARK    4  A    between atoms: N_3  and  C_6
REMARK    5  A    between atoms: C_4  and  C_5
REMARK    6  A    between atoms: C_6  and  C_7
REMARK    7  A    between atoms: C_7  and  O_8
REMARK    8  A    between atoms: O_8  and  C_9
REMARK    9  A    between atoms: N_18  and  C_19
REMARK   10  A    between atoms: N_18  and  C_20
REMARK                            x       y       z     vdW  Elec       q    Type
REMARK                         _______ _______ _______ _____ _____    ______ ____
ROOT
ATOM      1  C   UNL     1     -10.935   5.605 131.321  0.00  0.00    +0.000 A 
ATOM      2  C   UNL     1      -9.810   6.389 131.574  0.00  0.00    +0.000 A 
ATOM      3  C   UNL     1      -8.571   5.957 131.076  0.00  0.00    +0.000 A 
ATOM      4  C   UNL     1      -8.434   4.799 130.318  0.00  0.00    +0.000 A 
ATOM      5  C   UNL     1      -9.590   4.045 130.031  0.00  0.00    +0.000 A 
ATOM      6  C   UNL     1     -10.834   4.458 130.532  0.00  0.00    +0.000 A 
ATOM      7  N   UNL     1      -7.142   4.504 129.918  0.00  0.00    +0.000 NA
ATOM      8  C   UNL     1      -6.280   5.404 130.360  0.00  0.00    +0.000 A 
ATOM      9  S   UNL     1      -7.034   6.679 131.261  0.00  0.00    +0.000 S 
ATOM     10  N   UNL     1      -4.937   5.339 130.132  0.00  0.00    +0.000 N 
ATOM     11  C   UNL     1      -4.380   4.232 129.370  0.00  0.00    +0.000 C 
ATOM     12  C   UNL     1      -3.987   6.321 130.628  0.00  0.00    +0.000 C 
ENDROOT
BRANCH   1  13
ATOM     13  O   UNL     1     -12.112   6.077 131.848  0.00  0.00    +0.000 OA
BRANCH  13  14
ATOM     14  C   UNL     1     -12.474   7.365 131.330  0.00  0.00    +0.000 C 
BRANCH  14  15
ATOM     15  C   UNL     1     -13.038   7.226 129.898  0.00  0.00    +0.000 C 
BRANCH  15  16
ATOM     16  N   UNL     1     -12.403   8.128 128.884  0.00  0.00    +0.000 NA
BRANCH  16  18
ATOM     17  C   UNL     1     -10.876   7.864 126.855  0.00  0.00    +0.000 C 
ATOM     18  C   UNL     1     -12.017   7.312 127.709  0.00  0.00    +0.000 C 
ENDBRANCH  16  18
BRANCH  16  19
ATOM     19  C   UNL     1     -13.323   9.236 128.557  0.00  0.00    +0.000 C 
ATOM     20  C   UNL     1     -13.330  10.432 129.497  0.00  0.00    +0.000 C 
ENDBRANCH  16  19
ENDBRANCH  15  16
ENDBRANCH  14  15
ENDBRANCH  13  14
ENDBRANCH   1  13
TORSDOF 6
ENDMDL
MODEL 5
REMARK VINA RESULT:      -5.5     10.910     12.422
REMARK  Name = Dimazole
REMARK  10 active torsions:
REMARK  status: ('A' for Active; 'I' for Inactive)
REMARK    1  A    between atoms: C_1  and  C_2
REMARK    2  A    between atoms: C_2  and  N_3
REMARK    3  A    between atoms: N_3  and  C_4
REMARK    4  A    between atoms: N_3  and  C_6
REMARK    5  A    between atoms: C_4  and  C_5
REMARK    6  A    between atoms: C_6  and  C_7
REMARK    7  A    between atoms: C_7  and  O_8
REMARK    8  A    between atoms: O_8  and  C_9
REMARK    9  A    between atoms: N_18  and  C_19
REMARK   10  A    between atoms: N_18  and  C_20
REMARK                            x       y       z     vdW  Elec       q    Type
REMARK                         _______ _______ _______ _____ _____    ______ ____
ROOT
ATOM      1  C   UNL     1      -7.918   5.501 133.535  0.00  0.00    +0.000 A 
ATOM      2  C   UNL     1      -9.274   5.543 133.212  0.00  0.00    +0.000 A 
ATOM      3  C   UNL     1      -9.654   6.157 132.009  0.00  0.00    +0.000 A 
ATOM      4  C   UNL     1      -8.728   6.694 131.120  0.00  0.00    +0.000 A 
ATOM      5  C   UNL     1      -7.359   6.598 131.440  0.00  0.00    +0.000 A 
ATOM      6  C   UNL     1      -6.964   5.996 132.645  0.00  0.00    +0.000 A 
ATOM      7  N   UNL     1      -9.266   7.280 129.988  0.00  0.00    +0.000 NA
ATOM      8  C   UNL     1     -10.587   7.216 129.990  0.00  0.00    +0.000 A 
ATOM      9  S   UNL     1     -11.223   6.394 131.378  0.00  0.00    +0.000 S 
ATOM     10  N   UNL     1     -11.370   7.741 129.005  0.00  0.00    +0.000 N 
ATOM     11  C   UNL     1     -10.759   8.422 127.874  0.00  0.00    +0.000 C 
ATOM     12  C   UNL     1     -12.823   7.682 129.013  0.00  0.00    +0.000 C 
ENDROOT
BRANCH   1  13
ATOM     13  O   UNL     1      -7.616   4.898 134.732  0.00  0.00    +0.000 OA
BRANCH  13  14
ATOM     14  C   UNL     1      -6.871   5.754 135.610  0.00  0.00    +0.000 C 
BRANCH  14  15
ATOM     15  C   UNL     1      -7.825   6.484 136.582  0.00  0.00    +0.000 C 
BRANCH  15  16
ATOM     16  N   UNL     1      -7.143   7.265 137.662  0.00  0.00    +0.000 NA
BRANCH  16  18
ATOM     17  C   UNL     1      -5.427   9.133 137.370  0.00  0.00    +0.000 C 
ATOM     18  C   UNL     1      -5.801   7.665 137.174  0.00  0.00    +0.000 C 
ENDBRANCH  16  18
BRANCH  16  19
ATOM     19  C   UNL     1      -7.989   8.406 138.064  0.00  0.00    +0.000 C 
ATOM     20  C   UNL     1      -9.347   8.535 137.390  0.00  0.00    +0.000 C 
ENDBRANCH  16  19
ENDBRANCH  15  16
ENDBRANCH  14  15
ENDBRANCH  13  14
ENDBRANCH   1  13
TORSDOF 6
ENDMDL
MODEL 6
REMARK VINA RESULT:      -5.5      3.628      7.272
REMARK  Name = Dimazole
REMARK  10 active torsions:
REMARK  status: ('A' for Active; 'I' for Inactive)
REMARK    1  A    between atoms: C_1  and  C_2
REMARK    2  A    between atoms: C_2  and  N_3
REMARK    3  A    between atoms: N_3  and  C_4
REMARK    4  A    between atoms: N_3  and  C_6
REMARK    5  A    between atoms: C_4  and  C_5
REMARK    6  A    between atoms: C_6  and  C_7
REMARK    7  A    between atoms: C_7  and  O_8
REMARK    8  A    between atoms: O_8  and  C_9
REMARK    9  A    between atoms: N_18  and  C_19
REMARK   10  A    between atoms: N_18  and  C_20
REMARK                            x       y       z     vdW  Elec       q    Type
REMARK                         _______ _______ _______ _____ _____    ______ ____
ROOT
ATOM      1  C   UNL     1      -9.045  -2.467 126.225  0.00  0.00    +0.000 A 
ATOM      2  C   UNL     1      -8.069  -1.591 126.696  0.00  0.00    +0.000 A 
ATOM      3  C   UNL     1      -7.418  -1.903 127.899  0.00  0.00    +0.000 A 
ATOM      4  C   UNL     1      -7.688  -3.065 128.615  0.00  0.00    +0.000 A 
ATOM      5  C   UNL     1      -8.643  -3.963 128.096  0.00  0.00    +0.000 A 
ATOM      6  C   UNL     1      -9.311  -3.659 126.900  0.00  0.00    +0.000 A 
ATOM      7  N   UNL     1      -6.973  -3.216 129.789  0.00  0.00    +0.000 NA
ATOM      8  C   UNL     1      -6.164  -2.191 130.000  0.00  0.00    +0.000 A 
ATOM      9  S   UNL     1      -6.225  -1.009 128.733  0.00  0.00    +0.000 S 
ATOM     10  N   UNL     1      -5.364  -2.074 131.098  0.00  0.00    +0.000 N 
ATOM     11  C   UNL     1      -5.375  -3.109 132.121  0.00  0.00    +0.000 C 
ATOM     12  C   UNL     1      -4.484  -0.942 131.337  0.00  0.00    +0.000 C 
ENDROOT
BRANCH   1  13
ATOM     13  O   UNL     1      -9.653  -2.094 125.050  0.00  0.00    +0.000 OA
BRANCH  13  14
ATOM     14  C   UNL     1      -9.185  -2.846 123.922  0.00  0.00    +0.000 C 
BRANCH  14  15
ATOM     15  C   UNL     1      -8.612  -1.897 122.846  0.00  0.00    +0.000 C 
BRANCH  15  16
ATOM     16  N   UNL     1      -7.119  -1.776 122.848  0.00  0.00    +0.000 NA
BRANCH  16  18
ATOM     17  C   UNL     1      -7.902   0.545 123.566  0.00  0.00    +0.000 C 
ATOM     18  C   UNL     1      -6.757  -0.455 123.412  0.00  0.00    +0.000 C 
ENDBRANCH  16  18
BRANCH  16  19
ATOM     19  C   UNL     1      -6.527  -2.914 123.580  0.00  0.00    +0.000 C 
ATOM     20  C   UNL     1      -5.289  -2.631 124.417  0.00  0.00    +0.000 C 
ENDBRANCH  16  19
ENDBRANCH  15  16
ENDBRANCH  14  15
ENDBRANCH  13  14
ENDBRANCH   1  13
TORSDOF 6
ENDMDL
MODEL 7
REMARK VINA RESULT:      -5.5      3.897      5.475
REMARK  Name = Dimazole
REMARK  10 active torsions:
REMARK  status: ('A' for Active; 'I' for Inactive)
REMARK    1  A    between atoms: C_1  and  C_2
REMARK    2  A    between atoms: C_2  and  N_3
REMARK    3  A    between atoms: N_3  and  C_4
REMARK    4  A    between atoms: N_3  and  C_6
REMARK    5  A    between atoms: C_4  and  C_5
REMARK    6  A    between atoms: C_6  and  C_7
REMARK    7  A    between atoms: C_7  and  O_8
REMARK    8  A    between atoms: O_8  and  C_9
REMARK    9  A    between atoms: N_18  and  C_19
REMARK   10  A    between atoms: N_18  and  C_20
REMARK                            x       y       z     vdW  Elec       q    Type
REMARK                         _______ _______ _______ _____ _____    ______ ____
ROOT
ATOM      1  C   UNL     1      -7.990   3.193 123.593  0.00  0.00    +0.000 A 
ATOM      2  C   UNL     1      -8.053   3.348 124.977  0.00  0.00    +0.000 A 
ATOM      3  C   UNL     1      -6.886   3.724 125.659  0.00  0.00    +0.000 A 
ATOM      4  C   UNL     1      -5.686   3.977 125.002  0.00  0.00    +0.000 A 
ATOM      5  C   UNL     1      -5.655   3.863 123.597  0.00  0.00    +0.000 A 
ATOM      6  C   UNL     1      -6.811   3.477 122.903  0.00  0.00    +0.000 A 
ATOM      7  N   UNL     1      -4.625   4.321 125.821  0.00  0.00    +0.000 NA
ATOM      8  C   UNL     1      -4.978   4.329 127.095  0.00  0.00    +0.000 A 
ATOM      9  S   UNL     1      -6.652   3.947 127.336  0.00  0.00    +0.000 S 
ATOM     10  N   UNL     1      -4.117   4.609 128.115  0.00  0.00    +0.000 N 
ATOM     11  C   UNL     1      -2.724   4.915 127.830  0.00  0.00    +0.000 C 
ATOM     12  C   UNL     1      -4.502   4.605 129.517  0.00  0.00    +0.000 C 
ENDROOT
BRANCH   1  13
ATOM     13  O   UNL     1      -9.164   2.810 122.990  0.00  0.00    +0.000 OA
BRANCH  13  14
ATOM     14  C   UNL     1      -9.840   1.767 123.707  0.00  0.00    +0.000 C 
BRANCH  14  15
ATOM     15  C   UNL     1      -9.679   0.418 122.969  0.00  0.00    +0.000 C 
BRANCH  15  16
ATOM     16  N   UNL     1      -9.333  -0.741 123.851  0.00  0.00    +0.000 NA
BRANCH  16  18
ATOM     17  C   UNL     1      -9.445  -3.272 123.536  0.00  0.00    +0.000 C 
ATOM     18  C   UNL     1      -9.026  -1.908 122.991  0.00  0.00    +0.000 C 
ENDBRANCH  16  18
BRANCH  16  19
ATOM     19  C   UNL     1      -8.228  -0.368 124.757  0.00  0.00    +0.000 C 
ATOM     20  C   UNL     1      -6.828  -0.333 124.166  0.00  0.00    +0.000 C 
ENDBRANCH  16  19
ENDBRANCH  15  16
ENDBRANCH  14  15
ENDBRANCH  13  14
ENDBRANCH   1  13
TORSDOF 6
ENDMDL
MODEL 8
REMARK VINA RESULT:      -5.4      4.073      5.669
REMARK  Name = Dimazole
REMARK  10 active torsions:
REMARK  status: ('A' for Active; 'I' for Inactive)
REMARK    1  A    between atoms: C_1  and  C_2
REMARK    2  A    between atoms: C_2  and  N_3
REMARK    3  A    between atoms: N_3  and  C_4
REMARK    4  A    between atoms: N_3  and  C_6
REMARK    5  A    between atoms: C_4  and  C_5
REMARK    6  A    between atoms: C_6  and  C_7
REMARK    7  A    between atoms: C_7  and  O_8
REMARK    8  A    between atoms: O_8  and  C_9
REMARK    9  A    between atoms: N_18  and  C_19
REMARK   10  A    between atoms: N_18  and  C_20
REMARK                            x       y       z     vdW  Elec       q    Type
REMARK                         _______ _______ _______ _____ _____    ______ ____
ROOT
ATOM      1  C   UNL     1      -8.024  -3.099 128.092  0.00  0.00    +0.000 A 
ATOM      2  C   UNL     1      -7.744  -1.744 127.918  0.00  0.00    +0.000 A 
ATOM      3  C   UNL     1      -8.259  -1.097 126.785  0.00  0.00    +0.000 A 
ATOM      4  C   UNL     1      -9.062  -1.747 125.854  0.00  0.00    +0.000 A 
ATOM      5  C   UNL     1      -9.375  -3.104 126.072  0.00  0.00    +0.000 A 
ATOM      6  C   UNL     1      -8.857  -3.768 127.195  0.00  0.00    +0.000 A 
ATOM      7  N   UNL     1      -9.475  -0.972 124.784  0.00  0.00    +0.000 NA
ATOM      8  C   UNL     1      -9.000   0.259 124.866  0.00  0.00    +0.000 A 
ATOM      9  S   UNL     1      -8.049   0.525 126.292  0.00  0.00    +0.000 S 
ATOM     10  N   UNL     1      -9.233   1.222 123.929  0.00  0.00    +0.000 N 
ATOM     11  C   UNL     1     -10.038   0.918 122.756  0.00  0.00    +0.000 C 
ATOM     12  C   UNL     1      -8.701   2.572 124.012  0.00  0.00    +0.000 C 
ENDROOT
BRANCH   1  13
ATOM     13  O   UNL     1      -7.477  -3.674 129.213  0.00  0.00    +0.000 OA
BRANCH  13  14
ATOM     14  C   UNL     1      -7.118  -2.709 130.212  0.00  0.00    +0.000 C 
BRANCH  14  15
ATOM     15  C   UNL     1      -6.479  -3.412 131.430  0.00  0.00    +0.000 C 
BRANCH  15  16
ATOM     16  N   UNL     1      -5.271  -4.239 131.115  0.00  0.00    +0.000 NA
BRANCH  16  18
ATOM     17  C   UNL     1      -3.572  -3.678 129.295  0.00  0.00    +0.000 C 
ATOM     18  C   UNL     1      -4.194  -3.335 130.648  0.00  0.00    +0.000 C 
ENDBRANCH  16  18
BRANCH  16  19
ATOM     19  C   UNL     1      -4.896  -5.045 132.294  0.00  0.00    +0.000 C 
ATOM     20  C   UNL     1      -5.843  -5.016 133.484  0.00  0.00    +0.000 C 
ENDBRANCH  16  19
ENDBRANCH  15  16
ENDBRANCH  14  15
ENDBRANCH  13  14
ENDBRANCH   1  13
TORSDOF 6
ENDMDL
MODEL 9
REMARK VINA RESULT:      -5.4      4.825      8.553
REMARK  Name = Dimazole
REMARK  10 active torsions:
REMARK  status: ('A' for Active; 'I' for Inactive)
REMARK    1  A    between atoms: C_1  and  C_2
REMARK    2  A    between atoms: C_2  and  N_3
REMARK    3  A    between atoms: N_3  and  C_4
REMARK    4  A    between atoms: N_3  and  C_6
REMARK    5  A    between atoms: C_4  and  C_5
REMARK    6  A    between atoms: C_6  and  C_7
REMARK    7  A    between atoms: C_7  and  O_8
REMARK    8  A    between atoms: O_8  and  C_9
REMARK    9  A    between atoms: N_18  and  C_19
REMARK   10  A    between atoms: N_18  and  C_20
REMARK                            x       y       z     vdW  Elec       q    Type
REMARK                         _______ _______ _______ _____ _____    ______ ____
ROOT
ATOM      1  C   UNL     1      -6.321  -1.932 127.494  0.00  0.00    +0.000 A 
ATOM      2  C   UNL     1      -5.135  -2.180 128.185  0.00  0.00    +0.000 A 
ATOM      3  C   UNL     1      -5.203  -2.898 129.388  0.00  0.00    +0.000 A 
ATOM      4  C   UNL     1      -6.399  -3.396 129.895  0.00  0.00    +0.000 A 
ATOM      5  C   UNL     1      -7.580  -3.178 129.157  0.00  0.00    +0.000 A 
ATOM      6  C   UNL     1      -7.530  -2.451 127.958  0.00  0.00    +0.000 A 
ATOM      7  N   UNL     1      -6.297  -4.068 131.100  0.00  0.00    +0.000 NA
ATOM      8  C   UNL     1      -5.050  -4.090 131.539  0.00  0.00    +0.000 A 
ATOM      9  S   UNL     1      -3.938  -3.311 130.460  0.00  0.00    +0.000 S 
ATOM     10  N   UNL     1      -4.674  -4.664 132.717  0.00  0.00    +0.000 N 
ATOM     11  C   UNL     1      -5.670  -5.294 133.571  0.00  0.00    +0.000 C 
ATOM     12  C   UNL     1      -3.305  -4.678 133.206  0.00  0.00    +0.000 C 
ENDROOT
BRANCH   1  13
ATOM     13  O   UNL     1      -6.186  -1.212 126.332  0.00  0.00    +0.000 OA
BRANCH  13  14
ATOM     14  C   UNL     1      -7.431  -1.035 125.643  0.00  0.00    +0.000 C 
BRANCH  14  15
ATOM     15  C   UNL     1      -7.183  -0.843 124.129  0.00  0.00    +0.000 C 
BRANCH  15  16
ATOM     16  N   UNL     1      -7.148  -2.111 123.334  0.00  0.00    +0.000 NA
BRANCH  16  18
ATOM     17  C   UNL     1      -5.286  -3.711 124.031  0.00  0.00    +0.000 C 
ATOM     18  C   UNL     1      -5.734  -2.526 123.177  0.00  0.00    +0.000 C 
ENDBRANCH  16  18
BRANCH  16  19
ATOM     19  C   UNL     1      -7.995  -3.131 123.983  0.00  0.00    +0.000 C 
ATOM     20  C   UNL     1      -9.424  -3.269 123.479  0.00  0.00    +0.000 C 
ENDBRANCH  16  19
ENDBRANCH  15  16
ENDBRANCH  14  15
ENDBRANCH  13  14
ENDBRANCH   1  13
TORSDOF 6
ENDMDL
