MODEL 1
REMARK VINA RESULT:      -4.2      0.000      0.000
REMARK  Name = Dimercaptosuccinic acid
REMARK  7 active torsions:
REMARK  status: ('A' for Active; 'I' for Inactive)
REMARK    1  A    between atoms: O_1  and  C_2
REMARK    2  A    between atoms: C_2  and  C_4
REMARK    3  A    between atoms: C_4  and  S_5
REMARK    4  A    between atoms: C_4  and  C_6
REMARK    5  A    between atoms: C_6  and  S_7
REMARK    6  A    between atoms: C_6  and  C_8
REMARK    7  A    between atoms: C_8  and  O_9
REMARK                            x       y       z     vdW  Elec       q    Type
REMARK                         _______ _______ _______ _____ _____    ______ ____
ROOT
ATOM      1  C   UNL     1     -12.187   8.023 129.726  0.00  0.00    +0.000 C 
ENDROOT
BRANCH   1   2
ATOM      2  C   UNL     1     -12.882   9.380 129.637  0.00  0.00    +0.000 C 
ATOM      3  O   UNL     1     -13.157  10.089 130.596  0.00  0.00    +0.000 OA
BRANCH   2   4
ATOM      4  O   UNL     1     -13.187   9.772 128.376  0.00  0.00    +0.000 OA
ATOM      5  H   UNL     1     -12.726  10.571 128.054  0.00  0.00    +0.000 HD
ENDBRANCH   2   4
ENDBRANCH   1   2
BRANCH   1   6
ATOM      6  S   UNL     1     -13.245   6.808 128.804  0.00  0.00    +0.000 S 
ATOM      7  H   UNL     1     -13.276   5.840 129.743  0.00  0.00    +0.000 HD
ENDBRANCH   1   6
BRANCH   1   8
ATOM      8  C   UNL     1     -10.738   8.055 129.203  0.00  0.00    +0.000 C 
BRANCH   8   9
ATOM      9  S   UNL     1      -9.612   6.954 130.207  0.00  0.00    +0.000 S 
ATOM     10  H   UNL     1      -8.538   6.970 129.405  0.00  0.00    +0.000 HD
ENDBRANCH   8   9
BRANCH   8  11
ATOM     11  C   UNL     1     -10.527   7.649 127.736  0.00  0.00    +0.000 C 
ATOM     12  O   UNL     1     -10.903   8.340 126.796  0.00  0.00    +0.000 OA
BRANCH  11  13
ATOM     13  O   UNL     1      -9.882   6.488 127.492  0.00  0.00    +0.000 OA
ATOM     14  H   UNL     1      -8.918   6.510 127.345  0.00  0.00    +0.000 HD
ENDBRANCH  11  13
ENDBRANCH   8  11
ENDBRANCH   1   8
TORSDOF 7
ENDMDL
MODEL 2
REMARK VINA RESULT:      -4.1      2.245      3.010
REMARK  Name = Dimercaptosuccinic acid
REMARK  7 active torsions:
REMARK  status: ('A' for Active; 'I' for Inactive)
REMARK    1  A    between atoms: O_1  and  C_2
REMARK    2  A    between atoms: C_2  and  C_4
REMARK    3  A    between atoms: C_4  and  S_5
REMARK    4  A    between atoms: C_4  and  C_6
REMARK    5  A    between atoms: C_6  and  S_7
REMARK    6  A    between atoms: C_6  and  C_8
REMARK    7  A    between atoms: C_8  and  O_9
REMARK                            x       y       z     vdW  Elec       q    Type
REMARK                         _______ _______ _______ _____ _____    ______ ____
ROOT
ATOM      1  C   UNL     1     -11.419   7.347 129.959  0.00  0.00    +0.000 C 
ENDROOT
BRANCH   1   2
ATOM      2  C   UNL     1     -12.190   6.787 131.153  0.00  0.00    +0.000 C 
ATOM      3  O   UNL     1     -13.257   7.223 131.563  0.00  0.00    +0.000 OA
BRANCH   2   4
ATOM      4  O   UNL     1     -11.596   5.729 131.758  0.00  0.00    +0.000 OA
ATOM      5  H   UNL     1     -12.191   5.002 132.027  0.00  0.00    +0.000 HD
ENDBRANCH   2   4
ENDBRANCH   1   2
BRANCH   1   6
ATOM      6  S   UNL     1     -10.066   6.137 129.568  0.00  0.00    +0.000 S 
ATOM      7  H   UNL     1      -9.273   6.969 128.863  0.00  0.00    +0.000 HD
ENDBRANCH   1   6
BRANCH   1   8
ATOM      8  C   UNL     1     -12.321   7.633 128.743  0.00  0.00    +0.000 C 
BRANCH   8   9
ATOM      9  S   UNL     1     -13.096   9.329 128.836  0.00  0.00    +0.000 S 
ATOM     10  H   UNL     1     -13.464   9.318 130.124  0.00  0.00    +0.000 HD
ENDBRANCH   8   9
BRANCH   8  11
ATOM     11  C   UNL     1     -11.658   7.547 127.360  0.00  0.00    +0.000 C 
ATOM     12  O   UNL     1     -10.831   8.364 126.968  0.00  0.00    +0.000 OA
BRANCH  11  13
ATOM     13  O   UNL     1     -11.999   6.512 126.562  0.00  0.00    +0.000 OA
ATOM     14  H   UNL     1     -12.792   6.596 125.999  0.00  0.00    +0.000 HD
ENDBRANCH  11  13
ENDBRANCH   8  11
ENDBRANCH   1   8
TORSDOF 7
ENDMDL
MODEL 3
REMARK VINA RESULT:      -4.1      2.402      3.284
REMARK  Name = Dimercaptosuccinic acid
REMARK  7 active torsions:
REMARK  status: ('A' for Active; 'I' for Inactive)
REMARK    1  A    between atoms: O_1  and  C_2
REMARK    2  A    between atoms: C_2  and  C_4
REMARK    3  A    between atoms: C_4  and  S_5
REMARK    4  A    between atoms: C_4  and  C_6
REMARK    5  A    between atoms: C_6  and  S_7
REMARK    6  A    between atoms: C_6  and  C_8
REMARK    7  A    between atoms: C_8  and  O_9
REMARK                            x       y       z     vdW  Elec       q    Type
REMARK                         _______ _______ _______ _____ _____    ______ ____
ROOT
ATOM      1  C   UNL     1     -11.439   6.336 129.484  0.00  0.00    +0.000 C 
ENDROOT
BRANCH   1   2
ATOM      2  C   UNL     1      -9.934   6.560 129.346  0.00  0.00    +0.000 C 
ATOM      3  O   UNL     1      -9.322   7.507 129.821  0.00  0.00    +0.000 OA
BRANCH   2   4
ATOM      4  O   UNL     1      -9.287   5.604 128.635  0.00  0.00    +0.000 OA
ATOM      5  H   UNL     1      -8.643   5.065 129.134  0.00  0.00    +0.000 HD
ENDBRANCH   2   4
ENDBRANCH   1   2
BRANCH   1   6
ATOM      6  S   UNL     1     -11.871   6.627 131.266  0.00  0.00    +0.000 S 
ATOM      7  H   UNL     1     -12.303   7.899 131.145  0.00  0.00    +0.000 HD
ENDBRANCH   1   6
BRANCH   1   8
ATOM      8  C   UNL     1     -12.267   7.216 128.527  0.00  0.00    +0.000 C 
BRANCH   8   9
ATOM      9  S   UNL     1     -12.588   8.911 129.245  0.00  0.00    +0.000 S 
ATOM     10  H   UNL     1     -11.974   9.650 128.311  0.00  0.00    +0.000 HD
ENDBRANCH   8   9
BRANCH   8  11
ATOM     11  C   UNL     1     -11.677   7.455 127.129  0.00  0.00    +0.000 C 
ATOM     12  O   UNL     1     -10.941   8.401 126.871  0.00  0.00    +0.000 OA
BRANCH  11  13
ATOM     13  O   UNL     1     -11.980   6.566 126.158  0.00  0.00    +0.000 OA
ATOM     14  H   UNL     1     -12.402   5.723 126.411  0.00  0.00    +0.000 HD
ENDBRANCH  11  13
ENDBRANCH   8  11
ENDBRANCH   1   8
TORSDOF 7
ENDMDL
MODEL 4
REMARK VINA RESULT:      -4.1      1.776      2.140
REMARK  Name = Dimercaptosuccinic acid
REMARK  7 active torsions:
REMARK  status: ('A' for Active; 'I' for Inactive)
REMARK    1  A    between atoms: O_1  and  C_2
REMARK    2  A    between atoms: C_2  and  C_4
REMARK    3  A    between atoms: C_4  and  S_5
REMARK    4  A    between atoms: C_4  and  C_6
REMARK    5  A    between atoms: C_6  and  S_7
REMARK    6  A    between atoms: C_6  and  C_8
REMARK    7  A    between atoms: C_8  and  O_9
REMARK                            x       y       z     vdW  Elec       q    Type
REMARK                         _______ _______ _______ _____ _____    ______ ____
ROOT
ATOM      1  C   UNL     1     -12.008   6.678 129.752  0.00  0.00    +0.000 C 
ENDROOT
BRANCH   1   2
ATOM      2  C   UNL     1     -12.439   6.953 131.192  0.00  0.00    +0.000 C 
ATOM      3  O   UNL     1     -13.079   7.931 131.555  0.00  0.00    +0.000 OA
BRANCH   2   4
ATOM      4  O   UNL     1     -12.057   6.006 132.083  0.00  0.00    +0.000 OA
ATOM      5  H   UNL     1     -11.826   6.329 132.976  0.00  0.00    +0.000 HD
ENDBRANCH   2   4
ENDBRANCH   1   2
BRANCH   1   6
ATOM      6  S   UNL     1     -13.501   6.930 128.678  0.00  0.00    +0.000 S 
ATOM      7  H   UNL     1     -13.644   8.258 128.870  0.00  0.00    +0.000 HD
ENDBRANCH   1   6
BRANCH   1   8
ATOM      8  C   UNL     1     -10.813   7.544 129.308  0.00  0.00    +0.000 C 
BRANCH   8   9
ATOM      9  S   UNL     1      -9.246   7.083 130.215  0.00  0.00    +0.000 S 
ATOM     10  H   UNL     1      -8.563   8.221 130.037  0.00  0.00    +0.000 HD
ENDBRANCH   8   9
BRANCH   8  11
ATOM     11  C   UNL     1     -10.459   7.514 127.814  0.00  0.00    +0.000 C 
ATOM     12  O   UNL     1     -10.743   8.427 127.046  0.00  0.00    +0.000 OA
BRANCH  11  13
ATOM     13  O   UNL     1      -9.793   6.436 127.346  0.00  0.00    +0.000 OA
ATOM     14  H   UNL     1      -9.299   6.518 126.509  0.00  0.00    +0.000 HD
ENDBRANCH  11  13
ENDBRANCH   8  11
ENDBRANCH   1   8
TORSDOF 7
ENDMDL
MODEL 5
REMARK VINA RESULT:      -4.0      2.393      2.970
REMARK  Name = Dimercaptosuccinic acid
REMARK  7 active torsions:
REMARK  status: ('A' for Active; 'I' for Inactive)
REMARK    1  A    between atoms: O_1  and  C_2
REMARK    2  A    between atoms: C_2  and  C_4
REMARK    3  A    between atoms: C_4  and  S_5
REMARK    4  A    between atoms: C_4  and  C_6
REMARK    5  A    between atoms: C_6  and  S_7
REMARK    6  A    between atoms: C_6  and  C_8
REMARK    7  A    between atoms: C_8  and  O_9
REMARK                            x       y       z     vdW  Elec       q    Type
REMARK                         _______ _______ _______ _____ _____    ______ ____
ROOT
ATOM      1  C   UNL     1     -11.840   8.119 128.291  0.00  0.00    +0.000 C 
ENDROOT
BRANCH   1   2
ATOM      2  C   UNL     1     -12.602   7.137 127.403  0.00  0.00    +0.000 C 
ATOM      3  O   UNL     1     -13.743   6.747 127.611  0.00  0.00    +0.000 OA
BRANCH   2   4
ATOM      4  O   UNL     1     -11.910   6.707 126.320  0.00  0.00    +0.000 OA
ATOM      5  H   UNL     1     -12.195   7.070 125.459  0.00  0.00    +0.000 HD
ENDBRANCH   2   4
ENDBRANCH   1   2
BRANCH   1   6
ATOM      6  S   UNL     1     -13.055   9.409 128.845  0.00  0.00    +0.000 S 
ATOM      7  H   UNL     1     -13.378   8.861 130.033  0.00  0.00    +0.000 HD
ENDBRANCH   1   6
BRANCH   1   8
ATOM      8  C   UNL     1     -11.133   7.431 129.476  0.00  0.00    +0.000 C 
BRANCH   8   9
ATOM      9  S   UNL     1     -12.307   7.108 130.892  0.00  0.00    +0.000 S 
ATOM     10  H   UNL     1     -13.154   6.275 130.273  0.00  0.00    +0.000 HD
ENDBRANCH   8   9
BRANCH   8  11
ATOM     11  C   UNL     1     -10.446   6.089 129.182  0.00  0.00    +0.000 C 
ATOM     12  O   UNL     1     -10.754   5.047 129.752  0.00  0.00    +0.000 OA
BRANCH  11  13
ATOM     13  O   UNL     1      -9.478   6.071 128.241  0.00  0.00    +0.000 OA
ATOM     14  H   UNL     1      -8.589   5.753 128.490  0.00  0.00    +0.000 HD
ENDBRANCH  11  13
ENDBRANCH   8  11
ENDBRANCH   1   8
TORSDOF 7
ENDMDL
MODEL 6
REMARK VINA RESULT:      -4.0      1.865      4.109
REMARK  Name = Dimercaptosuccinic acid
REMARK  7 active torsions:
REMARK  status: ('A' for Active; 'I' for Inactive)
REMARK    1  A    between atoms: O_1  and  C_2
REMARK    2  A    between atoms: C_2  and  C_4
REMARK    3  A    between atoms: C_4  and  S_5
REMARK    4  A    between atoms: C_4  and  C_6
REMARK    5  A    between atoms: C_6  and  S_7
REMARK    6  A    between atoms: C_6  and  C_8
REMARK    7  A    between atoms: C_8  and  O_9
REMARK                            x       y       z     vdW  Elec       q    Type
REMARK                         _______ _______ _______ _____ _____    ______ ____
ROOT
ATOM      1  C   UNL     1     -10.766   6.815 129.149  0.00  0.00    +0.000 C 
ENDROOT
BRANCH   1   2
ATOM      2  C   UNL     1     -10.407   7.338 127.759  0.00  0.00    +0.000 C 
ATOM      3  O   UNL     1      -9.989   6.648 126.839  0.00  0.00    +0.000 OA
BRANCH   2   4
ATOM      4  O   UNL     1     -10.589   8.671 127.597  0.00  0.00    +0.000 OA
ATOM      5  H   UNL     1      -9.914   9.132 127.062  0.00  0.00    +0.000 HD
ENDBRANCH   2   4
ENDBRANCH   1   2
BRANCH   1   6
ATOM      6  S   UNL     1      -9.314   7.163 130.254  0.00  0.00    +0.000 S 
ATOM      7  H   UNL     1      -9.922   6.932 131.435  0.00  0.00    +0.000 HD
ENDBRANCH   1   6
BRANCH   1   8
ATOM      8  C   UNL     1     -12.076   7.414 129.696  0.00  0.00    +0.000 C 
BRANCH   8   9
ATOM      9  S   UNL     1     -13.532   7.025 128.591  0.00  0.00    +0.000 S 
ATOM     10  H   UNL     1     -13.195   7.776 127.534  0.00  0.00    +0.000 HD
ENDBRANCH   8   9
BRANCH   8  11
ATOM     11  C   UNL     1     -12.493   6.983 131.110  0.00  0.00    +0.000 C 
ATOM     12  O   UNL     1     -13.211   7.669 131.829  0.00  0.00    +0.000 OA
BRANCH  11  13
ATOM     13  O   UNL     1     -12.054   5.786 131.557  0.00  0.00    +0.000 OA
ATOM     14  H   UNL     1     -12.711   5.118 131.829  0.00  0.00    +0.000 HD
ENDBRANCH  11  13
ENDBRANCH   8  11
ENDBRANCH   1   8
TORSDOF 7
ENDMDL
MODEL 7
REMARK VINA RESULT:      -3.8      9.793     11.373
REMARK  Name = Dimercaptosuccinic acid
REMARK  7 active torsions:
REMARK  status: ('A' for Active; 'I' for Inactive)
REMARK    1  A    between atoms: O_1  and  C_2
REMARK    2  A    between atoms: C_2  and  C_4
REMARK    3  A    between atoms: C_4  and  S_5
REMARK    4  A    between atoms: C_4  and  C_6
REMARK    5  A    between atoms: C_6  and  S_7
REMARK    6  A    between atoms: C_6  and  C_8
REMARK    7  A    between atoms: C_8  and  O_9
REMARK                            x       y       z     vdW  Elec       q    Type
REMARK                         _______ _______ _______ _____ _____    ______ ____
ROOT
ATOM      1  C   UNL     1      -8.538  -0.262 123.651  0.00  0.00    +0.000 C 
ENDROOT
BRANCH   1   2
ATOM      2  C   UNL     1      -9.721   0.469 123.018  0.00  0.00    +0.000 C 
ATOM      3  O   UNL     1     -10.638  -0.074 122.417  0.00  0.00    +0.000 OA
BRANCH   2   4
ATOM      4  O   UNL     1      -9.695   1.815 123.171  0.00  0.00    +0.000 OA
ATOM      5  H   UNL     1      -9.955   2.339 122.388  0.00  0.00    +0.000 HD
ENDBRANCH   2   4
ENDBRANCH   1   2
BRANCH   1   6
ATOM      6  S   UNL     1      -8.940  -0.495 125.449  0.00  0.00    +0.000 S 
ATOM      7  H   UNL     1      -9.233   0.789 125.739  0.00  0.00    +0.000 HD
ENDBRANCH   1   6
BRANCH   1   8
ATOM      8  C   UNL     1      -8.209  -1.593 122.947  0.00  0.00    +0.000 C 
BRANCH   8   9
ATOM      9  S   UNL     1      -6.370  -1.912 122.888  0.00  0.00    +0.000 S 
ATOM     10  H   UNL     1      -5.943  -0.755 123.411  0.00  0.00    +0.000 HD
ENDBRANCH   8   9
BRANCH   8  11
ATOM     11  C   UNL     1      -8.839  -2.861 123.543  0.00  0.00    +0.000 C 
ATOM     12  O   UNL     1      -8.200  -3.671 124.206  0.00  0.00    +0.000 OA
BRANCH  11  13
ATOM     13  O   UNL     1     -10.156  -3.068 123.332  0.00  0.00    +0.000 OA
ATOM     14  H   UNL     1     -10.483  -3.111 122.413  0.00  0.00    +0.000 HD
ENDBRANCH  11  13
ENDBRANCH   8  11
ENDBRANCH   1   8
TORSDOF 7
ENDMDL
MODEL 8
REMARK VINA RESULT:      -3.8      3.165      4.302
REMARK  Name = Dimercaptosuccinic acid
REMARK  7 active torsions:
REMARK  status: ('A' for Active; 'I' for Inactive)
REMARK    1  A    between atoms: O_1  and  C_2
REMARK    2  A    between atoms: C_2  and  C_4
REMARK    3  A    between atoms: C_4  and  S_5
REMARK    4  A    between atoms: C_4  and  C_6
REMARK    5  A    between atoms: C_6  and  S_7
REMARK    6  A    between atoms: C_6  and  C_8
REMARK    7  A    between atoms: C_8  and  O_9
REMARK                            x       y       z     vdW  Elec       q    Type
REMARK                         _______ _______ _______ _____ _____    ______ ____
ROOT
ATOM      1  C   UNL     1     -10.197   6.289 130.475  0.00  0.00    +0.000 C 
ENDROOT
BRANCH   1   2
ATOM      2  C   UNL     1      -9.593   6.405 131.873  0.00  0.00    +0.000 C 
ATOM      3  O   UNL     1      -8.400   6.533 132.111  0.00  0.00    +0.000 OA
BRANCH   2   4
ATOM      4  O   UNL     1     -10.498   6.356 132.881  0.00  0.00    +0.000 OA
ATOM      5  H   UNL     1     -10.502   5.536 133.412  0.00  0.00    +0.000 HD
ENDBRANCH   2   4
ENDBRANCH   1   2
BRANCH   1   6
ATOM      6  S   UNL     1     -11.036   4.635 130.379  0.00  0.00    +0.000 S 
ATOM      7  H   UNL     1     -12.076   5.001 129.603  0.00  0.00    +0.000 HD
ENDBRANCH   1   6
BRANCH   1   8
ATOM      8  C   UNL     1     -11.151   7.452 130.136  0.00  0.00    +0.000 C 
BRANCH   8   9
ATOM      9  S   UNL     1     -10.991   7.984 128.353  0.00  0.00    +0.000 S 
ATOM     10  H   UNL     1     -11.545   9.200 128.450  0.00  0.00    +0.000 HD
ENDBRANCH   8   9
BRANCH   8  11
ATOM     11  C   UNL     1     -12.649   7.203 130.369  0.00  0.00    +0.000 C 
ATOM     12  O   UNL     1     -13.148   7.160 131.489  0.00  0.00    +0.000 OA
BRANCH  11  13
ATOM     13  O   UNL     1     -13.437   7.043 129.284  0.00  0.00    +0.000 OA
ATOM     14  H   UNL     1     -14.324   7.449 129.286  0.00  0.00    +0.000 HD
ENDBRANCH  11  13
ENDBRANCH   8  11
ENDBRANCH   1   8
TORSDOF 7
ENDMDL
MODEL 9
REMARK VINA RESULT:      -3.7      2.121      3.709
REMARK  Name = Dimercaptosuccinic acid
REMARK  7 active torsions:
REMARK  status: ('A' for Active; 'I' for Inactive)
REMARK    1  A    between atoms: O_1  and  C_2
REMARK    2  A    between atoms: C_2  and  C_4
REMARK    3  A    between atoms: C_4  and  S_5
REMARK    4  A    between atoms: C_4  and  C_6
REMARK    5  A    between atoms: C_6  and  S_7
REMARK    6  A    between atoms: C_6  and  C_8
REMARK    7  A    between atoms: C_8  and  O_9
REMARK                            x       y       z     vdW  Elec       q    Type
REMARK                         _______ _______ _______ _____ _____    ______ ____
ROOT
ATOM      1  C   UNL     1     -11.358   7.015 129.515  0.00  0.00    +0.000 C 
ENDROOT
BRANCH   1   2
ATOM      2  C   UNL     1      -9.931   6.842 130.033  0.00  0.00    +0.000 C 
ATOM      3  O   UNL     1      -9.040   7.673 129.918  0.00  0.00    +0.000 OA
BRANCH   2   4
ATOM      4  O   UNL     1      -9.700   5.662 130.658  0.00  0.00    +0.000 OA
ATOM      5  H   UNL     1     -10.481   5.230 131.055  0.00  0.00    +0.000 HD
ENDBRANCH   2   4
ENDBRANCH   1   2
BRANCH   1   6
ATOM      6  S   UNL     1     -12.458   7.195 131.000  0.00  0.00    +0.000 S 
ATOM      7  H   UNL     1     -12.312   5.947 131.489  0.00  0.00    +0.000 HD
ENDBRANCH   1   6
BRANCH   1   8
ATOM      8  C   UNL     1     -11.501   8.194 128.533  0.00  0.00    +0.000 C 
BRANCH   8   9
ATOM      9  S   UNL     1     -10.986   7.722 126.801  0.00  0.00    +0.000 S 
ATOM     10  H   UNL     1     -11.873   6.742 126.581  0.00  0.00    +0.000 HD
ENDBRANCH   8   9
BRANCH   8  11
ATOM     11  C   UNL     1     -12.900   8.815 128.402  0.00  0.00    +0.000 C 
ATOM     12  O   UNL     1     -13.850   8.214 127.913  0.00  0.00    +0.000 OA
BRANCH  11  13
ATOM     13  O   UNL     1     -13.077  10.070 128.868  0.00  0.00    +0.000 OA
ATOM     14  H   UNL     1     -13.773  10.229 129.533  0.00  0.00    +0.000 HD
ENDBRANCH  11  13
ENDBRANCH   8  11
ENDBRANCH   1   8
TORSDOF 7
ENDMDL
