MODEL 1
REMARK VINA RESULT:      -4.4      0.000      0.000
REMARK  Name = Dimethyl fumarate
REMARK  6 active torsions:
REMARK  status: ('A' for Active; 'I' for Inactive)
REMARK    1  A    between atoms: C_2  and  C_9
REMARK    2  A    between atoms: C_3  and  C_5
REMARK    3  A    between atoms: C_5  and  O_7
REMARK    4  A    between atoms: O_7  and  C_8
REMARK    5  A    between atoms: C_9  and  O_11
REMARK    6  A    between atoms: O_11  and  C_12
REMARK                            x       y       z     vdW  Elec       q    Type
REMARK                         _______ _______ _______ _____ _____    ______ ____
ROOT
ATOM      1  C   UNL     1     -12.263   8.255 129.990  0.00  0.00    +0.000 C 
ATOM      2  C   UNL     1     -12.537   7.438 131.022  0.00  0.00    +0.000 C 
ENDROOT
BRANCH   2   3
ATOM      3  C   UNL     1     -11.645   6.282 131.306  0.00  0.00    +0.000 C 
ATOM      4  O   UNL     1     -11.612   5.259 130.638  0.00  0.00    +0.000 OA
BRANCH   3   5
ATOM      5  O   UNL     1     -10.881   6.532 132.403  0.00  0.00    +0.000 OA
ATOM      6  C   UNL     1      -9.489   6.199 132.252  0.00  0.00    +0.000 C 
ENDBRANCH   3   5
ENDBRANCH   2   3
BRANCH   1   7
ATOM      7  C   UNL     1     -13.040   9.447 129.566  0.00  0.00    +0.000 C 
ATOM      8  O   UNL     1     -13.499   9.544 128.436  0.00  0.00    +0.000 OA
BRANCH   7   9
ATOM      9  O   UNL     1     -13.170  10.372 130.548  0.00  0.00    +0.000 OA
ATOM     10  C   UNL     1     -13.667  11.647 130.107  0.00  0.00    +0.000 C 
ENDBRANCH   7   9
ENDBRANCH   1   7
TORSDOF 4
ENDMDL
MODEL 2
REMARK VINA RESULT:      -4.4      2.918      4.992
REMARK  Name = Dimethyl fumarate
REMARK  6 active torsions:
REMARK  status: ('A' for Active; 'I' for Inactive)
REMARK    1  A    between atoms: C_2  and  C_9
REMARK    2  A    between atoms: C_3  and  C_5
REMARK    3  A    between atoms: C_5  and  O_7
REMARK    4  A    between atoms: O_7  and  C_8
REMARK    5  A    between atoms: C_9  and  O_11
REMARK    6  A    between atoms: O_11  and  C_12
REMARK                            x       y       z     vdW  Elec       q    Type
REMARK                         _______ _______ _______ _____ _____    ______ ____
ROOT
ATOM      1  C   UNL     1     -10.210   6.894 129.107  0.00  0.00    +0.000 C 
ATOM      2  C   UNL     1     -10.465   7.804 128.150  0.00  0.00    +0.000 C 
ENDROOT
BRANCH   2   3
ATOM      3  C   UNL     1     -11.268   7.416 126.959  0.00  0.00    +0.000 C 
ATOM      4  O   UNL     1     -10.982   7.719 125.809  0.00  0.00    +0.000 OA
BRANCH   3   5
ATOM      5  O   UNL     1     -12.351   6.685 127.336  0.00  0.00    +0.000 OA
ATOM      6  C   UNL     1     -13.514   7.466 127.669  0.00  0.00    +0.000 C 
ENDBRANCH   3   5
ENDBRANCH   2   3
BRANCH   1   7
ATOM      7  C   UNL     1      -9.431   7.106 130.353  0.00  0.00    +0.000 C 
ATOM      8  O   UNL     1      -8.268   7.483 130.325  0.00  0.00    +0.000 OA
BRANCH   7   9
ATOM      9  O   UNL     1     -10.144   6.841 131.476  0.00  0.00    +0.000 OA
ATOM     10  C   UNL     1     -11.406   6.193 131.242  0.00  0.00    +0.000 C 
ENDBRANCH   7   9
ENDBRANCH   1   7
TORSDOF 4
ENDMDL
MODEL 3
REMARK VINA RESULT:      -4.3      2.974      3.603
REMARK  Name = Dimethyl fumarate
REMARK  6 active torsions:
REMARK  status: ('A' for Active; 'I' for Inactive)
REMARK    1  A    between atoms: C_2  and  C_9
REMARK    2  A    between atoms: C_3  and  C_5
REMARK    3  A    between atoms: C_5  and  O_7
REMARK    4  A    between atoms: O_7  and  C_8
REMARK    5  A    between atoms: C_9  and  O_11
REMARK    6  A    between atoms: O_11  and  C_12
REMARK                            x       y       z     vdW  Elec       q    Type
REMARK                         _______ _______ _______ _____ _____    ______ ____
ROOT
ATOM      1  C   UNL     1     -10.709   7.696 128.079  0.00  0.00    +0.000 C 
ATOM      2  C   UNL     1     -10.035   6.786 128.805  0.00  0.00    +0.000 C 
ENDROOT
BRANCH   2   3
ATOM      3  C   UNL     1      -9.519   7.151 130.151  0.00  0.00    +0.000 C 
ATOM      4  O   UNL     1      -8.344   7.386 130.396  0.00  0.00    +0.000 OA
BRANCH   3   5
ATOM      5  O   UNL     1     -10.535   7.185 131.054  0.00  0.00    +0.000 OA
ATOM      6  C   UNL     1     -10.478   6.154 132.057  0.00  0.00    +0.000 C 
ENDBRANCH   3   5
ENDBRANCH   2   3
BRANCH   1   7
ATOM      7  C   UNL     1     -11.291   7.503 126.726  0.00  0.00    +0.000 C 
ATOM      8  O   UNL     1     -10.787   8.012 125.734  0.00  0.00    +0.000 OA
BRANCH   7   9
ATOM      9  O   UNL     1     -12.402   6.726 126.733  0.00  0.00    +0.000 OA
ATOM     10  C   UNL     1     -13.428   7.158 127.643  0.00  0.00    +0.000 C 
ENDBRANCH   7   9
ENDBRANCH   1   7
TORSDOF 4
ENDMDL
MODEL 4
REMARK VINA RESULT:      -4.3      2.426      3.011
REMARK  Name = Dimethyl fumarate
REMARK  6 active torsions:
REMARK  status: ('A' for Active; 'I' for Inactive)
REMARK    1  A    between atoms: C_2  and  C_9
REMARK    2  A    between atoms: C_3  and  C_5
REMARK    3  A    between atoms: C_5  and  O_7
REMARK    4  A    between atoms: O_7  and  C_8
REMARK    5  A    between atoms: C_9  and  O_11
REMARK    6  A    between atoms: O_11  and  C_12
REMARK                            x       y       z     vdW  Elec       q    Type
REMARK                         _______ _______ _______ _____ _____    ______ ____
ROOT
ATOM      1  C   UNL     1     -10.168   7.959 128.880  0.00  0.00    +0.000 C 
ATOM      2  C   UNL     1     -10.409   7.255 130.001  0.00  0.00    +0.000 C 
ENDROOT
BRANCH   2   3
ATOM      3  C   UNL     1      -9.292   6.950 130.935  0.00  0.00    +0.000 C 
ATOM      4  O   UNL     1      -9.439   6.463 132.047  0.00  0.00    +0.000 OA
BRANCH   3   5
ATOM      5  O   UNL     1      -8.100   7.287 130.373  0.00  0.00    +0.000 OA
ATOM      6  C   UNL     1      -6.946   6.915 131.150  0.00  0.00    +0.000 C 
ENDBRANCH   3   5
ENDBRANCH   2   3
BRANCH   1   7
ATOM      7  C   UNL     1     -11.157   8.351 127.845  0.00  0.00    +0.000 C 
ATOM      8  O   UNL     1     -10.911   8.244 126.651  0.00  0.00    +0.000 OA
BRANCH   7   9
ATOM      9  O   UNL     1     -12.315   8.822 128.369  0.00  0.00    +0.000 OA
ATOM     10  C   UNL     1     -13.478   8.042 128.046  0.00  0.00    +0.000 C 
ENDBRANCH   7   9
ENDBRANCH   1   7
TORSDOF 4
ENDMDL
MODEL 5
REMARK VINA RESULT:      -4.2      1.206      2.308
REMARK  Name = Dimethyl fumarate
REMARK  6 active torsions:
REMARK  status: ('A' for Active; 'I' for Inactive)
REMARK    1  A    between atoms: C_2  and  C_9
REMARK    2  A    between atoms: C_3  and  C_5
REMARK    3  A    between atoms: C_5  and  O_7
REMARK    4  A    between atoms: O_7  and  C_8
REMARK    5  A    between atoms: C_9  and  O_11
REMARK    6  A    between atoms: O_11  and  C_12
REMARK                            x       y       z     vdW  Elec       q    Type
REMARK                         _______ _______ _______ _____ _____    ______ ____
ROOT
ATOM      1  C   UNL     1     -12.242   8.008 129.844  0.00  0.00    +0.000 C 
ATOM      2  C   UNL     1     -12.397   7.511 131.085  0.00  0.00    +0.000 C 
ENDROOT
BRANCH   2   3
ATOM      3  C   UNL     1     -11.499   6.426 131.562  0.00  0.00    +0.000 C 
ATOM      4  O   UNL     1     -10.795   6.504 132.559  0.00  0.00    +0.000 OA
BRANCH   3   5
ATOM      5  O   UNL     1     -11.578   5.349 130.735  0.00  0.00    +0.000 OA
ATOM      6  C   UNL     1     -10.307   4.773 130.380  0.00  0.00    +0.000 C 
ENDBRANCH   3   5
ENDBRANCH   2   3
BRANCH   1   7
ATOM      7  C   UNL     1     -13.043   9.085 129.209  0.00  0.00    +0.000 C 
ATOM      8  O   UNL     1     -13.106  10.206 129.694  0.00  0.00    +0.000 OA
BRANCH   7   9
ATOM      9  O   UNL     1     -13.667   8.683 128.075  0.00  0.00    +0.000 OA
ATOM     10  C   UNL     1     -13.383   7.328 127.685  0.00  0.00    +0.000 C 
ENDBRANCH   7   9
ENDBRANCH   1   7
TORSDOF 4
ENDMDL
MODEL 6
REMARK VINA RESULT:      -4.1      2.197      5.154
REMARK  Name = Dimethyl fumarate
REMARK  6 active torsions:
REMARK  status: ('A' for Active; 'I' for Inactive)
REMARK    1  A    between atoms: C_2  and  C_9
REMARK    2  A    between atoms: C_3  and  C_5
REMARK    3  A    between atoms: C_5  and  O_7
REMARK    4  A    between atoms: O_7  and  C_8
REMARK    5  A    between atoms: C_9  and  O_11
REMARK    6  A    between atoms: O_11  and  C_12
REMARK                            x       y       z     vdW  Elec       q    Type
REMARK                         _______ _______ _______ _____ _____    ______ ____
ROOT
ATOM      1  C   UNL     1     -10.006   6.903 129.927  0.00  0.00    +0.000 C 
ATOM      2  C   UNL     1     -10.392   7.878 129.084  0.00  0.00    +0.000 C 
ENDROOT
BRANCH   2   3
ATOM      3  C   UNL     1     -11.567   7.664 128.196  0.00  0.00    +0.000 C 
ATOM      4  O   UNL     1     -11.849   6.594 127.676  0.00  0.00    +0.000 OA
BRANCH   3   5
ATOM      5  O   UNL     1     -12.269   8.820 128.054  0.00  0.00    +0.000 OA
ATOM      6  C   UNL     1     -12.847   9.323 129.273  0.00  0.00    +0.000 C 
ENDBRANCH   3   5
ENDBRANCH   2   3
BRANCH   1   7
ATOM      7  C   UNL     1      -8.866   6.946 130.876  0.00  0.00    +0.000 C 
ATOM      8  O   UNL     1      -7.752   7.306 130.522  0.00  0.00    +0.000 OA
BRANCH   7   9
ATOM      9  O   UNL     1      -9.203   6.552 132.128  0.00  0.00    +0.000 OA
ATOM     10  C   UNL     1      -8.175   5.826 132.824  0.00  0.00    +0.000 C 
ENDBRANCH   7   9
ENDBRANCH   1   7
TORSDOF 4
ENDMDL
MODEL 7
REMARK VINA RESULT:      -4.0      1.578      4.836
REMARK  Name = Dimethyl fumarate
REMARK  6 active torsions:
REMARK  status: ('A' for Active; 'I' for Inactive)
REMARK    1  A    between atoms: C_2  and  C_9
REMARK    2  A    between atoms: C_3  and  C_5
REMARK    3  A    between atoms: C_5  and  O_7
REMARK    4  A    between atoms: O_7  and  C_8
REMARK    5  A    between atoms: C_9  and  O_11
REMARK    6  A    between atoms: O_11  and  C_12
REMARK                            x       y       z     vdW  Elec       q    Type
REMARK                         _______ _______ _______ _____ _____    ______ ____
ROOT
ATOM      1  C   UNL     1     -11.171   7.836 129.439  0.00  0.00    +0.000 C 
ATOM      2  C   UNL     1     -12.504   7.950 129.296  0.00  0.00    +0.000 C 
ENDROOT
BRANCH   2   3
ATOM      3  C   UNL     1     -13.131   9.298 129.280  0.00  0.00    +0.000 C 
ATOM      4  O   UNL     1     -13.694   9.783 128.308  0.00  0.00    +0.000 OA
BRANCH   3   5
ATOM      5  O   UNL     1     -12.987   9.902 130.490  0.00  0.00    +0.000 OA
ATOM      6  C   UNL     1     -13.485  11.252 130.549  0.00  0.00    +0.000 C 
ENDBRANCH   3   5
ENDBRANCH   2   3
BRANCH   1   7
ATOM      7  C   UNL     1     -10.384   6.578 129.476  0.00  0.00    +0.000 C 
ATOM      8  O   UNL     1     -10.922   5.482 129.395  0.00  0.00    +0.000 OA
BRANCH   7   9
ATOM      9  O   UNL     1      -9.051   6.790 129.605  0.00  0.00    +0.000 OA
ATOM     10  C   UNL     1      -8.587   6.865 130.964  0.00  0.00    +0.000 C 
ENDBRANCH   7   9
ENDBRANCH   1   7
TORSDOF 4
ENDMDL
MODEL 8
REMARK VINA RESULT:      -4.0      2.437      3.550
REMARK  Name = Dimethyl fumarate
REMARK  6 active torsions:
REMARK  status: ('A' for Active; 'I' for Inactive)
REMARK    1  A    between atoms: C_2  and  C_9
REMARK    2  A    between atoms: C_3  and  C_5
REMARK    3  A    between atoms: C_5  and  O_7
REMARK    4  A    between atoms: O_7  and  C_8
REMARK    5  A    between atoms: C_9  and  O_11
REMARK    6  A    between atoms: O_11  and  C_12
REMARK                            x       y       z     vdW  Elec       q    Type
REMARK                         _______ _______ _______ _____ _____    ______ ____
ROOT
ATOM      1  C   UNL     1     -12.223   7.977 129.530  0.00  0.00    +0.000 C 
ATOM      2  C   UNL     1     -10.993   7.451 129.384  0.00  0.00    +0.000 C 
ENDROOT
BRANCH   2   3
ATOM      3  C   UNL     1     -10.470   7.167 128.021  0.00  0.00    +0.000 C 
ATOM      4  O   UNL     1      -9.623   6.321 127.772  0.00  0.00    +0.000 OA
BRANCH   3   5
ATOM      5  O   UNL     1     -11.066   7.978 127.107  0.00  0.00    +0.000 OA
ATOM      6  C   UNL     1     -11.931   7.299 126.177  0.00  0.00    +0.000 C 
ENDBRANCH   3   5
ENDBRANCH   2   3
BRANCH   1   7
ATOM      7  C   UNL     1     -12.898   8.321 130.807  0.00  0.00    +0.000 C 
ATOM      8  O   UNL     1     -13.176   7.465 131.635  0.00  0.00    +0.000 OA
BRANCH   7   9
ATOM      9  O   UNL     1     -13.155   9.647 130.930  0.00  0.00    +0.000 OA
ATOM     10  C   UNL     1     -13.288  10.348 129.682  0.00  0.00    +0.000 C 
ENDBRANCH   7   9
ENDBRANCH   1   7
TORSDOF 4
ENDMDL
MODEL 9
REMARK VINA RESULT:      -4.0      2.549      3.147
REMARK  Name = Dimethyl fumarate
REMARK  6 active torsions:
REMARK  status: ('A' for Active; 'I' for Inactive)
REMARK    1  A    between atoms: C_2  and  C_9
REMARK    2  A    between atoms: C_3  and  C_5
REMARK    3  A    between atoms: C_5  and  O_7
REMARK    4  A    between atoms: O_7  and  C_8
REMARK    5  A    between atoms: C_9  and  O_11
REMARK    6  A    between atoms: O_11  and  C_12
REMARK                            x       y       z     vdW  Elec       q    Type
REMARK                         _______ _______ _______ _____ _____    ______ ____
ROOT
ATOM      1  C   UNL     1     -11.347   7.224 130.289  0.00  0.00    +0.000 C 
ATOM      2  C   UNL     1     -10.436   6.724 131.144  0.00  0.00    +0.000 C 
ENDROOT
BRANCH   2   3
ATOM      3  C   UNL     1      -8.987   6.887 130.856  0.00  0.00    +0.000 C 
ATOM      4  O   UNL     1      -8.537   7.614 129.980  0.00  0.00    +0.000 OA
BRANCH   3   5
ATOM      5  O   UNL     1      -8.247   6.120 131.700  0.00  0.00    +0.000 OA
ATOM      6  C   UNL     1      -8.875   5.848 132.967  0.00  0.00    +0.000 C 
ENDBRANCH   3   5
ENDBRANCH   2   3
BRANCH   1   7
ATOM      7  C   UNL     1     -12.824   7.153 130.419  0.00  0.00    +0.000 C 
ATOM      8  O   UNL     1     -13.374   7.190 131.511  0.00  0.00    +0.000 OA
BRANCH   7   9
ATOM      9  O   UNL     1     -13.457   7.046 129.224  0.00  0.00    +0.000 OA
ATOM     10  C   UNL     1     -12.582   7.041 128.084  0.00  0.00    +0.000 C 
ENDBRANCH   7   9
ENDBRANCH   1   7
TORSDOF 4
ENDMDL
