MODEL 1
REMARK VINA RESULT:      -2.6      0.000      0.000
REMARK  Name = Dimethyl sulfoxide
REMARK  2 active torsions:
REMARK  status: ('A' for Active; 'I' for Inactive)
REMARK    1  A    between atoms: C_1  and  S_2
REMARK    2  A    between atoms: S_2  and  C_3
REMARK                            x       y       z     vdW  Elec       q    Type
REMARK                         _______ _______ _______ _____ _____    ______ ____
ROOT
ATOM      1  C   UNL     1     -12.691   7.096 127.115  0.00  0.00    +0.000 C 
ATOM      2  S   UNL     1     -11.061   7.675 126.588  0.00  0.00    +0.000 S 
ATOM      3  C   UNL     1     -10.541   8.431 128.146  0.00  0.00    +0.000 C 
ATOM      4  O   UNL     1     -10.204   6.460 126.372  0.00  0.00    +0.000 OA
ENDROOT
TORSDOF 0
ENDMDL
MODEL 2
REMARK VINA RESULT:      -2.5      1.012      2.181
REMARK  Name = Dimethyl sulfoxide
REMARK  2 active torsions:
REMARK  status: ('A' for Active; 'I' for Inactive)
REMARK    1  A    between atoms: C_1  and  S_2
REMARK    2  A    between atoms: S_2  and  C_3
REMARK                            x       y       z     vdW  Elec       q    Type
REMARK                         _______ _______ _______ _____ _____    ______ ____
ROOT
ATOM      1  C   UNL     1     -10.586   8.494 128.054  0.00  0.00    +0.000 C 
ATOM      2  S   UNL     1     -10.964   7.332 126.722  0.00  0.00    +0.000 S 
ATOM      3  C   UNL     1     -12.729   7.126 127.054  0.00  0.00    +0.000 C 
ATOM      4  O   UNL     1     -10.837   8.082 125.426  0.00  0.00    +0.000 OA
ENDROOT
TORSDOF 0
ENDMDL
MODEL 3
REMARK VINA RESULT:      -2.3      2.225      2.225
REMARK  Name = Dimethyl sulfoxide
REMARK  2 active torsions:
REMARK  status: ('A' for Active; 'I' for Inactive)
REMARK    1  A    between atoms: C_1  and  S_2
REMARK    2  A    between atoms: S_2  and  C_3
REMARK                            x       y       z     vdW  Elec       q    Type
REMARK                         _______ _______ _______ _____ _____    ______ ____
ROOT
ATOM      1  C   UNL     1     -13.026   8.770 128.513  0.00  0.00    +0.000 C 
ATOM      2  S   UNL     1     -12.589   7.277 127.592  0.00  0.00    +0.000 S 
ATOM      3  C   UNL     1     -11.013   7.846 126.912  0.00  0.00    +0.000 C 
ATOM      4  O   UNL     1     -12.281   6.205 128.600  0.00  0.00    +0.000 OA
ENDROOT
TORSDOF 0
ENDMDL
MODEL 4
REMARK VINA RESULT:      -2.2      4.154      4.154
REMARK  Name = Dimethyl sulfoxide
REMARK  2 active torsions:
REMARK  status: ('A' for Active; 'I' for Inactive)
REMARK    1  A    between atoms: C_1  and  S_2
REMARK    2  A    between atoms: S_2  and  C_3
REMARK                            x       y       z     vdW  Elec       q    Type
REMARK                         _______ _______ _______ _____ _____    ______ ____
ROOT
ATOM      1  C   UNL     1     -12.700   8.949 129.610  0.00  0.00    +0.000 C 
ATOM      2  S   UNL     1     -12.686   7.233 130.180  0.00  0.00    +0.000 S 
ATOM      3  C   UNL     1     -10.895   7.016 130.301  0.00  0.00    +0.000 C 
ATOM      4  O   UNL     1     -13.234   7.224 131.579  0.00  0.00    +0.000 OA
ENDROOT
TORSDOF 0
ENDMDL
MODEL 5
REMARK VINA RESULT:      -2.2      2.281      2.739
REMARK  Name = Dimethyl sulfoxide
REMARK  2 active torsions:
REMARK  status: ('A' for Active; 'I' for Inactive)
REMARK    1  A    between atoms: C_1  and  S_2
REMARK    2  A    between atoms: S_2  and  C_3
REMARK                            x       y       z     vdW  Elec       q    Type
REMARK                         _______ _______ _______ _____ _____    ______ ____
ROOT
ATOM      1  C   UNL     1     -10.495   8.427 128.157  0.00  0.00    +0.000 C 
ATOM      2  S   UNL     1     -11.877   7.708 129.075  0.00  0.00    +0.000 S 
ATOM      3  C   UNL     1     -13.147   8.906 128.608  0.00  0.00    +0.000 C 
ATOM      4  O   UNL     1     -12.224   6.405 128.412  0.00  0.00    +0.000 OA
ENDROOT
TORSDOF 0
ENDMDL
MODEL 6
REMARK VINA RESULT:      -2.2      2.052      2.518
REMARK  Name = Dimethyl sulfoxide
REMARK  2 active torsions:
REMARK  status: ('A' for Active; 'I' for Inactive)
REMARK    1  A    between atoms: C_1  and  S_2
REMARK    2  A    between atoms: S_2  and  C_3
REMARK                            x       y       z     vdW  Elec       q    Type
REMARK                         _______ _______ _______ _____ _____    ______ ____
ROOT
ATOM      1  C   UNL     1     -10.746   8.489 128.072  0.00  0.00    +0.000 C 
ATOM      2  S   UNL     1     -10.359   7.050 129.096  0.00  0.00    +0.000 S 
ATOM      3  C   UNL     1     -12.043   6.428 129.311  0.00  0.00    +0.000 C 
ATOM      4  O   UNL     1      -9.626   6.068 128.227  0.00  0.00    +0.000 OA
ENDROOT
TORSDOF 0
ENDMDL
MODEL 7
REMARK VINA RESULT:      -2.2      2.945      2.945
REMARK  Name = Dimethyl sulfoxide
REMARK  2 active torsions:
REMARK  status: ('A' for Active; 'I' for Inactive)
REMARK    1  A    between atoms: C_1  and  S_2
REMARK    2  A    between atoms: S_2  and  C_3
REMARK                            x       y       z     vdW  Elec       q    Type
REMARK                         _______ _______ _______ _____ _____    ______ ____
ROOT
ATOM      1  C   UNL     1     -13.431   7.453 127.907  0.00  0.00    +0.000 C 
ATOM      2  S   UNL     1     -12.272   8.227 129.059  0.00  0.00    +0.000 S 
ATOM      3  C   UNL     1     -10.862   8.382 127.938  0.00  0.00    +0.000 C 
ATOM      4  O   UNL     1     -12.778   9.614 129.337  0.00  0.00    +0.000 OA
ENDROOT
TORSDOF 0
ENDMDL
MODEL 8
REMARK VINA RESULT:      -2.1      3.410      3.499
REMARK  Name = Dimethyl sulfoxide
REMARK  2 active torsions:
REMARK  status: ('A' for Active; 'I' for Inactive)
REMARK    1  A    between atoms: C_1  and  S_2
REMARK    2  A    between atoms: S_2  and  C_3
REMARK                            x       y       z     vdW  Elec       q    Type
REMARK                         _______ _______ _______ _____ _____    ______ ____
ROOT
ATOM      1  C   UNL     1     -12.458   8.448 129.698  0.00  0.00    +0.000 C 
ATOM      2  S   UNL     1     -11.519   6.912 129.866  0.00  0.00    +0.000 S 
ATOM      3  C   UNL     1     -11.864   6.589 131.611  0.00  0.00    +0.000 C 
ATOM      4  O   UNL     1     -12.237   5.861 129.066  0.00  0.00    +0.000 OA
ENDROOT
TORSDOF 0
ENDMDL
MODEL 9
REMARK VINA RESULT:      -2.1      3.265      3.472
REMARK  Name = Dimethyl sulfoxide
REMARK  2 active torsions:
REMARK  status: ('A' for Active; 'I' for Inactive)
REMARK    1  A    between atoms: C_1  and  S_2
REMARK    2  A    between atoms: S_2  and  C_3
REMARK                            x       y       z     vdW  Elec       q    Type
REMARK                         _______ _______ _______ _____ _____    ______ ____
ROOT
ATOM      1  C   UNL     1     -11.049   8.509 128.193  0.00  0.00    +0.000 C 
ATOM      2  S   UNL     1     -12.811   8.305 128.546  0.00  0.00    +0.000 S 
ATOM      3  C   UNL     1     -12.664   7.718 130.250  0.00  0.00    +0.000 C 
ATOM      4  O   UNL     1     -13.418   9.678 128.596  0.00  0.00    +0.000 OA
ENDROOT
TORSDOF 0
ENDMDL
