MODEL 1
REMARK VINA RESULT:      -7.1      0.000      0.000
REMARK  Name = Dimetotiazine
REMARK  10 active torsions:
REMARK  status: ('A' for Active; 'I' for Inactive)
REMARK    1  A    between atoms: C_1  and  C_2
REMARK    2  A    between atoms: C_2  and  C_3
REMARK    3  A    between atoms: C_2  and  N_24
REMARK    4  A    between atoms: C_3  and  N_4
REMARK    5  A    between atoms: C_15  and  S_18
REMARK    6  A    between atoms: S_18  and  N_21
REMARK    7  A    between atoms: N_21  and  C_22
REMARK    8  A    between atoms: N_21  and  C_23
REMARK    9  A    between atoms: N_24  and  C_25
REMARK   10  A    between atoms: N_24  and  C_26
REMARK                            x       y       z     vdW  Elec       q    Type
REMARK                         _______ _______ _______ _____ _____    ______ ____
ROOT
ATOM      1  N   UNL     1      -7.643   5.741 132.004  0.00  0.00    +0.000 N 
ATOM      2  C   UNL     1      -7.169   5.022 133.106  0.00  0.00    +0.000 A 
ATOM      3  C   UNL     1      -6.924   5.660 134.323  0.00  0.00    +0.000 A 
ATOM      4  C   UNL     1      -6.144   5.045 135.301  0.00  0.00    +0.000 A 
ATOM      5  C   UNL     1      -5.943   3.678 135.240  0.00  0.00    +0.000 A 
ATOM      6  C   UNL     1      -6.478   2.956 134.174  0.00  0.00    +0.000 A 
ATOM      7  C   UNL     1      -7.053   3.624 133.087  0.00  0.00    +0.000 A 
ATOM      8  S   UNL     1      -7.714   2.688 131.713  0.00  0.00    +0.000 S 
ATOM      9  C   UNL     1      -8.990   3.844 131.204  0.00  0.00    +0.000 A 
ATOM     10  C   UNL     1      -8.784   5.235 131.336  0.00  0.00    +0.000 A 
ATOM     11  C   UNL     1      -9.820   6.109 131.002  0.00  0.00    +0.000 A 
ATOM     12  C   UNL     1     -11.010   5.627 130.466  0.00  0.00    +0.000 A 
ATOM     13  C   UNL     1     -11.216   4.248 130.348  0.00  0.00    +0.000 A 
ATOM     14  C   UNL     1     -10.211   3.358 130.732  0.00  0.00    +0.000 A 
ENDROOT
BRANCH  12  15
ATOM     15  S   UNL     1     -12.302   6.712 129.918  0.00  0.00    +0.000 S 
ATOM     16  O   UNL     1     -12.830   6.156 128.699  0.00  0.00    +0.000 OA
ATOM     17  O   UNL     1     -13.164   6.947 131.071  0.00  0.00    +0.000 OA
BRANCH  15  18
ATOM     18  N   UNL     1     -11.578   8.222 129.499  0.00  0.00    +0.000 NA
ATOM     19  C   UNL     1     -10.820   8.229 128.222  0.00  0.00    +0.000 C 
ATOM     20  C   UNL     1     -12.610   9.301 129.437  0.00  0.00    +0.000 C 
ENDBRANCH  15  18
ENDBRANCH  12  15
BRANCH   1  21
ATOM     21  C   UNL     1      -6.844   6.784 131.248  0.00  0.00    +0.000 C 
BRANCH  21  23
ATOM     22  C   UNL     1      -4.482   7.620 130.797  0.00  0.00    +0.000 C 
ATOM     23  C   UNL     1      -5.392   6.415 130.718  0.00  0.00    +0.000 C 
BRANCH  23  24
ATOM     24  N   UNL     1      -5.287   5.949 129.309  0.00  0.00    +0.000 NA
ATOM     25  C   UNL     1      -3.925   6.196 128.784  0.00  0.00    +0.000 C 
ATOM     26  C   UNL     1      -5.554   4.515 129.225  0.00  0.00    +0.000 C 
ENDBRANCH  23  24
ENDBRANCH  21  23
ENDBRANCH   1  21
TORSDOF 5
ENDMDL
MODEL 2
REMARK VINA RESULT:      -6.9      2.219      4.785
REMARK  Name = Dimetotiazine
REMARK  10 active torsions:
REMARK  status: ('A' for Active; 'I' for Inactive)
REMARK    1  A    between atoms: C_1  and  C_2
REMARK    2  A    between atoms: C_2  and  C_3
REMARK    3  A    between atoms: C_2  and  N_24
REMARK    4  A    between atoms: C_3  and  N_4
REMARK    5  A    between atoms: C_15  and  S_18
REMARK    6  A    between atoms: S_18  and  N_21
REMARK    7  A    between atoms: N_21  and  C_22
REMARK    8  A    between atoms: N_21  and  C_23
REMARK    9  A    between atoms: N_24  and  C_25
REMARK   10  A    between atoms: N_24  and  C_26
REMARK                            x       y       z     vdW  Elec       q    Type
REMARK                         _______ _______ _______ _____ _____    ______ ____
ROOT
ATOM      1  N   UNL     1      -7.477   3.214 129.451  0.00  0.00    +0.000 N 
ATOM      2  C   UNL     1      -6.181   3.223 128.924  0.00  0.00    +0.000 A 
ATOM      3  C   UNL     1      -5.938   2.794 127.619  0.00  0.00    +0.000 A 
ATOM      4  C   UNL     1      -4.645   2.477 127.207  0.00  0.00    +0.000 A 
ATOM      5  C   UNL     1      -3.571   2.948 127.939  0.00  0.00    +0.000 A 
ATOM      6  C   UNL     1      -3.806   3.682 129.101  0.00  0.00    +0.000 A 
ATOM      7  C   UNL     1      -5.102   3.787 129.620  0.00  0.00    +0.000 A 
ATOM      8  S   UNL     1      -5.388   4.711 131.125  0.00  0.00    +0.000 S 
ATOM      9  C   UNL     1      -7.070   5.240 130.787  0.00  0.00    +0.000 A 
ATOM     10  C   UNL     1      -7.944   4.405 130.056  0.00  0.00    +0.000 A 
ATOM     11  C   UNL     1      -9.222   4.872 129.743  0.00  0.00    +0.000 A 
ATOM     12  C   UNL     1      -9.663   6.104 130.214  0.00  0.00    +0.000 A 
ATOM     13  C   UNL     1      -8.791   6.934 130.927  0.00  0.00    +0.000 A 
ATOM     14  C   UNL     1      -7.489   6.507 131.199  0.00  0.00    +0.000 A 
ENDROOT
BRANCH  12  15
ATOM     15  S   UNL     1     -11.320   6.678 129.941  0.00  0.00    +0.000 S 
ATOM     16  O   UNL     1     -11.899   5.827 128.934  0.00  0.00    +0.000 OA
ATOM     17  O   UNL     1     -11.936   6.811 131.256  0.00  0.00    +0.000 OA
BRANCH  15  18
ATOM     18  N   UNL     1     -11.222   8.259 129.254  0.00  0.00    +0.000 NA
ATOM     19  C   UNL     1     -10.660   8.321 127.881  0.00  0.00    +0.000 C 
ATOM     20  C   UNL     1     -12.567   8.910 129.240  0.00  0.00    +0.000 C 
ENDBRANCH  15  18
ENDBRANCH  12  15
BRANCH   1  21
ATOM     21  C   UNL     1      -8.272   1.961 129.760  0.00  0.00    +0.000 C 
BRANCH  21  23
ATOM     22  C   UNL     1      -8.083  -0.401 130.691  0.00  0.00    +0.000 C 
ATOM     23  C   UNL     1      -7.851   1.061 131.000  0.00  0.00    +0.000 C 
BRANCH  23  24
ATOM     24  N   UNL     1      -8.571   1.299 132.281  0.00  0.00    +0.000 NA
ATOM     25  C   UNL     1      -7.820   2.255 133.125  0.00  0.00    +0.000 C 
ATOM     26  C   UNL     1      -9.895   1.860 132.025  0.00  0.00    +0.000 C 
ENDBRANCH  23  24
ENDBRANCH  21  23
ENDBRANCH   1  21
TORSDOF 5
ENDMDL
MODEL 3
REMARK VINA RESULT:      -6.9      1.904      3.338
REMARK  Name = Dimetotiazine
REMARK  10 active torsions:
REMARK  status: ('A' for Active; 'I' for Inactive)
REMARK    1  A    between atoms: C_1  and  C_2
REMARK    2  A    between atoms: C_2  and  C_3
REMARK    3  A    between atoms: C_2  and  N_24
REMARK    4  A    between atoms: C_3  and  N_4
REMARK    5  A    between atoms: C_15  and  S_18
REMARK    6  A    between atoms: S_18  and  N_21
REMARK    7  A    between atoms: N_21  and  C_22
REMARK    8  A    between atoms: N_21  and  C_23
REMARK    9  A    between atoms: N_24  and  C_25
REMARK   10  A    between atoms: N_24  and  C_26
REMARK                            x       y       z     vdW  Elec       q    Type
REMARK                         _______ _______ _______ _____ _____    ______ ____
ROOT
ATOM      1  N   UNL     1      -6.505   5.801 130.537  0.00  0.00    +0.000 N 
ATOM      2  C   UNL     1      -5.420   6.402 131.185  0.00  0.00    +0.000 A 
ATOM      3  C   UNL     1      -4.634   7.352 130.531  0.00  0.00    +0.000 A 
ATOM      4  C   UNL     1      -3.378   7.694 131.027  0.00  0.00    +0.000 A 
ATOM      5  C   UNL     1      -3.072   7.403 132.344  0.00  0.00    +0.000 A 
ATOM      6  C   UNL     1      -4.006   6.727 133.129  0.00  0.00    +0.000 A 
ATOM      7  C   UNL     1      -5.159   6.189 132.546  0.00  0.00    +0.000 A 
ATOM      8  S   UNL     1      -6.338   5.301 133.558  0.00  0.00    +0.000 S 
ATOM      9  C   UNL     1      -7.819   5.671 132.612  0.00  0.00    +0.000 A 
ATOM     10  C   UNL     1      -7.751   5.805 131.208  0.00  0.00    +0.000 A 
ATOM     11  C   UNL     1      -8.902   6.166 130.505  0.00  0.00    +0.000 A 
ATOM     12  C   UNL     1     -10.120   6.309 131.162  0.00  0.00    +0.000 A 
ATOM     13  C   UNL     1     -10.181   6.187 132.555  0.00  0.00    +0.000 A 
ATOM     14  C   UNL     1      -9.027   5.884 133.280  0.00  0.00    +0.000 A 
ENDROOT
BRANCH  12  15
ATOM     15  S   UNL     1     -11.626   6.647 130.288  0.00  0.00    +0.000 S 
ATOM     16  O   UNL     1     -11.723   5.680 129.226  0.00  0.00    +0.000 OA
ATOM     17  O   UNL     1     -12.674   6.763 131.296  0.00  0.00    +0.000 OA
BRANCH  15  18
ATOM     18  N   UNL     1     -11.461   8.192 129.535  0.00  0.00    +0.000 NA
ATOM     19  C   UNL     1     -10.911   8.169 128.156  0.00  0.00    +0.000 C 
ATOM     20  C   UNL     1     -12.774   8.904 129.504  0.00  0.00    +0.000 C 
ENDBRANCH  15  18
ENDBRANCH  12  15
BRANCH   1  21
ATOM     21  C   UNL     1      -6.386   4.840 129.371  0.00  0.00    +0.000 C 
BRANCH  21  23
ATOM     22  C   UNL     1      -7.511   2.563 129.558  0.00  0.00    +0.000 C 
ATOM     23  C   UNL     1      -6.188   3.290 129.661  0.00  0.00    +0.000 C 
BRANCH  23  24
ATOM     24  N   UNL     1      -5.652   2.917 130.998  0.00  0.00    +0.000 NA
ATOM     25  C   UNL     1      -6.552   1.949 131.664  0.00  0.00    +0.000 C 
ATOM     26  C   UNL     1      -4.336   2.298 130.865  0.00  0.00    +0.000 C 
ENDBRANCH  23  24
ENDBRANCH  21  23
ENDBRANCH   1  21
TORSDOF 5
ENDMDL
MODEL 4
REMARK VINA RESULT:      -6.9      7.995     10.608
REMARK  Name = Dimetotiazine
REMARK  10 active torsions:
REMARK  status: ('A' for Active; 'I' for Inactive)
REMARK    1  A    between atoms: C_1  and  C_2
REMARK    2  A    between atoms: C_2  and  C_3
REMARK    3  A    between atoms: C_2  and  N_24
REMARK    4  A    between atoms: C_3  and  N_4
REMARK    5  A    between atoms: C_15  and  S_18
REMARK    6  A    between atoms: S_18  and  N_21
REMARK    7  A    between atoms: N_21  and  C_22
REMARK    8  A    between atoms: N_21  and  C_23
REMARK    9  A    between atoms: N_24  and  C_25
REMARK   10  A    between atoms: N_24  and  C_26
REMARK                            x       y       z     vdW  Elec       q    Type
REMARK                         _______ _______ _______ _____ _____    ______ ____
ROOT
ATOM      1  N   UNL     1      -7.210  -0.876 126.179  0.00  0.00    +0.000 N 
ATOM      2  C   UNL     1      -7.311  -1.451 124.908  0.00  0.00    +0.000 A 
ATOM      3  C   UNL     1      -6.280  -1.310 123.977  0.00  0.00    +0.000 A 
ATOM      4  C   UNL     1      -6.505  -1.573 122.627  0.00  0.00    +0.000 A 
ATOM      5  C   UNL     1      -7.601  -2.334 122.262  0.00  0.00    +0.000 A 
ATOM      6  C   UNL     1      -8.485  -2.774 123.247  0.00  0.00    +0.000 A 
ATOM      7  C   UNL     1      -8.369  -2.304 124.560  0.00  0.00    +0.000 A 
ATOM      8  S   UNL     1      -9.523  -2.856 125.810  0.00  0.00    +0.000 S 
ATOM      9  C   UNL     1      -8.441  -2.725 127.237  0.00  0.00    +0.000 A 
ATOM     10  C   UNL     1      -7.461  -1.709 127.295  0.00  0.00    +0.000 A 
ATOM     11  C   UNL     1      -6.584  -1.675 128.380  0.00  0.00    +0.000 A 
ATOM     12  C   UNL     1      -6.723  -2.573 129.434  0.00  0.00    +0.000 A 
ATOM     13  C   UNL     1      -7.686  -3.585 129.368  0.00  0.00    +0.000 A 
ATOM     14  C   UNL     1      -8.534  -3.670 128.261  0.00  0.00    +0.000 A 
ENDROOT
BRANCH  12  15
ATOM     15  S   UNL     1      -5.706  -2.485 130.885  0.00  0.00    +0.000 S 
ATOM     16  O   UNL     1      -5.075  -1.191 130.879  0.00  0.00    +0.000 OA
ATOM     17  O   UNL     1      -6.541  -2.908 132.003  0.00  0.00    +0.000 OA
BRANCH  15  18
ATOM     18  N   UNL     1      -4.444  -3.650 130.714  0.00  0.00    +0.000 NA
ATOM     19  C   UNL     1      -3.382  -3.296 129.739  0.00  0.00    +0.000 C 
ATOM     20  C   UNL     1      -3.797  -3.921 132.034  0.00  0.00    +0.000 C 
ENDBRANCH  15  18
ENDBRANCH  12  15
BRANCH   1  21
ATOM     21  C   UNL     1      -7.225   0.615 126.452  0.00  0.00    +0.000 C 
BRANCH  21  23
ATOM     22  C   UNL     1      -9.685   0.841 125.835  0.00  0.00    +0.000 C 
ATOM     23  C   UNL     1      -8.334   1.519 125.763  0.00  0.00    +0.000 C 
BRANCH  23  24
ATOM     24  N   UNL     1      -8.145   1.838 124.322  0.00  0.00    +0.000 NA
ATOM     25  C   UNL     1      -9.282   1.324 123.525  0.00  0.00    +0.000 C 
ATOM     26  C   UNL     1      -8.068   3.284 124.126  0.00  0.00    +0.000 C 
ENDBRANCH  23  24
ENDBRANCH  21  23
ENDBRANCH   1  21
TORSDOF 5
ENDMDL
MODEL 5
REMARK VINA RESULT:      -6.8      2.237      4.327
REMARK  Name = Dimetotiazine
REMARK  10 active torsions:
REMARK  status: ('A' for Active; 'I' for Inactive)
REMARK    1  A    between atoms: C_1  and  C_2
REMARK    2  A    between atoms: C_2  and  C_3
REMARK    3  A    between atoms: C_2  and  N_24
REMARK    4  A    between atoms: C_3  and  N_4
REMARK    5  A    between atoms: C_15  and  S_18
REMARK    6  A    between atoms: S_18  and  N_21
REMARK    7  A    between atoms: N_21  and  C_22
REMARK    8  A    between atoms: N_21  and  C_23
REMARK    9  A    between atoms: N_24  and  C_25
REMARK   10  A    between atoms: N_24  and  C_26
REMARK                            x       y       z     vdW  Elec       q    Type
REMARK                         _______ _______ _______ _____ _____    ______ ____
ROOT
ATOM      1  N   UNL     1      -5.797   4.719 129.258  0.00  0.00    +0.000 N 
ATOM      2  C   UNL     1      -4.549   5.350 129.289  0.00  0.00    +0.000 A 
ATOM      3  C   UNL     1      -4.022   5.949 128.144  0.00  0.00    +0.000 A 
ATOM      4  C   UNL     1      -2.668   6.268 128.072  0.00  0.00    +0.000 A 
ATOM      5  C   UNL     1      -1.933   6.358 129.240  0.00  0.00    +0.000 A 
ATOM      6  C   UNL     1      -2.551   6.075 130.458  0.00  0.00    +0.000 A 
ATOM      7  C   UNL     1      -3.841   5.533 130.486  0.00  0.00    +0.000 A 
ATOM      8  S   UNL     1      -4.614   5.150 132.054  0.00  0.00    +0.000 S 
ATOM      9  C   UNL     1      -6.324   5.394 131.564  0.00  0.00    +0.000 A 
ATOM     10  C   UNL     1      -6.738   5.083 130.250  0.00  0.00    +0.000 A 
ATOM     11  C   UNL     1      -8.055   5.351 129.874  0.00  0.00    +0.000 A 
ATOM     12  C   UNL     1      -8.973   5.838 130.800  0.00  0.00    +0.000 A 
ATOM     13  C   UNL     1      -8.557   6.157 132.096  0.00  0.00    +0.000 A 
ATOM     14  C   UNL     1      -7.227   5.949 132.473  0.00  0.00    +0.000 A 
ENDROOT
BRANCH  12  15
ATOM     15  S   UNL     1     -10.684   6.077 130.392  0.00  0.00    +0.000 S 
ATOM     16  O   UNL     1     -11.055   5.014 129.495  0.00  0.00    +0.000 OA
ATOM     17  O   UNL     1     -11.387   6.275 131.654  0.00  0.00    +0.000 OA
BRANCH  15  18
ATOM     18  N   UNL     1     -10.809   7.546 129.495  0.00  0.00    +0.000 NA
ATOM     19  C   UNL     1     -10.605   7.415 128.030  0.00  0.00    +0.000 C 
ATOM     20  C   UNL     1     -12.137   8.192 129.726  0.00  0.00    +0.000 C 
ENDBRANCH  15  18
ENDBRANCH  12  15
BRANCH   1  21
ATOM     21  C   UNL     1      -6.096   3.440 128.501  0.00  0.00    +0.000 C 
BRANCH  21  23
ATOM     22  C   UNL     1      -5.239   3.123 126.125  0.00  0.00    +0.000 C 
ATOM     23  C   UNL     1      -6.442   3.518 126.952  0.00  0.00    +0.000 C 
BRANCH  23  24
ATOM     24  N   UNL     1      -6.853   4.844 126.418  0.00  0.00    +0.000 NA
ATOM     25  C   UNL     1      -6.087   5.168 125.194  0.00  0.00    +0.000 C 
ATOM     26  C   UNL     1      -8.273   4.840 126.079  0.00  0.00    +0.000 C 
ENDBRANCH  23  24
ENDBRANCH  21  23
ENDBRANCH   1  21
TORSDOF 5
ENDMDL
MODEL 6
REMARK VINA RESULT:      -6.7      6.463      8.091
REMARK  Name = Dimetotiazine
REMARK  10 active torsions:
REMARK  status: ('A' for Active; 'I' for Inactive)
REMARK    1  A    between atoms: C_1  and  C_2
REMARK    2  A    between atoms: C_2  and  C_3
REMARK    3  A    between atoms: C_2  and  N_24
REMARK    4  A    between atoms: C_3  and  N_4
REMARK    5  A    between atoms: C_15  and  S_18
REMARK    6  A    between atoms: S_18  and  N_21
REMARK    7  A    between atoms: N_21  and  C_22
REMARK    8  A    between atoms: N_21  and  C_23
REMARK    9  A    between atoms: N_24  and  C_25
REMARK   10  A    between atoms: N_24  and  C_26
REMARK                            x       y       z     vdW  Elec       q    Type
REMARK                         _______ _______ _______ _____ _____    ______ ____
ROOT
ATOM      1  N   UNL     1      -7.346   0.293 128.521  0.00  0.00    +0.000 N 
ATOM      2  C   UNL     1      -8.053   0.774 129.628  0.00  0.00    +0.000 A 
ATOM      3  C   UNL     1      -8.728   1.994 129.569  0.00  0.00    +0.000 A 
ATOM      4  C   UNL     1      -9.135   2.634 130.738  0.00  0.00    +0.000 A 
ATOM      5  C   UNL     1      -9.228   1.904 131.909  0.00  0.00    +0.000 A 
ATOM      6  C   UNL     1      -8.860   0.559 131.906  0.00  0.00    +0.000 A 
ATOM      7  C   UNL     1      -8.235   0.001 130.785  0.00  0.00    +0.000 A 
ATOM      8  S   UNL     1      -7.745  -1.720 130.801  0.00  0.00    +0.000 S 
ATOM      9  C   UNL     1      -7.897  -2.047 129.042  0.00  0.00    +0.000 A 
ATOM     10  C   UNL     1      -7.610  -1.033 128.102  0.00  0.00    +0.000 A 
ATOM     11  C   UNL     1      -7.808  -1.291 126.745  0.00  0.00    +0.000 A 
ATOM     12  C   UNL     1      -8.199  -2.554 126.312  0.00  0.00    +0.000 A 
ATOM     13  C   UNL     1      -8.495  -3.553 127.246  0.00  0.00    +0.000 A 
ATOM     14  C   UNL     1      -8.358  -3.293 128.612  0.00  0.00    +0.000 A 
ENDROOT
BRANCH  12  15
ATOM     15  S   UNL     1      -8.344  -2.956 124.590  0.00  0.00    +0.000 S 
ATOM     16  O   UNL     1      -7.378  -3.987 124.316  0.00  0.00    +0.000 OA
ATOM     17  O   UNL     1      -9.763  -3.168 124.331  0.00  0.00    +0.000 OA
BRANCH  15  18
ATOM     18  N   UNL     1      -7.855  -1.569 123.685  0.00  0.00    +0.000 NA
ATOM     19  C   UNL     1      -6.773  -1.806 122.696  0.00  0.00    +0.000 C 
ATOM     20  C   UNL     1      -9.023  -0.972 122.968  0.00  0.00    +0.000 C 
ENDBRANCH  15  18
ENDBRANCH  12  15
BRANCH   1  21
ATOM     21  C   UNL     1      -6.080   0.919 127.971  0.00  0.00    +0.000 C 
BRANCH  21  23
ATOM     22  C   UNL     1      -6.221   1.747 125.568  0.00  0.00    +0.000 C 
ATOM     23  C   UNL     1      -6.192   2.183 127.016  0.00  0.00    +0.000 C 
BRANCH  23  24
ATOM     24  N   UNL     1      -5.093   3.184 127.090  0.00  0.00    +0.000 NA
ATOM     25  C   UNL     1      -3.825   2.597 126.603  0.00  0.00    +0.000 C 
ATOM     26  C   UNL     1      -5.404   4.346 126.261  0.00  0.00    +0.000 C 
ENDBRANCH  23  24
ENDBRANCH  21  23
ENDBRANCH   1  21
TORSDOF 5
ENDMDL
MODEL 7
REMARK VINA RESULT:      -6.7      7.832     10.469
REMARK  Name = Dimetotiazine
REMARK  10 active torsions:
REMARK  status: ('A' for Active; 'I' for Inactive)
REMARK    1  A    between atoms: C_1  and  C_2
REMARK    2  A    between atoms: C_2  and  C_3
REMARK    3  A    between atoms: C_2  and  N_24
REMARK    4  A    between atoms: C_3  and  N_4
REMARK    5  A    between atoms: C_15  and  S_18
REMARK    6  A    between atoms: S_18  and  N_21
REMARK    7  A    between atoms: N_21  and  C_22
REMARK    8  A    between atoms: N_21  and  C_23
REMARK    9  A    between atoms: N_24  and  C_25
REMARK   10  A    between atoms: N_24  and  C_26
REMARK                            x       y       z     vdW  Elec       q    Type
REMARK                         _______ _______ _______ _____ _____    ______ ____
ROOT
ATOM      1  N   UNL     1      -6.052  -1.335 126.190  0.00  0.00    +0.000 N 
ATOM      2  C   UNL     1      -6.548  -1.707 124.936  0.00  0.00    +0.000 A 
ATOM      3  C   UNL     1      -5.680  -2.033 123.893  0.00  0.00    +0.000 A 
ATOM      4  C   UNL     1      -6.136  -2.067 122.577  0.00  0.00    +0.000 A 
ATOM      5  C   UNL     1      -7.495  -2.166 122.337  0.00  0.00    +0.000 A 
ATOM      6  C   UNL     1      -8.379  -2.175 123.416  0.00  0.00    +0.000 A 
ATOM      7  C   UNL     1      -7.917  -1.905 124.709  0.00  0.00    +0.000 A 
ATOM      8  S   UNL     1      -9.065  -1.895 126.081  0.00  0.00    +0.000 S 
ATOM      9  C   UNL     1      -7.926  -2.401 127.373  0.00  0.00    +0.000 A 
ATOM     10  C   UNL     1      -6.571  -2.005 127.323  0.00  0.00    +0.000 A 
ATOM     11  C   UNL     1      -5.691  -2.474 128.300  0.00  0.00    +0.000 A 
ATOM     12  C   UNL     1      -6.153  -3.251 129.358  0.00  0.00    +0.000 A 
ATOM     13  C   UNL     1      -7.493  -3.652 129.398  0.00  0.00    +0.000 A 
ATOM     14  C   UNL     1      -8.375  -3.239 128.397  0.00  0.00    +0.000 A 
ENDROOT
BRANCH  12  15
ATOM     15  S   UNL     1      -5.090  -3.764 130.682  0.00  0.00    +0.000 S 
ATOM     16  O   UNL     1      -5.470  -5.109 131.029  0.00  0.00    +0.000 OA
ATOM     17  O   UNL     1      -3.728  -3.453 130.265  0.00  0.00    +0.000 OA
BRANCH  15  18
ATOM     18  N   UNL     1      -5.448  -2.781 132.055  0.00  0.00    +0.000 NA
ATOM     19  C   UNL     1      -5.845  -1.383 131.748  0.00  0.00    +0.000 C 
ATOM     20  C   UNL     1      -6.526  -3.404 132.881  0.00  0.00    +0.000 C 
ENDBRANCH  15  18
ENDBRANCH  12  15
BRANCH   1  21
ATOM     21  C   UNL     1      -5.298  -0.050 126.471  0.00  0.00    +0.000 C 
BRANCH  21  23
ATOM     22  C   UNL     1      -4.863   2.437 126.149  0.00  0.00    +0.000 C 
ATOM     23  C   UNL     1      -5.825   1.311 125.844  0.00  0.00    +0.000 C 
BRANCH  23  24
ATOM     24  N   UNL     1      -7.149   1.802 126.314  0.00  0.00    +0.000 NA
ATOM     25  C   UNL     1      -7.033   3.185 126.829  0.00  0.00    +0.000 C 
ATOM     26  C   UNL     1      -8.111   1.804 125.216  0.00  0.00    +0.000 C 
ENDBRANCH  23  24
ENDBRANCH  21  23
ENDBRANCH   1  21
TORSDOF 5
ENDMDL
MODEL 8
REMARK VINA RESULT:      -6.7      2.126      3.112
REMARK  Name = Dimetotiazine
REMARK  10 active torsions:
REMARK  status: ('A' for Active; 'I' for Inactive)
REMARK    1  A    between atoms: C_1  and  C_2
REMARK    2  A    between atoms: C_2  and  C_3
REMARK    3  A    between atoms: C_2  and  N_24
REMARK    4  A    between atoms: C_3  and  N_4
REMARK    5  A    between atoms: C_15  and  S_18
REMARK    6  A    between atoms: S_18  and  N_21
REMARK    7  A    between atoms: N_21  and  C_22
REMARK    8  A    between atoms: N_21  and  C_23
REMARK    9  A    between atoms: N_24  and  C_25
REMARK   10  A    between atoms: N_24  and  C_26
REMARK                            x       y       z     vdW  Elec       q    Type
REMARK                         _______ _______ _______ _____ _____    ______ ____
ROOT
ATOM      1  N   UNL     1      -7.368   5.535 131.013  0.00  0.00    +0.000 N 
ATOM      2  C   UNL     1      -6.626   5.681 132.190  0.00  0.00    +0.000 A 
ATOM      3  C   UNL     1      -5.419   6.383 132.190  0.00  0.00    +0.000 A 
ATOM      4  C   UNL     1      -4.521   6.245 133.247  0.00  0.00    +0.000 A 
ATOM      5  C   UNL     1      -4.973   5.742 134.453  0.00  0.00    +0.000 A 
ATOM      6  C   UNL     1      -6.301   5.334 134.569  0.00  0.00    +0.000 A 
ATOM      7  C   UNL     1      -7.118   5.262 133.434  0.00  0.00    +0.000 A 
ATOM      8  S   UNL     1      -8.814   4.712 133.590  0.00  0.00    +0.000 S 
ATOM      9  C   UNL     1      -9.511   5.636 132.218  0.00  0.00    +0.000 A 
ATOM     10  C   UNL     1      -8.740   5.878 131.059  0.00  0.00    +0.000 A 
ATOM     11  C   UNL     1      -9.280   6.662 130.038  0.00  0.00    +0.000 A 
ATOM     12  C   UNL     1     -10.588   7.129 130.117  0.00  0.00    +0.000 A 
ATOM     13  C   UNL     1     -11.345   6.898 131.271  0.00  0.00    +0.000 A 
ATOM     14  C   UNL     1     -10.799   6.164 132.327  0.00  0.00    +0.000 A 
ENDROOT
BRANCH  12  15
ATOM     15  S   UNL     1     -11.350   8.025 128.788  0.00  0.00    +0.000 S 
ATOM     16  O   UNL     1     -12.285   8.944 129.381  0.00  0.00    +0.000 OA
ATOM     17  O   UNL     1     -10.267   8.501 127.935  0.00  0.00    +0.000 OA
BRANCH  15  18
ATOM     18  N   UNL     1     -12.280   6.902 127.863  0.00  0.00    +0.000 NA
ATOM     19  C   UNL     1     -13.740   6.919 128.128  0.00  0.00    +0.000 C 
ATOM     20  C   UNL     1     -12.066   7.122 126.400  0.00  0.00    +0.000 C 
ENDBRANCH  15  18
ENDBRANCH  12  15
BRANCH   1  21
ATOM     21  C   UNL     1      -6.934   4.706 129.820  0.00  0.00    +0.000 C 
BRANCH  21  23
ATOM     22  C   UNL     1      -5.378   2.814 129.126  0.00  0.00    +0.000 C 
ATOM     23  C   UNL     1      -6.526   3.187 130.039  0.00  0.00    +0.000 C 
BRANCH  23  24
ATOM     24  N   UNL     1      -7.572   2.162 129.773  0.00  0.00    +0.000 NA
ATOM     25  C   UNL     1      -8.473   2.029 130.939  0.00  0.00    +0.000 C 
ATOM     26  C   UNL     1      -8.377   2.544 128.616  0.00  0.00    +0.000 C 
ENDBRANCH  23  24
ENDBRANCH  21  23
ENDBRANCH   1  21
TORSDOF 5
ENDMDL
MODEL 9
REMARK VINA RESULT:      -6.6      6.317      8.633
REMARK  Name = Dimetotiazine
REMARK  10 active torsions:
REMARK  status: ('A' for Active; 'I' for Inactive)
REMARK    1  A    between atoms: C_1  and  C_2
REMARK    2  A    between atoms: C_2  and  C_3
REMARK    3  A    between atoms: C_2  and  N_24
REMARK    4  A    between atoms: C_3  and  N_4
REMARK    5  A    between atoms: C_15  and  S_18
REMARK    6  A    between atoms: S_18  and  N_21
REMARK    7  A    between atoms: N_21  and  C_22
REMARK    8  A    between atoms: N_21  and  C_23
REMARK    9  A    between atoms: N_24  and  C_25
REMARK   10  A    between atoms: N_24  and  C_26
REMARK                            x       y       z     vdW  Elec       q    Type
REMARK                         _______ _______ _______ _____ _____    ______ ____
ROOT
ATOM      1  N   UNL     1      -7.202  -0.457 126.145  0.00  0.00    +0.000 N 
ATOM      2  C   UNL     1      -7.956  -1.259 125.281  0.00  0.00    +0.000 A 
ATOM      3  C   UNL     1      -8.786  -2.263 125.782  0.00  0.00    +0.000 A 
ATOM      4  C   UNL     1      -9.263  -3.270 124.944  0.00  0.00    +0.000 A 
ATOM      5  C   UNL     1      -9.247  -3.072 123.576  0.00  0.00    +0.000 A 
ATOM      6  C   UNL     1      -8.706  -1.894 123.063  0.00  0.00    +0.000 A 
ATOM      7  C   UNL     1      -8.024  -1.006 123.903  0.00  0.00    +0.000 A 
ATOM      8  S   UNL     1      -7.311   0.490 123.230  0.00  0.00    +0.000 S 
ATOM      9  C   UNL     1      -7.435   1.518 124.697  0.00  0.00    +0.000 A 
ATOM     10  C   UNL     1      -7.294   0.945 125.980  0.00  0.00    +0.000 A 
ATOM     11  C   UNL     1      -7.469   1.753 127.105  0.00  0.00    +0.000 A 
ATOM     12  C   UNL     1      -7.695   3.119 126.971  0.00  0.00    +0.000 A 
ATOM     13  C   UNL     1      -7.847   3.681 125.698  0.00  0.00    +0.000 A 
ATOM     14  C   UNL     1      -7.733   2.876 124.563  0.00  0.00    +0.000 A 
ENDROOT
BRANCH  12  15
ATOM     15  S   UNL     1      -7.802   4.198 128.376  0.00  0.00    +0.000 S 
ATOM     16  O   UNL     1      -6.466   4.653 128.659  0.00  0.00    +0.000 OA
ATOM     17  O   UNL     1      -8.873   5.145 128.091  0.00  0.00    +0.000 OA
BRANCH  15  18
ATOM     18  N   UNL     1      -8.297   3.249 129.730  0.00  0.00    +0.000 NA
ATOM     19  C   UNL     1      -7.323   3.181 130.848  0.00  0.00    +0.000 C 
ATOM     20  C   UNL     1      -9.598   3.746 130.272  0.00  0.00    +0.000 C 
ENDBRANCH  15  18
ENDBRANCH  12  15
BRANCH   1  21
ATOM     21  C   UNL     1      -6.035  -0.950 126.977  0.00  0.00    +0.000 C 
BRANCH  21  23
ATOM     22  C   UNL     1      -5.663  -2.616 128.866  0.00  0.00    +0.000 C 
ATOM     23  C   UNL     1      -6.262  -1.272 128.516  0.00  0.00    +0.000 C 
BRANCH  23  24
ATOM     24  N   UNL     1      -7.671  -1.348 128.989  0.00  0.00    +0.000 NA
ATOM     25  C   UNL     1      -8.016  -2.738 129.362  0.00  0.00    +0.000 C 
ATOM     26  C   UNL     1      -7.860  -0.501 130.164  0.00  0.00    +0.000 C 
ENDBRANCH  23  24
ENDBRANCH  21  23
ENDBRANCH   1  21
TORSDOF 5
ENDMDL
