MODEL 1
REMARK VINA RESULT:      -7.4      0.000      0.000
REMARK  Name = Dimetindene
REMARK  8 active torsions:
REMARK  status: ('A' for Active; 'I' for Inactive)
REMARK    1  A    between atoms: C_1  and  C_2
REMARK    2  A    between atoms: C_2  and  C_3
REMARK    3  A    between atoms: C_2  and  C_17
REMARK    4  A    between atoms: C_4  and  C_5
REMARK    5  A    between atoms: C_5  and  C_6
REMARK    6  A    between atoms: C_6  and  N_7
REMARK    7  A    between atoms: N_7  and  C_8
REMARK    8  A    between atoms: N_7  and  C_9
REMARK                            x       y       z     vdW  Elec       q    Type
REMARK                         _______ _______ _______ _____ _____    ______ ____
ROOT
ATOM      1  C   UNL     1      -6.872   1.419 124.468  0.00  0.00    +0.000 C 
ATOM      2  C   UNL     1      -6.001   1.679 125.489  0.00  0.00    +0.000 C 
ATOM      3  C   UNL     1      -5.332   0.412 126.028  0.00  0.00    +0.000 C 
ATOM      4  C   UNL     1      -5.857  -0.644 125.101  0.00  0.00    +0.000 A 
ATOM      5  C   UNL     1      -5.568  -2.026 125.094  0.00  0.00    +0.000 A 
ATOM      6  C   UNL     1      -6.139  -2.877 124.138  0.00  0.00    +0.000 A 
ATOM      7  C   UNL     1      -6.960  -2.348 123.183  0.00  0.00    +0.000 A 
ATOM      8  C   UNL     1      -7.207  -0.985 123.215  0.00  0.00    +0.000 A 
ATOM      9  C   UNL     1      -6.726  -0.074 124.176  0.00  0.00    +0.000 A 
ENDROOT
BRANCH   1  11
ATOM     10  C   UNL     1      -9.287   1.956 123.840  0.00  0.00    +0.000 C 
ATOM     11  C   UNL     1      -7.845   2.533 123.909  0.00  0.00    +0.000 C 
BRANCH  11  12
ATOM     12  C   UNL     1      -7.683   3.215 122.559  0.00  0.00    +0.000 A 
ATOM     13  C   UNL     1      -6.407   3.557 122.234  0.00  0.00    +0.000 A 
ATOM     14  C   UNL     1      -5.988   3.688 120.932  0.00  0.00    +0.000 A 
ATOM     15  C   UNL     1      -6.955   3.925 120.012  0.00  0.00    +0.000 A 
ATOM     16  C   UNL     1      -8.280   3.908 120.455  0.00  0.00    +0.000 A 
ATOM     17  N   UNL     1      -8.665   3.493 121.698  0.00  0.00    +0.000 NA
ENDBRANCH  11  12
ENDBRANCH   1  11
BRANCH   2  18
ATOM     18  C   UNL     1      -5.664   3.008 126.186  0.00  0.00    +0.000 C 
BRANCH  18  19
ATOM     19  C   UNL     1      -4.233   3.568 125.979  0.00  0.00    +0.000 C 
BRANCH  19  20
ATOM     20  N   UNL     1      -3.286   3.547 127.095  0.00  0.00    +0.000 NA
ATOM     21  C   UNL     1      -2.013   3.120 126.546  0.00  0.00    +0.000 C 
ATOM     22  C   UNL     1      -3.203   4.921 127.643  0.00  0.00    +0.000 C 
ENDBRANCH  19  20
ENDBRANCH  18  19
ENDBRANCH   2  18
TORSDOF 5
ENDMDL
MODEL 2
REMARK VINA RESULT:      -7.2      2.114      6.224
REMARK  Name = Dimetindene
REMARK  8 active torsions:
REMARK  status: ('A' for Active; 'I' for Inactive)
REMARK    1  A    between atoms: C_1  and  C_2
REMARK    2  A    between atoms: C_2  and  C_3
REMARK    3  A    between atoms: C_2  and  C_17
REMARK    4  A    between atoms: C_4  and  C_5
REMARK    5  A    between atoms: C_5  and  C_6
REMARK    6  A    between atoms: C_6  and  N_7
REMARK    7  A    between atoms: N_7  and  C_8
REMARK    8  A    between atoms: N_7  and  C_9
REMARK                            x       y       z     vdW  Elec       q    Type
REMARK                         _______ _______ _______ _____ _____    ______ ____
ROOT
ATOM      1  C   UNL     1      -7.165   3.384 124.105  0.00  0.00    +0.000 C 
ATOM      2  C   UNL     1      -8.272   2.788 123.567  0.00  0.00    +0.000 C 
ATOM      3  C   UNL     1      -8.329   2.921 122.043  0.00  0.00    +0.000 C 
ATOM      4  C   UNL     1      -7.028   3.602 121.735  0.00  0.00    +0.000 A 
ATOM      5  C   UNL     1      -6.509   3.970 120.474  0.00  0.00    +0.000 A 
ATOM      6  C   UNL     1      -5.257   4.591 120.363  0.00  0.00    +0.000 A 
ATOM      7  C   UNL     1      -4.521   4.809 121.493  0.00  0.00    +0.000 A 
ATOM      8  C   UNL     1      -5.058   4.419 122.709  0.00  0.00    +0.000 A 
ATOM      9  C   UNL     1      -6.331   3.850 122.913  0.00  0.00    +0.000 A 
ENDROOT
BRANCH   1  11
ATOM     10  C   UNL     1      -7.908   4.754 126.126  0.00  0.00    +0.000 C 
ATOM     11  C   UNL     1      -7.008   3.574 125.667  0.00  0.00    +0.000 C 
BRANCH  11  12
ATOM     12  C   UNL     1      -5.687   3.855 126.368  0.00  0.00    +0.000 A 
ATOM     13  C   UNL     1      -4.785   2.837 126.333  0.00  0.00    +0.000 A 
ATOM     14  C   UNL     1      -3.431   3.049 126.429  0.00  0.00    +0.000 A 
ATOM     15  C   UNL     1      -3.045   4.208 127.015  0.00  0.00    +0.000 A 
ATOM     16  C   UNL     1      -4.049   5.114 127.365  0.00  0.00    +0.000 A 
ATOM     17  N   UNL     1      -5.357   4.988 126.993  0.00  0.00    +0.000 NA
ENDBRANCH  11  12
ENDBRANCH   1  11
BRANCH   2  18
ATOM     18  C   UNL     1      -9.452   2.087 124.259  0.00  0.00    +0.000 C 
BRANCH  18  19
ATOM     19  C   UNL     1     -10.000   0.801 123.587  0.00  0.00    +0.000 C 
BRANCH  19  20
ATOM     20  N   UNL     1      -9.577  -0.507 124.089  0.00  0.00    +0.000 NA
ATOM     21  C   UNL     1      -8.503  -0.953 123.222  0.00  0.00    +0.000 C 
ATOM     22  C   UNL     1      -9.105  -0.327 125.482  0.00  0.00    +0.000 C 
ENDBRANCH  19  20
ENDBRANCH  18  19
ENDBRANCH   2  18
TORSDOF 5
ENDMDL
MODEL 3
REMARK VINA RESULT:      -7.0      1.353      1.692
REMARK  Name = Dimetindene
REMARK  8 active torsions:
REMARK  status: ('A' for Active; 'I' for Inactive)
REMARK    1  A    between atoms: C_1  and  C_2
REMARK    2  A    between atoms: C_2  and  C_3
REMARK    3  A    between atoms: C_2  and  C_17
REMARK    4  A    between atoms: C_4  and  C_5
REMARK    5  A    between atoms: C_5  and  C_6
REMARK    6  A    between atoms: C_6  and  N_7
REMARK    7  A    between atoms: N_7  and  C_8
REMARK    8  A    between atoms: N_7  and  C_9
REMARK                            x       y       z     vdW  Elec       q    Type
REMARK                         _______ _______ _______ _____ _____    ______ ____
ROOT
ATOM      1  C   UNL     1      -7.683   0.784 124.419  0.00  0.00    +0.000 C 
ATOM      2  C   UNL     1      -7.523   0.874 125.775  0.00  0.00    +0.000 C 
ATOM      3  C   UNL     1      -6.780  -0.329 126.360  0.00  0.00    +0.000 C 
ATOM      4  C   UNL     1      -6.423  -1.112 125.131  0.00  0.00    +0.000 A 
ATOM      5  C   UNL     1      -5.703  -2.323 125.042  0.00  0.00    +0.000 A 
ATOM      6  C   UNL     1      -5.442  -2.917 123.799  0.00  0.00    +0.000 A 
ATOM      7  C   UNL     1      -5.865  -2.291 122.662  0.00  0.00    +0.000 A 
ATOM      8  C   UNL     1      -6.554  -1.095 122.790  0.00  0.00    +0.000 A 
ATOM      9  C   UNL     1      -6.913  -0.467 123.999  0.00  0.00    +0.000 A 
ENDROOT
BRANCH   1  11
ATOM     10  C   UNL     1      -9.748   0.987 122.935  0.00  0.00    +0.000 C 
ATOM     11  C   UNL     1      -8.612   1.789 123.629  0.00  0.00    +0.000 C 
BRANCH  11  12
ATOM     12  C   UNL     1      -8.128   2.722 122.530  0.00  0.00    +0.000 A 
ATOM     13  C   UNL     1      -6.790   2.969 122.529  0.00  0.00    +0.000 A 
ATOM     14  C   UNL     1      -6.108   3.326 121.391  0.00  0.00    +0.000 A 
ATOM     15  C   UNL     1      -6.847   3.873 120.395  0.00  0.00    +0.000 A 
ATOM     16  C   UNL     1      -8.232   3.921 120.577  0.00  0.00    +0.000 A 
ATOM     17  N   UNL     1      -8.891   3.297 121.597  0.00  0.00    +0.000 NA
ENDBRANCH  11  12
ENDBRANCH   1  11
BRANCH   2  18
ATOM     18  C   UNL     1      -8.024   1.943 126.760  0.00  0.00    +0.000 C 
BRANCH  18  19
ATOM     19  C   UNL     1      -7.184   3.241 126.877  0.00  0.00    +0.000 C 
BRANCH  19  20
ATOM     20  N   UNL     1      -5.879   3.313 126.219  0.00  0.00    +0.000 NA
ATOM     21  C   UNL     1      -5.755   4.662 125.698  0.00  0.00    +0.000 C 
ATOM     22  C   UNL     1      -4.841   3.033 127.239  0.00  0.00    +0.000 C 
ENDBRANCH  19  20
ENDBRANCH  18  19
ENDBRANCH   2  18
TORSDOF 5
ENDMDL
MODEL 4
REMARK VINA RESULT:      -7.0      2.285      5.753
REMARK  Name = Dimetindene
REMARK  8 active torsions:
REMARK  status: ('A' for Active; 'I' for Inactive)
REMARK    1  A    between atoms: C_1  and  C_2
REMARK    2  A    between atoms: C_2  and  C_3
REMARK    3  A    between atoms: C_2  and  C_17
REMARK    4  A    between atoms: C_4  and  C_5
REMARK    5  A    between atoms: C_5  and  C_6
REMARK    6  A    between atoms: C_6  and  N_7
REMARK    7  A    between atoms: N_7  and  C_8
REMARK    8  A    between atoms: N_7  and  C_9
REMARK                            x       y       z     vdW  Elec       q    Type
REMARK                         _______ _______ _______ _____ _____    ______ ____
ROOT
ATOM      1  C   UNL     1      -7.070   2.130 123.691  0.00  0.00    +0.000 C 
ATOM      2  C   UNL     1      -6.702   3.162 122.871  0.00  0.00    +0.000 C 
ATOM      3  C   UNL     1      -5.678   4.095 123.524  0.00  0.00    +0.000 C 
ATOM      4  C   UNL     1      -5.407   3.405 124.829  0.00  0.00    +0.000 A 
ATOM      5  C   UNL     1      -4.518   3.792 125.856  0.00  0.00    +0.000 A 
ATOM      6  C   UNL     1      -4.373   3.016 127.014  0.00  0.00    +0.000 A 
ATOM      7  C   UNL     1      -5.080   1.854 127.128  0.00  0.00    +0.000 A 
ATOM      8  C   UNL     1      -5.930   1.500 126.092  0.00  0.00    +0.000 A 
ATOM      9  C   UNL     1      -6.181   2.253 124.928  0.00  0.00    +0.000 A 
ENDROOT
BRANCH   1  11
ATOM     10  C   UNL     1      -9.507   1.563 124.190  0.00  0.00    +0.000 C 
ATOM     11  C   UNL     1      -8.275   1.175 123.325  0.00  0.00    +0.000 C 
BRANCH  11  12
ATOM     12  C   UNL     1      -8.235  -0.341 123.442  0.00  0.00    +0.000 A 
ATOM     13  C   UNL     1      -7.042  -0.914 123.131  0.00  0.00    +0.000 A 
ATOM     14  C   UNL     1      -6.650  -2.126 123.644  0.00  0.00    +0.000 A 
ATOM     15  C   UNL     1      -7.641  -2.941 124.081  0.00  0.00    +0.000 A 
ATOM     16  C   UNL     1      -8.942  -2.432 124.067  0.00  0.00    +0.000 A 
ATOM     17  N   UNL     1      -9.249  -1.125 123.817  0.00  0.00    +0.000 NA
ENDBRANCH  11  12
ENDBRANCH   1  11
BRANCH   2  18
ATOM     18  C   UNL     1      -7.204   3.535 121.467  0.00  0.00    +0.000 C 
BRANCH  18  19
ATOM     19  C   UNL     1      -6.190   4.224 120.518  0.00  0.00    +0.000 C 
BRANCH  19  20
ATOM     20  N   UNL     1      -6.532   4.396 119.105  0.00  0.00    +0.000 NA
ATOM     21  C   UNL     1      -7.981   4.386 119.029  0.00  0.00    +0.000 C 
ATOM     22  C   UNL     1      -5.978   5.697 118.661  0.00  0.00    +0.000 C 
ENDBRANCH  19  20
ENDBRANCH  18  19
ENDBRANCH   2  18
TORSDOF 5
ENDMDL
MODEL 5
REMARK VINA RESULT:      -6.7      2.286      5.217
REMARK  Name = Dimetindene
REMARK  8 active torsions:
REMARK  status: ('A' for Active; 'I' for Inactive)
REMARK    1  A    between atoms: C_1  and  C_2
REMARK    2  A    between atoms: C_2  and  C_3
REMARK    3  A    between atoms: C_2  and  C_17
REMARK    4  A    between atoms: C_4  and  C_5
REMARK    5  A    between atoms: C_5  and  C_6
REMARK    6  A    between atoms: C_6  and  N_7
REMARK    7  A    between atoms: N_7  and  C_8
REMARK    8  A    between atoms: N_7  and  C_9
REMARK                            x       y       z     vdW  Elec       q    Type
REMARK                         _______ _______ _______ _____ _____    ______ ____
ROOT
ATOM      1  C   UNL     1      -7.459   2.433 123.254  0.00  0.00    +0.000 C 
ATOM      2  C   UNL     1      -6.748   2.714 124.388  0.00  0.00    +0.000 C 
ATOM      3  C   UNL     1      -5.544   3.621 124.117  0.00  0.00    +0.000 C 
ATOM      4  C   UNL     1      -5.700   3.929 122.657  0.00  0.00    +0.000 A 
ATOM      5  C   UNL     1      -4.888   4.748 121.842  0.00  0.00    +0.000 A 
ATOM      6  C   UNL     1      -5.189   4.942 120.487  0.00  0.00    +0.000 A 
ATOM      7  C   UNL     1      -6.305   4.354 119.963  0.00  0.00    +0.000 A 
ATOM      8  C   UNL     1      -7.085   3.571 120.799  0.00  0.00    +0.000 A 
ATOM      9  C   UNL     1      -6.818   3.273 122.150  0.00  0.00    +0.000 A 
ENDROOT
BRANCH   1  11
ATOM     10  C   UNL     1      -9.774   1.829 124.141  0.00  0.00    +0.000 C 
ATOM     11  C   UNL     1      -8.601   1.340 123.246  0.00  0.00    +0.000 C 
BRANCH  11  12
ATOM     12  C   UNL     1      -8.411  -0.103 123.686  0.00  0.00    +0.000 A 
ATOM     13  C   UNL     1      -7.282  -0.705 123.222  0.00  0.00    +0.000 A 
ATOM     14  C   UNL     1      -6.682  -1.752 123.879  0.00  0.00    +0.000 A 
ATOM     15  C   UNL     1      -7.471  -2.463 124.721  0.00  0.00    +0.000 A 
ATOM     16  C   UNL     1      -8.775  -2.003 124.919  0.00  0.00    +0.000 A 
ATOM     17  N   UNL     1      -9.239  -0.800 124.468  0.00  0.00    +0.000 NA
ENDBRANCH  11  12
ENDBRANCH   1  11
BRANCH   2  18
ATOM     18  C   UNL     1      -6.944   2.213 125.827  0.00  0.00    +0.000 C 
BRANCH  18  19
ATOM     19  C   UNL     1      -6.041   1.042 126.294  0.00  0.00    +0.000 C 
BRANCH  19  20
ATOM     20  N   UNL     1      -6.569   0.064 127.247  0.00  0.00    +0.000 NA
ATOM     21  C   UNL     1      -5.681   0.087 128.394  0.00  0.00    +0.000 C 
ATOM     22  C   UNL     1      -7.939   0.488 127.618  0.00  0.00    +0.000 C 
ENDBRANCH  19  20
ENDBRANCH  18  19
ENDBRANCH   2  18
TORSDOF 5
ENDMDL
MODEL 6
REMARK VINA RESULT:      -6.6      2.627      2.981
REMARK  Name = Dimetindene
REMARK  8 active torsions:
REMARK  status: ('A' for Active; 'I' for Inactive)
REMARK    1  A    between atoms: C_1  and  C_2
REMARK    2  A    between atoms: C_2  and  C_3
REMARK    3  A    between atoms: C_2  and  C_17
REMARK    4  A    between atoms: C_4  and  C_5
REMARK    5  A    between atoms: C_5  and  C_6
REMARK    6  A    between atoms: C_6  and  N_7
REMARK    7  A    between atoms: N_7  and  C_8
REMARK    8  A    between atoms: N_7  and  C_9
REMARK                            x       y       z     vdW  Elec       q    Type
REMARK                         _______ _______ _______ _____ _____    ______ ____
ROOT
ATOM      1  C   UNL     1      -7.870   0.785 124.794  0.00  0.00    +0.000 C 
ATOM      2  C   UNL     1      -7.867   0.602 126.150  0.00  0.00    +0.000 C 
ATOM      3  C   UNL     1      -7.257  -0.742 126.560  0.00  0.00    +0.000 C 
ATOM      4  C   UNL     1      -6.797  -1.296 125.244  0.00  0.00    +0.000 A 
ATOM      5  C   UNL     1      -6.131  -2.516 124.992  0.00  0.00    +0.000 A 
ATOM      6  C   UNL     1      -5.754  -2.877 123.692  0.00  0.00    +0.000 A 
ATOM      7  C   UNL     1      -6.009  -2.016 122.663  0.00  0.00    +0.000 A 
ATOM      8  C   UNL     1      -6.650  -0.821 122.953  0.00  0.00    +0.000 A 
ATOM      9  C   UNL     1      -7.118  -0.413 124.218  0.00  0.00    +0.000 A 
ENDROOT
BRANCH   1  11
ATOM     10  C   UNL     1     -10.025   1.473 123.613  0.00  0.00    +0.000 C 
ATOM     11  C   UNL     1      -8.651   1.986 124.126  0.00  0.00    +0.000 C 
BRANCH  11  12
ATOM     12  C   UNL     1      -8.128   2.802 122.953  0.00  0.00    +0.000 A 
ATOM     13  C   UNL     1      -6.807   3.121 123.013  0.00  0.00    +0.000 A 
ATOM     14  C   UNL     1      -6.058   3.373 121.890  0.00  0.00    +0.000 A 
ATOM     15  C   UNL     1      -6.744   3.750 120.783  0.00  0.00    +0.000 A 
ATOM     16  C   UNL     1      -8.139   3.743 120.861  0.00  0.00    +0.000 A 
ATOM     17  N   UNL     1      -8.844   3.214 121.904  0.00  0.00    +0.000 NA
ENDBRANCH  11  12
ENDBRANCH   1  11
BRANCH   2  18
ATOM     18  C   UNL     1      -8.428   1.494 127.269  0.00  0.00    +0.000 C 
BRANCH  18  19
ATOM     19  C   UNL     1      -8.051   1.118 128.725  0.00  0.00    +0.000 C 
BRANCH  19  20
ATOM     20  N   UNL     1      -8.651   1.858 129.836  0.00  0.00    +0.000 NA
ATOM     21  C   UNL     1      -8.357   1.103 131.039  0.00  0.00    +0.000 C 
ATOM     22  C   UNL     1      -8.025   3.200 129.876  0.00  0.00    +0.000 C 
ENDBRANCH  19  20
ENDBRANCH  18  19
ENDBRANCH   2  18
TORSDOF 5
ENDMDL
MODEL 7
REMARK VINA RESULT:      -6.6      3.800      5.887
REMARK  Name = Dimetindene
REMARK  8 active torsions:
REMARK  status: ('A' for Active; 'I' for Inactive)
REMARK    1  A    between atoms: C_1  and  C_2
REMARK    2  A    between atoms: C_2  and  C_3
REMARK    3  A    between atoms: C_2  and  C_17
REMARK    4  A    between atoms: C_4  and  C_5
REMARK    5  A    between atoms: C_5  and  C_6
REMARK    6  A    between atoms: C_6  and  N_7
REMARK    7  A    between atoms: N_7  and  C_8
REMARK    8  A    between atoms: N_7  and  C_9
REMARK                            x       y       z     vdW  Elec       q    Type
REMARK                         _______ _______ _______ _____ _____    ______ ____
ROOT
ATOM      1  C   UNL     1      -8.060  -1.325 127.096  0.00  0.00    +0.000 C 
ATOM      2  C   UNL     1      -8.240  -2.492 127.787  0.00  0.00    +0.000 C 
ATOM      3  C   UNL     1      -8.818  -3.609 126.914  0.00  0.00    +0.000 C 
ATOM      4  C   UNL     1      -8.862  -2.964 125.561  0.00  0.00    +0.000 A 
ATOM      5  C   UNL     1      -9.288  -3.524 124.336  0.00  0.00    +0.000 A 
ATOM      6  C   UNL     1      -9.247  -2.779 123.149  0.00  0.00    +0.000 A 
ATOM      7  C   UNL     1      -8.756  -1.506 123.180  0.00  0.00    +0.000 A 
ATOM      8  C   UNL     1      -8.333  -0.997 124.398  0.00  0.00    +0.000 A 
ATOM      9  C   UNL     1      -8.399  -1.654 125.643  0.00  0.00    +0.000 A 
ENDROOT
BRANCH   1  11
ATOM     10  C   UNL     1      -8.640   1.148 127.334  0.00  0.00    +0.000 C 
ATOM     11  C   UNL     1      -7.692   0.023 127.835  0.00  0.00    +0.000 C 
BRANCH  11  12
ATOM     12  C   UNL     1      -6.321   0.681 127.788  0.00  0.00    +0.000 A 
ATOM     13  C   UNL     1      -5.753   0.746 126.554  0.00  0.00    +0.000 A 
ATOM     14  C   UNL     1      -4.828   1.704 126.217  0.00  0.00    +0.000 A 
ATOM     15  C   UNL     1      -4.159   2.279 127.246  0.00  0.00    +0.000 A 
ATOM     16  C   UNL     1      -4.545   1.923 128.541  0.00  0.00    +0.000 A 
ATOM     17  N   UNL     1      -5.657   1.184 128.831  0.00  0.00    +0.000 NA
ENDBRANCH  11  12
ENDBRANCH   1  11
BRANCH   2  18
ATOM     18  C   UNL     1      -8.012  -2.804 129.275  0.00  0.00    +0.000 C 
BRANCH  18  19
ATOM     19  C   UNL     1      -6.640  -3.410 129.665  0.00  0.00    +0.000 C 
BRANCH  19  20
ATOM     20  N   UNL     1      -5.507  -2.519 129.920  0.00  0.00    +0.000 NA
ATOM     21  C   UNL     1      -4.798  -3.070 131.059  0.00  0.00    +0.000 C 
ATOM     22  C   UNL     1      -4.655  -2.511 128.708  0.00  0.00    +0.000 C 
ENDBRANCH  19  20
ENDBRANCH  18  19
ENDBRANCH   2  18
TORSDOF 5
ENDMDL
MODEL 8
REMARK VINA RESULT:      -6.4      3.542      5.594
REMARK  Name = Dimetindene
REMARK  8 active torsions:
REMARK  status: ('A' for Active; 'I' for Inactive)
REMARK    1  A    between atoms: C_1  and  C_2
REMARK    2  A    between atoms: C_2  and  C_3
REMARK    3  A    between atoms: C_2  and  C_17
REMARK    4  A    between atoms: C_4  and  C_5
REMARK    5  A    between atoms: C_5  and  C_6
REMARK    6  A    between atoms: C_6  and  N_7
REMARK    7  A    between atoms: N_7  and  C_8
REMARK    8  A    between atoms: N_7  and  C_9
REMARK                            x       y       z     vdW  Elec       q    Type
REMARK                         _______ _______ _______ _____ _____    ______ ____
ROOT
ATOM      1  C   UNL     1      -7.924  -0.877 127.461  0.00  0.00    +0.000 C 
ATOM      2  C   UNL     1      -8.026   0.390 127.966  0.00  0.00    +0.000 C 
ATOM      3  C   UNL     1      -7.868   0.430 129.488  0.00  0.00    +0.000 C 
ATOM      4  C   UNL     1      -7.550  -0.999 129.813  0.00  0.00    +0.000 A 
ATOM      5  C   UNL     1      -7.277  -1.572 131.074  0.00  0.00    +0.000 A 
ATOM      6  C   UNL     1      -6.981  -2.937 131.198  0.00  0.00    +0.000 A 
ATOM      7  C   UNL     1      -6.925  -3.709 130.073  0.00  0.00    +0.000 A 
ATOM      8  C   UNL     1      -7.183  -3.107 128.852  0.00  0.00    +0.000 A 
ATOM      9  C   UNL     1      -7.550  -1.762 128.648  0.00  0.00    +0.000 A 
ENDROOT
BRANCH   1  11
ATOM     10  C   UNL     1      -9.223  -2.427 125.906  0.00  0.00    +0.000 C 
ATOM     11  C   UNL     1      -8.279  -1.194 125.953  0.00  0.00    +0.000 C 
BRANCH  11  12
ATOM     12  C   UNL     1      -7.250  -1.507 124.877  0.00  0.00    +0.000 A 
ATOM     13  C   UNL     1      -6.153  -2.187 125.307  0.00  0.00    +0.000 A 
ATOM     14  C   UNL     1      -5.406  -2.984 124.473  0.00  0.00    +0.000 A 
ATOM     15  C   UNL     1      -5.499  -2.718 123.147  0.00  0.00    +0.000 A 
ATOM     16  C   UNL     1      -6.417  -1.741 122.753  0.00  0.00    +0.000 A 
ATOM     17  N   UNL     1      -7.340  -1.177 123.587  0.00  0.00    +0.000 NA
ENDBRANCH  11  12
ENDBRANCH   1  11
BRANCH   2  18
ATOM     18  C   UNL     1      -8.330   1.717 127.252  0.00  0.00    +0.000 C 
BRANCH  18  19
ATOM     19  C   UNL     1      -7.391   2.121 126.087  0.00  0.00    +0.000 C 
BRANCH  19  20
ATOM     20  N   UNL     1      -7.881   3.036 125.054  0.00  0.00    +0.000 NA
ATOM     21  C   UNL     1      -6.727   3.415 124.260  0.00  0.00    +0.000 C 
ATOM     22  C   UNL     1      -8.879   2.305 124.238  0.00  0.00    +0.000 C 
ENDBRANCH  19  20
ENDBRANCH  18  19
ENDBRANCH   2  18
TORSDOF 5
ENDMDL
MODEL 9
REMARK VINA RESULT:      -6.4      5.780      7.479
REMARK  Name = Dimetindene
REMARK  8 active torsions:
REMARK  status: ('A' for Active; 'I' for Inactive)
REMARK    1  A    between atoms: C_1  and  C_2
REMARK    2  A    between atoms: C_2  and  C_3
REMARK    3  A    between atoms: C_2  and  C_17
REMARK    4  A    between atoms: C_4  and  C_5
REMARK    5  A    between atoms: C_5  and  C_6
REMARK    6  A    between atoms: C_6  and  N_7
REMARK    7  A    between atoms: N_7  and  C_8
REMARK    8  A    between atoms: N_7  and  C_9
REMARK                            x       y       z     vdW  Elec       q    Type
REMARK                         _______ _______ _______ _____ _____    ______ ____
ROOT
ATOM      1  C   UNL     1      -7.506  -2.323 129.922  0.00  0.00    +0.000 C 
ATOM      2  C   UNL     1      -7.683  -1.314 130.827  0.00  0.00    +0.000 C 
ATOM      3  C   UNL     1      -7.122  -1.658 132.209  0.00  0.00    +0.000 C 
ATOM      4  C   UNL     1      -6.484  -2.994 131.969  0.00  0.00    +0.000 A 
ATOM      5  C   UNL     1      -5.779  -3.806 132.885  0.00  0.00    +0.000 A 
ATOM      6  C   UNL     1      -5.228  -5.032 132.487  0.00  0.00    +0.000 A 
ATOM      7  C   UNL     1      -5.350  -5.423 131.184  0.00  0.00    +0.000 A 
ATOM      8  C   UNL     1      -6.035  -4.592 130.312  0.00  0.00    +0.000 A 
ATOM      9  C   UNL     1      -6.672  -3.380 130.645  0.00  0.00    +0.000 A 
ENDROOT
BRANCH   1  11
ATOM     10  C   UNL     1      -8.731  -3.711 128.166  0.00  0.00    +0.000 C 
ATOM     11  C   UNL     1      -8.200  -2.290 128.502  0.00  0.00    +0.000 C 
BRANCH  11  12
ATOM     12  C   UNL     1      -7.504  -1.869 127.216  0.00  0.00    +0.000 A 
ATOM     13  C   UNL     1      -6.166  -2.107 127.179  0.00  0.00    +0.000 A 
ATOM     14  C   UNL     1      -5.482  -2.287 126.001  0.00  0.00    +0.000 A 
ATOM     15  C   UNL     1      -6.058  -1.771 124.888  0.00  0.00    +0.000 A 
ATOM     16  C   UNL     1      -7.328  -1.207 125.027  0.00  0.00    +0.000 A 
ATOM     17  N   UNL     1      -8.089  -1.304 126.157  0.00  0.00    +0.000 NA
ENDBRANCH  11  12
ENDBRANCH   1  11
BRANCH   2  18
ATOM     18  C   UNL     1      -8.398   0.039 130.672  0.00  0.00    +0.000 C 
BRANCH  18  19
ATOM     19  C   UNL     1      -9.335   0.476 131.826  0.00  0.00    +0.000 C 
BRANCH  19  20
ATOM     20  N   UNL     1      -9.242   1.840 132.349  0.00  0.00    +0.000 NA
ATOM     21  C   UNL     1      -7.883   2.004 132.830  0.00  0.00    +0.000 C 
ATOM     22  C   UNL     1      -9.534   2.773 131.235  0.00  0.00    +0.000 C 
ENDBRANCH  19  20
ENDBRANCH  18  19
ENDBRANCH   2  18
TORSDOF 5
ENDMDL
