MODEL 1
REMARK VINA RESULT:      -3.0      0.000      0.000
REMARK  Name = Dimercaprol
REMARK  5 active torsions:
REMARK  status: ('A' for Active; 'I' for Inactive)
REMARK    1  A    between atoms: O_1  and  C_2
REMARK    2  A    between atoms: C_2  and  C_3
REMARK    3  A    between atoms: C_3  and  S_4
REMARK    4  A    between atoms: C_3  and  C_5
REMARK    5  A    between atoms: C_5  and  S_6
REMARK                            x       y       z     vdW  Elec       q    Type
REMARK                         _______ _______ _______ _____ _____    ______ ____
ROOT
ATOM      1  C   UNL     1     -12.001   8.237 128.070  0.00  0.00    +0.000 C 
ENDROOT
BRANCH   1   2
ATOM      2  S   UNL     1     -13.607   7.358 127.854  0.00  0.00    +0.000 S 
ATOM      3  H   UNL     1     -13.499   6.549 128.916  0.00  0.00    +0.000 HD
ENDBRANCH   1   2
BRANCH   1   4
ATOM      4  C   UNL     1     -11.009   7.801 126.974  0.00  0.00    +0.000 C 
BRANCH   4   5
ATOM      5  O   UNL     1     -11.506   6.685 126.244  0.00  0.00    +0.000 OA
ATOM      6  H   UNL     1     -10.809   6.005 126.230  0.00  0.00    +0.000 HD
ENDBRANCH   4   5
ENDBRANCH   1   4
BRANCH   1   7
ATOM      7  C   UNL     1     -11.382   7.991 129.456  0.00  0.00    +0.000 C 
BRANCH   7   8
ATOM      8  S   UNL     1     -12.512   7.282 130.702  0.00  0.00    +0.000 S 
ATOM      9  H   UNL     1     -11.759   7.546 131.781  0.00  0.00    +0.000 HD
ENDBRANCH   7   8
ENDBRANCH   1   7
TORSDOF 5
ENDMDL
MODEL 2
REMARK VINA RESULT:      -2.9      2.930      3.386
REMARK  Name = Dimercaprol
REMARK  5 active torsions:
REMARK  status: ('A' for Active; 'I' for Inactive)
REMARK    1  A    between atoms: O_1  and  C_2
REMARK    2  A    between atoms: C_2  and  C_3
REMARK    3  A    between atoms: C_3  and  S_4
REMARK    4  A    between atoms: C_3  and  C_5
REMARK    5  A    between atoms: C_5  and  S_6
REMARK                            x       y       z     vdW  Elec       q    Type
REMARK                         _______ _______ _______ _____ _____    ______ ____
ROOT
ATOM      1  C   UNL     1     -12.368   6.481 129.435  0.00  0.00    +0.000 C 
ENDROOT
BRANCH   1   2
ATOM      2  S   UNL     1     -13.574   7.115 128.193  0.00  0.00    +0.000 S 
ATOM      3  H   UNL     1     -14.170   8.017 128.983  0.00  0.00    +0.000 HD
ENDBRANCH   1   2
BRANCH   1   4
ATOM      4  C   UNL     1     -12.690   7.061 130.826  0.00  0.00    +0.000 C 
BRANCH   4   5
ATOM      5  O   UNL     1     -12.211   6.212 131.862  0.00  0.00    +0.000 OA
ATOM      6  H   UNL     1     -12.446   5.296 131.628  0.00  0.00    +0.000 HD
ENDBRANCH   4   5
ENDBRANCH   1   4
BRANCH   1   7
ATOM      7  C   UNL     1     -10.914   6.812 129.060  0.00  0.00    +0.000 C 
BRANCH   7   8
ATOM      8  S   UNL     1     -10.685   8.345 128.096  0.00  0.00    +0.000 S 
ATOM      9  H   UNL     1      -9.653   8.833 128.801  0.00  0.00    +0.000 HD
ENDBRANCH   7   8
ENDBRANCH   1   7
TORSDOF 5
ENDMDL
MODEL 3
REMARK VINA RESULT:      -2.8      2.678      2.929
REMARK  Name = Dimercaprol
REMARK  5 active torsions:
REMARK  status: ('A' for Active; 'I' for Inactive)
REMARK    1  A    between atoms: O_1  and  C_2
REMARK    2  A    between atoms: C_2  and  C_3
REMARK    3  A    between atoms: C_3  and  S_4
REMARK    4  A    between atoms: C_3  and  C_5
REMARK    5  A    between atoms: C_5  and  S_6
REMARK                            x       y       z     vdW  Elec       q    Type
REMARK                         _______ _______ _______ _____ _____    ______ ____
ROOT
ATOM      1  C   UNL     1     -12.669   8.362 128.571  0.00  0.00    +0.000 C 
ENDROOT
BRANCH   1   2
ATOM      2  S   UNL     1     -10.887   8.358 128.096  0.00  0.00    +0.000 S 
ATOM      3  H   UNL     1     -11.011   7.615 126.989  0.00  0.00    +0.000 HD
ENDBRANCH   1   2
BRANCH   1   4
ATOM      4  C   UNL     1     -12.994   9.628 129.387  0.00  0.00    +0.000 C 
BRANCH   4   5
ATOM      5  O   UNL     1     -13.631  10.612 128.580  0.00  0.00    +0.000 OA
ATOM      6  H   UNL     1     -13.753  10.233 127.690  0.00  0.00    +0.000 HD
ENDBRANCH   4   5
ENDBRANCH   1   4
BRANCH   1   7
ATOM      7  C   UNL     1     -13.061   7.112 129.375  0.00  0.00    +0.000 C 
BRANCH   7   8
ATOM      8  S   UNL     1     -12.437   7.057 131.090  0.00  0.00    +0.000 S 
ATOM      9  H   UNL     1     -13.414   6.293 131.600  0.00  0.00    +0.000 HD
ENDBRANCH   7   8
ENDBRANCH   1   7
TORSDOF 5
ENDMDL
MODEL 4
REMARK VINA RESULT:      -2.8      1.744      2.089
REMARK  Name = Dimercaprol
REMARK  5 active torsions:
REMARK  status: ('A' for Active; 'I' for Inactive)
REMARK    1  A    between atoms: O_1  and  C_2
REMARK    2  A    between atoms: C_2  and  C_3
REMARK    3  A    between atoms: C_3  and  S_4
REMARK    4  A    between atoms: C_3  and  C_5
REMARK    5  A    between atoms: C_5  and  S_6
REMARK                            x       y       z     vdW  Elec       q    Type
REMARK                         _______ _______ _______ _____ _____    ______ ____
ROOT
ATOM      1  C   UNL     1     -11.678   7.259 127.984  0.00  0.00    +0.000 C 
ENDROOT
BRANCH   1   2
ATOM      2  S   UNL     1     -10.511   7.624 129.364  0.00  0.00    +0.000 S 
ATOM      3  H   UNL     1      -9.609   8.304 128.645  0.00  0.00    +0.000 HD
ENDBRANCH   1   2
BRANCH   1   4
ATOM      4  C   UNL     1     -11.007   7.565 126.631  0.00  0.00    +0.000 C 
BRANCH   4   5
ATOM      5  O   UNL     1     -10.309   6.429 126.133  0.00  0.00    +0.000 OA
ATOM      6  H   UNL     1      -9.550   6.265 126.721  0.00  0.00    +0.000 HD
ENDBRANCH   4   5
ENDBRANCH   1   4
BRANCH   1   7
ATOM      7  C   UNL     1     -12.989   8.053 128.103  0.00  0.00    +0.000 C 
BRANCH   7   8
ATOM      8  S   UNL     1     -12.944   9.472 129.251  0.00  0.00    +0.000 S 
ATOM      9  H   UNL     1     -13.702  10.303 128.520  0.00  0.00    +0.000 HD
ENDBRANCH   7   8
ENDBRANCH   1   7
TORSDOF 5
ENDMDL
MODEL 5
REMARK VINA RESULT:      -2.7      2.784      3.801
REMARK  Name = Dimercaprol
REMARK  5 active torsions:
REMARK  status: ('A' for Active; 'I' for Inactive)
REMARK    1  A    between atoms: O_1  and  C_2
REMARK    2  A    between atoms: C_2  and  C_3
REMARK    3  A    between atoms: C_3  and  S_4
REMARK    4  A    between atoms: C_3  and  C_5
REMARK    5  A    between atoms: C_5  and  S_6
REMARK                            x       y       z     vdW  Elec       q    Type
REMARK                         _______ _______ _______ _____ _____    ______ ____
ROOT
ATOM      1  C   UNL     1     -11.415   7.516 129.999  0.00  0.00    +0.000 C 
ENDROOT
BRANCH   1   2
ATOM      2  S   UNL     1      -9.856   6.703 130.552  0.00  0.00    +0.000 S 
ATOM      3  H   UNL     1      -9.484   6.226 129.357  0.00  0.00    +0.000 HD
ENDBRANCH   1   2
BRANCH   1   4
ATOM      4  C   UNL     1     -12.578   7.113 130.927  0.00  0.00    +0.000 C 
BRANCH   4   5
ATOM      5  O   UNL     1     -12.158   6.155 131.892  0.00  0.00    +0.000 OA
ATOM      6  H   UNL     1     -11.463   5.608 131.485  0.00  0.00    +0.000 HD
ENDBRANCH   4   5
ENDBRANCH   1   4
BRANCH   1   7
ATOM      7  C   UNL     1     -11.771   7.170 128.544  0.00  0.00    +0.000 C 
BRANCH   7   8
ATOM      8  S   UNL     1     -13.556   7.081 128.175  0.00  0.00    +0.000 S 
ATOM      9  H   UNL     1     -13.932   6.474 129.311  0.00  0.00    +0.000 HD
ENDBRANCH   7   8
ENDBRANCH   1   7
TORSDOF 5
ENDMDL
MODEL 6
REMARK VINA RESULT:      -2.6      3.424      4.186
REMARK  Name = Dimercaprol
REMARK  5 active torsions:
REMARK  status: ('A' for Active; 'I' for Inactive)
REMARK    1  A    between atoms: O_1  and  C_2
REMARK    2  A    between atoms: C_2  and  C_3
REMARK    3  A    between atoms: C_3  and  S_4
REMARK    4  A    between atoms: C_3  and  C_5
REMARK    5  A    between atoms: C_5  and  S_6
REMARK                            x       y       z     vdW  Elec       q    Type
REMARK                         _______ _______ _______ _____ _____    ______ ____
ROOT
ATOM      1  C   UNL     1     -10.682   6.540 130.467  0.00  0.00    +0.000 C 
ENDROOT
BRANCH   1   2
ATOM      2  S   UNL     1     -12.352   7.070 131.040  0.00  0.00    +0.000 S 
ATOM      3  H   UNL     1     -13.066   6.251 130.256  0.00  0.00    +0.000 HD
ENDBRANCH   1   2
BRANCH   1   4
ATOM      4  C   UNL     1      -9.794   6.195 131.678  0.00  0.00    +0.000 C 
BRANCH   4   5
ATOM      5  O   UNL     1     -10.480   6.431 132.903  0.00  0.00    +0.000 OA
ATOM      6  H   UNL     1     -11.268   6.968 132.704  0.00  0.00    +0.000 HD
ENDBRANCH   4   5
ENDBRANCH   1   4
BRANCH   1   7
ATOM      7  C   UNL     1      -9.992   7.612 129.607  0.00  0.00    +0.000 C 
BRANCH   7   8
ATOM      8  S   UNL     1     -11.011   8.313 128.265  0.00  0.00    +0.000 S 
ATOM      9  H   UNL     1     -10.442   7.641 127.253  0.00  0.00    +0.000 HD
ENDBRANCH   7   8
ENDBRANCH   1   7
TORSDOF 5
ENDMDL
MODEL 7
REMARK VINA RESULT:      -2.6      1.761      1.897
REMARK  Name = Dimercaprol
REMARK  5 active torsions:
REMARK  status: ('A' for Active; 'I' for Inactive)
REMARK    1  A    between atoms: O_1  and  C_2
REMARK    2  A    between atoms: C_2  and  C_3
REMARK    3  A    between atoms: C_3  and  S_4
REMARK    4  A    between atoms: C_3  and  C_5
REMARK    5  A    between atoms: C_5  and  S_6
REMARK                            x       y       z     vdW  Elec       q    Type
REMARK                         _______ _______ _______ _____ _____    ______ ____
ROOT
ATOM      1  C   UNL     1     -12.261   8.049 129.312  0.00  0.00    +0.000 C 
ENDROOT
BRANCH   1   2
ATOM      2  S   UNL     1     -13.253   7.270 127.967  0.00  0.00    +0.000 S 
ATOM      3  H   UNL     1     -14.207   6.745 128.745  0.00  0.00    +0.000 HD
ENDBRANCH   1   2
BRANCH   1   4
ATOM      4  C   UNL     1     -10.771   7.696 129.141  0.00  0.00    +0.000 C 
BRANCH   4   5
ATOM      5  O   UNL     1     -10.140   8.566 128.209  0.00  0.00    +0.000 OA
ATOM      6  H   UNL     1     -10.439   9.474 128.399  0.00  0.00    +0.000 HD
ENDBRANCH   4   5
ENDBRANCH   1   4
BRANCH   1   7
ATOM      7  C   UNL     1     -12.737   7.621 130.710  0.00  0.00    +0.000 C 
BRANCH   7   8
ATOM      8  S   UNL     1     -11.625   6.479 131.600  0.00  0.00    +0.000 S 
ATOM      9  H   UNL     1     -10.469   7.047 131.227  0.00  0.00    +0.000 HD
ENDBRANCH   7   8
ENDBRANCH   1   7
TORSDOF 5
ENDMDL
MODEL 8
REMARK VINA RESULT:      -2.6      3.198      3.647
REMARK  Name = Dimercaprol
REMARK  5 active torsions:
REMARK  status: ('A' for Active; 'I' for Inactive)
REMARK    1  A    between atoms: O_1  and  C_2
REMARK    2  A    between atoms: C_2  and  C_3
REMARK    3  A    between atoms: C_3  and  S_4
REMARK    4  A    between atoms: C_3  and  C_5
REMARK    5  A    between atoms: C_5  and  S_6
REMARK                            x       y       z     vdW  Elec       q    Type
REMARK                         _______ _______ _______ _____ _____    ______ ____
ROOT
ATOM      1  C   UNL     1     -11.630   7.133 129.811  0.00  0.00    +0.000 C 
ENDROOT
BRANCH   1   2
ATOM      2  S   UNL     1     -12.034   8.582 128.745  0.00  0.00    +0.000 S 
ATOM      3  H   UNL     1     -13.131   8.974 129.406  0.00  0.00    +0.000 HD
ENDBRANCH   1   2
BRANCH   1   4
ATOM      4  C   UNL     1     -12.473   7.175 131.100  0.00  0.00    +0.000 C 
BRANCH   4   5
ATOM      5  O   UNL     1     -12.115   6.120 131.986  0.00  0.00    +0.000 OA
ATOM      6  H   UNL     1     -12.445   5.286 131.604  0.00  0.00    +0.000 HD
ENDBRANCH   4   5
ENDBRANCH   1   4
BRANCH   1   7
ATOM      7  C   UNL     1     -10.136   7.072 130.172  0.00  0.00    +0.000 C 
BRANCH   7   8
ATOM      8  S   UNL     1      -9.277   5.535 129.688  0.00  0.00    +0.000 S 
ATOM      9  H   UNL     1      -8.026   6.012 129.764  0.00  0.00    +0.000 HD
ENDBRANCH   7   8
ENDBRANCH   1   7
TORSDOF 5
ENDMDL
MODEL 9
REMARK VINA RESULT:      -2.5     11.322     11.845
REMARK  Name = Dimercaprol
REMARK  5 active torsions:
REMARK  status: ('A' for Active; 'I' for Inactive)
REMARK    1  A    between atoms: O_1  and  C_2
REMARK    2  A    between atoms: C_2  and  C_3
REMARK    3  A    between atoms: C_3  and  S_4
REMARK    4  A    between atoms: C_3  and  C_5
REMARK    5  A    between atoms: C_5  and  S_6
REMARK                            x       y       z     vdW  Elec       q    Type
REMARK                         _______ _______ _______ _____ _____    ______ ____
ROOT
ATOM      1  C   UNL     1      -8.356  -1.866 122.817  0.00  0.00    +0.000 C 
ENDROOT
BRANCH   1   2
ATOM      2  S   UNL     1      -8.983  -0.278 123.514  0.00  0.00    +0.000 S 
ATOM      3  H   UNL     1      -8.076  -0.156 124.492  0.00  0.00    +0.000 HD
ENDBRANCH   1   2
BRANCH   1   4
ATOM      4  C   UNL     1      -8.819  -3.046 123.693  0.00  0.00    +0.000 C 
BRANCH   4   5
ATOM      5  O   UNL     1     -10.151  -3.433 123.374  0.00  0.00    +0.000 OA
ATOM      6  H   UNL     1     -10.694  -2.625 123.332  0.00  0.00    +0.000 HD
ENDBRANCH   4   5
ENDBRANCH   1   4
BRANCH   1   7
ATOM      7  C   UNL     1      -6.824  -1.884 122.691  0.00  0.00    +0.000 C 
BRANCH   7   8
ATOM      8  S   UNL     1      -5.945  -2.831 123.981  0.00  0.00    +0.000 S 
ATOM      9  H   UNL     1      -4.760  -2.905 123.356  0.00  0.00    +0.000 HD
ENDBRANCH   7   8
ENDBRANCH   1   7
TORSDOF 5
ENDMDL
