MODEL 1
REMARK VINA RESULT:      -6.5      0.000      0.000
REMARK  Name = Dinoprost
REMARK  17 active torsions:
REMARK  status: ('A' for Active; 'I' for Inactive)
REMARK    1  A    between atoms: C_2  and  C_3
REMARK    2  A    between atoms: C_3  and  C_4
REMARK    3  A    between atoms: C_4  and  C_5
REMARK    4  A    between atoms: C_5  and  C_6
REMARK    5  A    between atoms: C_6  and  O_7
REMARK    6  A    between atoms: C_9  and  C_11
REMARK    7  A    between atoms: C_11  and  C_12
REMARK    8  A    between atoms: C_14  and  O_16
REMARK    9  A    between atoms: C_18  and  O_20
REMARK   10  A    between atoms: C_21  and  C_23
REMARK   11  A    between atoms: C_25  and  C_27
REMARK   12  A    between atoms: C_27  and  O_29
REMARK   13  A    between atoms: C_27  and  C_30
REMARK   14  A    between atoms: C_30  and  C_31
REMARK   15  A    between atoms: C_31  and  C_32
REMARK   16  A    between atoms: C_32  and  C_33
REMARK   17  A    between atoms: C_33  and  C_34
REMARK                            x       y       z     vdW  Elec       q    Type
REMARK                         _______ _______ _______ _____ _____    ______ ____
ROOT
ATOM      1  C   UNL     1      -7.590   1.789 123.351  0.00  0.00    +0.000 C 
ATOM      2  C   UNL     1      -7.539   2.751 122.160  0.00  0.00    +0.000 C 
ATOM      3  C   UNL     1      -6.178   3.418 122.313  0.00  0.00    +0.000 C 
ATOM      4  C   UNL     1      -6.021   3.618 123.821  0.00  0.00    +0.000 C 
ATOM      5  C   UNL     1      -6.921   2.570 124.507  0.00  0.00    +0.000 C 
ENDROOT
BRANCH   2   6
ATOM      6  O   UNL     1      -8.498   3.796 122.214  0.00  0.00    +0.000 OA
ATOM      7  H   UNL     1      -9.216   3.540 121.605  0.00  0.00    +0.000 HD
ENDBRANCH   2   6
BRANCH   5   8
ATOM      8  C   UNL     1      -6.136   1.654 125.418  0.00  0.00    +0.000 C 
ATOM      9  C   UNL     1      -6.473   0.386 125.693  0.00  0.00    +0.000 C 
BRANCH   9  10
ATOM     10  C   UNL     1      -5.685  -0.540 126.551  0.00  0.00    +0.000 C 
BRANCH  10  11
ATOM     11  O   UNL     1      -6.448  -0.831 127.711  0.00  0.00    +0.000 OA
ATOM     12  H   UNL     1      -6.060  -1.622 128.118  0.00  0.00    +0.000 HD
ENDBRANCH  10  11
BRANCH  10  13
ATOM     13  C   UNL     1      -5.399  -1.836 125.797  0.00  0.00    +0.000 C 
BRANCH  13  14
ATOM     14  C   UNL     1      -5.720  -1.660 124.322  0.00  0.00    +0.000 C 
BRANCH  14  15
ATOM     15  C   UNL     1      -4.941  -2.655 123.481  0.00  0.00    +0.000 C 
BRANCH  15  16
ATOM     16  C   UNL     1      -5.190  -4.068 123.987  0.00  0.00    +0.000 C 
ATOM     17  C   UNL     1      -4.176  -5.027 123.398  0.00  0.00    +0.000 C 
ENDBRANCH  15  16
ENDBRANCH  14  15
ENDBRANCH  13  14
ENDBRANCH  10  13
ENDBRANCH   9  10
ENDBRANCH   5   8
BRANCH   4  18
ATOM     18  O   UNL     1      -6.434   4.930 124.201  0.00  0.00    +0.000 OA
ATOM     19  H   UNL     1      -6.476   5.465 123.384  0.00  0.00    +0.000 HD
ENDBRANCH   4  18
BRANCH   1  20
ATOM     20  C   UNL     1      -8.918   1.165 123.807  0.00  0.00    +0.000 C 
BRANCH  20  22
ATOM     21  C   UNL     1      -9.836  -0.622 122.355  0.00  0.00    +0.000 C 
ATOM     22  C   UNL     1      -9.893   0.628 122.819  0.00  0.00    +0.000 C 
BRANCH  21  23
ATOM     23  C   UNL     1      -8.796  -1.599 122.793  0.00  0.00    +0.000 C 
BRANCH  23  24
ATOM     24  C   UNL     1      -9.494  -2.842 123.290  0.00  0.00    +0.000 C 
BRANCH  24  25
ATOM     25  C   UNL     1      -8.835  -3.370 124.547  0.00  0.00    +0.000 C 
BRANCH  25  26
ATOM     26  C   UNL     1      -9.108  -2.553 125.784  0.00  0.00    +0.000 C 
ATOM     27  O   UNL     1      -9.880  -1.598 125.765  0.00  0.00    +0.000 OA
BRANCH  26  28
ATOM     28  O   UNL     1      -8.470  -2.907 126.915  0.00  0.00    +0.000 OA
ATOM     29  H   UNL     1      -8.403  -3.855 127.125  0.00  0.00    +0.000 HD
ENDBRANCH  26  28
ENDBRANCH  25  26
ENDBRANCH  24  25
ENDBRANCH  23  24
ENDBRANCH  21  23
ENDBRANCH  20  22
ENDBRANCH   1  20
TORSDOF 16
ENDMDL
MODEL 2
REMARK VINA RESULT:      -6.3      2.360      5.919
REMARK  Name = Dinoprost
REMARK  17 active torsions:
REMARK  status: ('A' for Active; 'I' for Inactive)
REMARK    1  A    between atoms: C_2  and  C_3
REMARK    2  A    between atoms: C_3  and  C_4
REMARK    3  A    between atoms: C_4  and  C_5
REMARK    4  A    between atoms: C_5  and  C_6
REMARK    5  A    between atoms: C_6  and  O_7
REMARK    6  A    between atoms: C_9  and  C_11
REMARK    7  A    between atoms: C_11  and  C_12
REMARK    8  A    between atoms: C_14  and  O_16
REMARK    9  A    between atoms: C_18  and  O_20
REMARK   10  A    between atoms: C_21  and  C_23
REMARK   11  A    between atoms: C_25  and  C_27
REMARK   12  A    between atoms: C_27  and  O_29
REMARK   13  A    between atoms: C_27  and  C_30
REMARK   14  A    between atoms: C_30  and  C_31
REMARK   15  A    between atoms: C_31  and  C_32
REMARK   16  A    between atoms: C_32  and  C_33
REMARK   17  A    between atoms: C_33  and  C_34
REMARK                            x       y       z     vdW  Elec       q    Type
REMARK                         _______ _______ _______ _____ _____    ______ ____
ROOT
ATOM      1  C   UNL     1      -5.795  -1.799 128.207  0.00  0.00    +0.000 C 
ATOM      2  C   UNL     1      -4.886  -2.345 129.312  0.00  0.00    +0.000 C 
ATOM      3  C   UNL     1      -5.634  -3.581 129.795  0.00  0.00    +0.000 C 
ATOM      4  C   UNL     1      -7.106  -3.168 129.768  0.00  0.00    +0.000 C 
ATOM      5  C   UNL     1      -7.230  -2.022 128.743  0.00  0.00    +0.000 C 
ENDROOT
BRANCH   2   6
ATOM      6  O   UNL     1      -4.762  -1.493 130.440  0.00  0.00    +0.000 OA
ATOM      7  H   UNL     1      -5.653  -1.428 130.832  0.00  0.00    +0.000 HD
ENDBRANCH   2   6
BRANCH   5   8
ATOM      8  C   UNL     1      -8.195  -2.356 127.629  0.00  0.00    +0.000 C 
ATOM      9  C   UNL     1      -7.850  -2.957 126.480  0.00  0.00    +0.000 C 
BRANCH   9  10
ATOM     10  C   UNL     1      -8.797  -3.333 125.396  0.00  0.00    +0.000 C 
BRANCH  10  11
ATOM     11  O   UNL     1      -9.699  -2.256 125.199  0.00  0.00    +0.000 OA
ATOM     12  H   UNL     1     -10.245  -2.477 124.428  0.00  0.00    +0.000 HD
ENDBRANCH  10  11
BRANCH  10  13
ATOM     13  C   UNL     1      -8.032  -3.594 124.101  0.00  0.00    +0.000 C 
BRANCH  13  14
ATOM     14  C   UNL     1      -7.359  -2.317 123.629  0.00  0.00    +0.000 C 
BRANCH  14  15
ATOM     15  C   UNL     1      -5.940  -2.597 123.167  0.00  0.00    +0.000 C 
BRANCH  15  16
ATOM     16  C   UNL     1      -5.200  -3.402 124.225  0.00  0.00    +0.000 C 
ATOM     17  C   UNL     1      -4.274  -4.407 123.572  0.00  0.00    +0.000 C 
ENDBRANCH  15  16
ENDBRANCH  14  15
ENDBRANCH  13  14
ENDBRANCH  10  13
ENDBRANCH   9  10
ENDBRANCH   5   8
BRANCH   4  18
ATOM     18  O   UNL     1      -7.526  -2.712 131.053  0.00  0.00    +0.000 OA
ATOM     19  H   UNL     1      -6.723  -2.423 131.529  0.00  0.00    +0.000 HD
ENDBRANCH   4  18
BRANCH   1  20
ATOM     20  C   UNL     1      -5.624  -0.366 127.679  0.00  0.00    +0.000 C 
BRANCH  20  22
ATOM     21  C   UNL     1      -6.278   0.401 125.414  0.00  0.00    +0.000 C 
ATOM     22  C   UNL     1      -5.358  -0.106 126.238  0.00  0.00    +0.000 C 
BRANCH  21  23
ATOM     23  C   UNL     1      -7.654   0.764 125.866  0.00  0.00    +0.000 C 
BRANCH  23  24
ATOM     24  C   UNL     1      -8.232   1.749 124.879  0.00  0.00    +0.000 C 
BRANCH  24  25
ATOM     25  C   UNL     1      -8.669   1.052 123.608  0.00  0.00    +0.000 C 
BRANCH  25  26
ATOM     26  C   UNL     1     -10.163   0.982 123.417  0.00  0.00    +0.000 C 
ATOM     27  O   UNL     1     -10.660   0.385 122.467  0.00  0.00    +0.000 OA
BRANCH  26  28
ATOM     28  O   UNL     1     -10.934   1.604 124.327  0.00  0.00    +0.000 OA
ATOM     29  H   UNL     1     -10.553   2.357 124.813  0.00  0.00    +0.000 HD
ENDBRANCH  26  28
ENDBRANCH  25  26
ENDBRANCH  24  25
ENDBRANCH  23  24
ENDBRANCH  21  23
ENDBRANCH  20  22
ENDBRANCH   1  20
TORSDOF 16
ENDMDL
MODEL 3
REMARK VINA RESULT:      -6.2      6.470      9.268
REMARK  Name = Dinoprost
REMARK  17 active torsions:
REMARK  status: ('A' for Active; 'I' for Inactive)
REMARK    1  A    between atoms: C_2  and  C_3
REMARK    2  A    between atoms: C_3  and  C_4
REMARK    3  A    between atoms: C_4  and  C_5
REMARK    4  A    between atoms: C_5  and  C_6
REMARK    5  A    between atoms: C_6  and  O_7
REMARK    6  A    between atoms: C_9  and  C_11
REMARK    7  A    between atoms: C_11  and  C_12
REMARK    8  A    between atoms: C_14  and  O_16
REMARK    9  A    between atoms: C_18  and  O_20
REMARK   10  A    between atoms: C_21  and  C_23
REMARK   11  A    between atoms: C_25  and  C_27
REMARK   12  A    between atoms: C_27  and  O_29
REMARK   13  A    between atoms: C_27  and  C_30
REMARK   14  A    between atoms: C_30  and  C_31
REMARK   15  A    between atoms: C_31  and  C_32
REMARK   16  A    between atoms: C_32  and  C_33
REMARK   17  A    between atoms: C_33  and  C_34
REMARK                            x       y       z     vdW  Elec       q    Type
REMARK                         _______ _______ _______ _____ _____    ______ ____
ROOT
ATOM      1  C   UNL     1      -8.706   4.479 132.075  0.00  0.00    +0.000 C 
ATOM      2  C   UNL     1      -8.643   3.768 133.430  0.00  0.00    +0.000 C 
ATOM      3  C   UNL     1      -8.433   2.309 133.045  0.00  0.00    +0.000 C 
ATOM      4  C   UNL     1      -9.308   2.113 131.807  0.00  0.00    +0.000 C 
ATOM      5  C   UNL     1      -9.491   3.504 131.164  0.00  0.00    +0.000 C 
ENDROOT
BRANCH   2   6
ATOM      6  O   UNL     1      -9.855   3.809 134.168  0.00  0.00    +0.000 OA
ATOM      7  H   UNL     1     -10.238   4.693 134.015  0.00  0.00    +0.000 HD
ENDBRANCH   2   6
BRANCH   5   8
ATOM      8  C   UNL     1      -8.985   3.543 129.740  0.00  0.00    +0.000 C 
ATOM      9  C   UNL     1      -7.694   3.655 129.396  0.00  0.00    +0.000 C 
BRANCH   9  10
ATOM     10  C   UNL     1      -7.180   3.649 128.000  0.00  0.00    +0.000 C 
BRANCH  10  11
ATOM     11  O   UNL     1      -7.463   4.909 127.414  0.00  0.00    +0.000 OA
ATOM     12  H   UNL     1      -7.308   4.823 126.460  0.00  0.00    +0.000 HD
ENDBRANCH  10  11
BRANCH  10  13
ATOM     13  C   UNL     1      -5.670   3.421 128.000  0.00  0.00    +0.000 C 
BRANCH  13  14
ATOM     14  C   UNL     1      -4.949   4.717 128.328  0.00  0.00    +0.000 C 
BRANCH  14  15
ATOM     15  C   UNL     1      -3.448   4.498 128.377  0.00  0.00    +0.000 C 
BRANCH  15  16
ATOM     16  C   UNL     1      -3.110   3.102 127.874  0.00  0.00    +0.000 C 
ATOM     17  C   UNL     1      -2.006   3.167 126.838  0.00  0.00    +0.000 C 
ENDBRANCH  15  16
ENDBRANCH  14  15
ENDBRANCH  13  14
ENDBRANCH  10  13
ENDBRANCH   9  10
ENDBRANCH   5   8
BRANCH   4  18
ATOM     18  O   UNL     1     -10.581   1.580 132.168  0.00  0.00    +0.000 OA
ATOM     19  H   UNL     1     -10.649   1.637 133.142  0.00  0.00    +0.000 HD
ENDBRANCH   4  18
BRANCH   1  20
ATOM     20  C   UNL     1      -9.263   5.906 131.957  0.00  0.00    +0.000 C 
BRANCH  20  22
ATOM     21  C   UNL     1      -9.305   7.388 129.970  0.00  0.00    +0.000 C 
ATOM     22  C   UNL     1      -8.653   6.892 131.023  0.00  0.00    +0.000 C 
BRANCH  21  23
ATOM     23  C   UNL     1     -10.710   7.006 129.637  0.00  0.00    +0.000 C 
BRANCH  23  24
ATOM     24  C   UNL     1     -11.349   8.154 128.893  0.00  0.00    +0.000 C 
BRANCH  24  25
ATOM     25  C   UNL     1     -10.755   8.303 127.509  0.00  0.00    +0.000 C 
BRANCH  25  26
ATOM     26  C   UNL     1     -10.788   7.045 126.678  0.00  0.00    +0.000 C 
ATOM     27  O   UNL     1      -9.767   6.408 126.439  0.00  0.00    +0.000 OA
BRANCH  26  28
ATOM     28  O   UNL     1     -11.983   6.647 126.202  0.00  0.00    +0.000 OA
ATOM     29  H   UNL     1     -12.765   7.180 126.426  0.00  0.00    +0.000 HD
ENDBRANCH  26  28
ENDBRANCH  25  26
ENDBRANCH  24  25
ENDBRANCH  23  24
ENDBRANCH  21  23
ENDBRANCH  20  22
ENDBRANCH   1  20
TORSDOF 16
ENDMDL
MODEL 4
REMARK VINA RESULT:      -6.1      2.596      5.773
REMARK  Name = Dinoprost
REMARK  17 active torsions:
REMARK  status: ('A' for Active; 'I' for Inactive)
REMARK    1  A    between atoms: C_2  and  C_3
REMARK    2  A    between atoms: C_3  and  C_4
REMARK    3  A    between atoms: C_4  and  C_5
REMARK    4  A    between atoms: C_5  and  C_6
REMARK    5  A    between atoms: C_6  and  O_7
REMARK    6  A    between atoms: C_9  and  C_11
REMARK    7  A    between atoms: C_11  and  C_12
REMARK    8  A    between atoms: C_14  and  O_16
REMARK    9  A    between atoms: C_18  and  O_20
REMARK   10  A    between atoms: C_21  and  C_23
REMARK   11  A    between atoms: C_25  and  C_27
REMARK   12  A    between atoms: C_27  and  O_29
REMARK   13  A    between atoms: C_27  and  C_30
REMARK   14  A    between atoms: C_30  and  C_31
REMARK   15  A    between atoms: C_31  and  C_32
REMARK   16  A    between atoms: C_32  and  C_33
REMARK   17  A    between atoms: C_33  and  C_34
REMARK                            x       y       z     vdW  Elec       q    Type
REMARK                         _______ _______ _______ _____ _____    ______ ____
ROOT
ATOM      1  C   UNL     1      -8.683  -2.534 125.216  0.00  0.00    +0.000 C 
ATOM      2  C   UNL     1      -8.812  -3.227 123.856  0.00  0.00    +0.000 C 
ATOM      3  C   UNL     1      -8.263  -2.189 122.886  0.00  0.00    +0.000 C 
ATOM      4  C   UNL     1      -8.778  -0.855 123.427  0.00  0.00    +0.000 C 
ATOM      5  C   UNL     1      -9.049  -1.058 124.933  0.00  0.00    +0.000 C 
ENDROOT
BRANCH   2   6
ATOM      6  O   UNL     1     -10.150  -3.475 123.452  0.00  0.00    +0.000 OA
ATOM      7  H   UNL     1     -10.556  -2.602 123.299  0.00  0.00    +0.000 HD
ENDBRANCH   2   6
BRANCH   5   8
ATOM      8  C   UNL     1      -8.242  -0.109 125.789  0.00  0.00    +0.000 C 
ATOM      9  C   UNL     1      -6.935  -0.253 126.056  0.00  0.00    +0.000 C 
BRANCH   9  10
ATOM     10  C   UNL     1      -6.120   0.698 126.859  0.00  0.00    +0.000 C 
BRANCH  10  11
ATOM     11  O   UNL     1      -4.750   0.460 126.576  0.00  0.00    +0.000 OA
ATOM     12  H   UNL     1      -4.675  -0.461 126.278  0.00  0.00    +0.000 HD
ENDBRANCH  10  11
BRANCH  10  13
ATOM     13  C   UNL     1      -6.471   2.135 126.482  0.00  0.00    +0.000 C 
BRANCH  13  14
ATOM     14  C   UNL     1      -5.565   2.614 125.361  0.00  0.00    +0.000 C 
BRANCH  14  15
ATOM     15  C   UNL     1      -6.384   3.094 124.177  0.00  0.00    +0.000 C 
BRANCH  15  16
ATOM     16  C   UNL     1      -5.639   4.202 123.446  0.00  0.00    +0.000 C 
ATOM     17  C   UNL     1      -5.653   3.952 121.952  0.00  0.00    +0.000 C 
ENDBRANCH  15  16
ENDBRANCH  14  15
ENDBRANCH  13  14
ENDBRANCH  10  13
ENDBRANCH   9  10
ENDBRANCH   5   8
BRANCH   4  18
ATOM     18  O   UNL     1      -9.986  -0.475 122.768  0.00  0.00    +0.000 OA
ATOM     19  H   UNL     1     -10.554  -0.047 123.438  0.00  0.00    +0.000 HD
ENDBRANCH   4  18
BRANCH   1  20
ATOM     20  C   UNL     1      -9.441  -3.060 126.445  0.00  0.00    +0.000 C 
BRANCH  20  22
ATOM     21  C   UNL     1      -8.205  -3.581 128.530  0.00  0.00    +0.000 C 
ATOM     22  C   UNL     1      -8.791  -3.994 127.405  0.00  0.00    +0.000 C 
BRANCH  21  23
ATOM     23  C   UNL     1      -8.157  -2.145 128.935  0.00  0.00    +0.000 C 
BRANCH  23  24
ATOM     24  C   UNL     1      -6.802  -1.870 129.543  0.00  0.00    +0.000 C 
BRANCH  24  25
ATOM     25  C   UNL     1      -5.912  -3.092 129.464  0.00  0.00    +0.000 C 
BRANCH  25  26
ATOM     26  C   UNL     1      -4.504  -2.809 129.006  0.00  0.00    +0.000 C 
ATOM     27  O   UNL     1      -3.681  -3.709 128.870  0.00  0.00    +0.000 OA
BRANCH  26  28
ATOM     28  O   UNL     1      -4.180  -1.527 128.753  0.00  0.00    +0.000 OA
ATOM     29  H   UNL     1      -3.480  -1.117 129.292  0.00  0.00    +0.000 HD
ENDBRANCH  26  28
ENDBRANCH  25  26
ENDBRANCH  24  25
ENDBRANCH  23  24
ENDBRANCH  21  23
ENDBRANCH  20  22
ENDBRANCH   1  20
TORSDOF 16
ENDMDL
MODEL 5
REMARK VINA RESULT:      -6.0      2.663      5.283
REMARK  Name = Dinoprost
REMARK  17 active torsions:
REMARK  status: ('A' for Active; 'I' for Inactive)
REMARK    1  A    between atoms: C_2  and  C_3
REMARK    2  A    between atoms: C_3  and  C_4
REMARK    3  A    between atoms: C_4  and  C_5
REMARK    4  A    between atoms: C_5  and  C_6
REMARK    5  A    between atoms: C_6  and  O_7
REMARK    6  A    between atoms: C_9  and  C_11
REMARK    7  A    between atoms: C_11  and  C_12
REMARK    8  A    between atoms: C_14  and  O_16
REMARK    9  A    between atoms: C_18  and  O_20
REMARK   10  A    between atoms: C_21  and  C_23
REMARK   11  A    between atoms: C_25  and  C_27
REMARK   12  A    between atoms: C_27  and  O_29
REMARK   13  A    between atoms: C_27  and  C_30
REMARK   14  A    between atoms: C_30  and  C_31
REMARK   15  A    between atoms: C_31  and  C_32
REMARK   16  A    between atoms: C_32  and  C_33
REMARK   17  A    between atoms: C_33  and  C_34
REMARK                            x       y       z     vdW  Elec       q    Type
REMARK                         _______ _______ _______ _____ _____    ______ ____
ROOT
ATOM      1  C   UNL     1      -8.853  -2.318 125.070  0.00  0.00    +0.000 C 
ATOM      2  C   UNL     1      -8.877  -3.093 123.749  0.00  0.00    +0.000 C 
ATOM      3  C   UNL     1      -8.419  -2.056 122.732  0.00  0.00    +0.000 C 
ATOM      4  C   UNL     1      -9.083  -0.756 123.189  0.00  0.00    +0.000 C 
ATOM      5  C   UNL     1      -9.365  -0.906 124.698  0.00  0.00    +0.000 C 
ENDROOT
BRANCH   2   6
ATOM      6  O   UNL     1     -10.172  -3.502 123.336  0.00  0.00    +0.000 OA
ATOM      7  H   UNL     1     -10.800  -3.101 123.966  0.00  0.00    +0.000 HD
ENDBRANCH   2   6
BRANCH   5   8
ATOM      8  C   UNL     1      -8.681   0.168 125.514  0.00  0.00    +0.000 C 
ATOM      9  C   UNL     1      -7.777   1.031 125.027  0.00  0.00    +0.000 C 
BRANCH   9  10
ATOM     10  C   UNL     1      -7.131   2.120 125.807  0.00  0.00    +0.000 C 
BRANCH  10  11
ATOM     11  O   UNL     1      -8.147   2.858 126.467  0.00  0.00    +0.000 OA
ATOM     12  H   UNL     1      -8.164   3.742 126.068  0.00  0.00    +0.000 HD
ENDBRANCH  10  11
BRANCH  10  13
ATOM     13  C   UNL     1      -6.182   1.527 126.846  0.00  0.00    +0.000 C 
BRANCH  13  14
ATOM     14  C   UNL     1      -5.352   0.421 126.218  0.00  0.00    +0.000 C 
BRANCH  14  15
ATOM     15  C   UNL     1      -5.368  -0.823 127.089  0.00  0.00    +0.000 C 
BRANCH  15  16
ATOM     16  C   UNL     1      -5.619  -2.053 126.229  0.00  0.00    +0.000 C 
ATOM     17  C   UNL     1      -5.319  -1.752 124.775  0.00  0.00    +0.000 C 
ENDBRANCH  15  16
ENDBRANCH  14  15
ENDBRANCH  13  14
ENDBRANCH  10  13
ENDBRANCH   9  10
ENDBRANCH   5   8
BRANCH   4  18
ATOM     18  O   UNL     1     -10.308  -0.543 122.489  0.00  0.00    +0.000 OA
ATOM     19  H   UNL     1     -10.788   0.164 122.964  0.00  0.00    +0.000 HD
ENDBRANCH   4  18
BRANCH   1  20
ATOM     20  C   UNL     1      -9.579  -2.854 126.313  0.00  0.00    +0.000 C 
BRANCH  20  22
ATOM     21  C   UNL     1      -8.382  -3.820 128.258  0.00  0.00    +0.000 C 
ATOM     22  C   UNL     1      -9.021  -3.989 127.098  0.00  0.00    +0.000 C 
BRANCH  21  23
ATOM     23  C   UNL     1      -8.179  -2.478 128.879  0.00  0.00    +0.000 C 
BRANCH  23  24
ATOM     24  C   UNL     1      -7.608  -2.678 130.262  0.00  0.00    +0.000 C 
BRANCH  24  25
ATOM     25  C   UNL     1      -6.105  -2.496 130.262  0.00  0.00    +0.000 C 
BRANCH  25  26
ATOM     26  C   UNL     1      -5.324  -3.765 130.033  0.00  0.00    +0.000 C 
ATOM     27  O   UNL     1      -5.697  -4.840 130.493  0.00  0.00    +0.000 OA
BRANCH  26  28
ATOM     28  O   UNL     1      -4.195  -3.675 129.305  0.00  0.00    +0.000 OA
ATOM     29  H   UNL     1      -3.442  -4.239 129.557  0.00  0.00    +0.000 HD
ENDBRANCH  26  28
ENDBRANCH  25  26
ENDBRANCH  24  25
ENDBRANCH  23  24
ENDBRANCH  21  23
ENDBRANCH  20  22
ENDBRANCH   1  20
TORSDOF 16
ENDMDL
MODEL 6
REMARK VINA RESULT:      -5.9      2.945      5.836
REMARK  Name = Dinoprost
REMARK  17 active torsions:
REMARK  status: ('A' for Active; 'I' for Inactive)
REMARK    1  A    between atoms: C_2  and  C_3
REMARK    2  A    between atoms: C_3  and  C_4
REMARK    3  A    between atoms: C_4  and  C_5
REMARK    4  A    between atoms: C_5  and  C_6
REMARK    5  A    between atoms: C_6  and  O_7
REMARK    6  A    between atoms: C_9  and  C_11
REMARK    7  A    between atoms: C_11  and  C_12
REMARK    8  A    between atoms: C_14  and  O_16
REMARK    9  A    between atoms: C_18  and  O_20
REMARK   10  A    between atoms: C_21  and  C_23
REMARK   11  A    between atoms: C_25  and  C_27
REMARK   12  A    between atoms: C_27  and  O_29
REMARK   13  A    between atoms: C_27  and  C_30
REMARK   14  A    between atoms: C_30  and  C_31
REMARK   15  A    between atoms: C_31  and  C_32
REMARK   16  A    between atoms: C_32  and  C_33
REMARK   17  A    between atoms: C_33  and  C_34
REMARK                            x       y       z     vdW  Elec       q    Type
REMARK                         _______ _______ _______ _____ _____    ______ ____
ROOT
ATOM      1  C   UNL     1      -8.634  -2.430 125.168  0.00  0.00    +0.000 C 
ATOM      2  C   UNL     1      -8.825  -3.163 123.837  0.00  0.00    +0.000 C 
ATOM      3  C   UNL     1      -8.293  -2.167 122.815  0.00  0.00    +0.000 C 
ATOM      4  C   UNL     1      -8.764  -0.806 123.330  0.00  0.00    +0.000 C 
ATOM      5  C   UNL     1      -8.983  -0.956 124.850  0.00  0.00    +0.000 C 
ENDROOT
BRANCH   2   6
ATOM      6  O   UNL     1     -10.181  -3.398 123.489  0.00  0.00    +0.000 OA
ATOM      7  H   UNL     1     -10.612  -2.524 123.463  0.00  0.00    +0.000 HD
ENDBRANCH   2   6
BRANCH   5   8
ATOM      8  C   UNL     1      -8.128   0.003 125.646  0.00  0.00    +0.000 C 
ATOM      9  C   UNL     1      -6.962  -0.321 126.225  0.00  0.00    +0.000 C 
BRANCH   9  10
ATOM     10  C   UNL     1      -6.089   0.625 126.972  0.00  0.00    +0.000 C 
BRANCH  10  11
ATOM     11  O   UNL     1      -4.929  -0.075 127.390  0.00  0.00    +0.000 OA
ATOM     12  H   UNL     1      -5.115  -0.438 128.271  0.00  0.00    +0.000 HD
ENDBRANCH  10  11
BRANCH  10  13
ATOM     13  C   UNL     1      -5.680   1.784 126.066  0.00  0.00    +0.000 C 
BRANCH  13  14
ATOM     14  C   UNL     1      -4.225   2.146 126.310  0.00  0.00    +0.000 C 
BRANCH  14  15
ATOM     15  C   UNL     1      -4.050   3.652 126.381  0.00  0.00    +0.000 C 
BRANCH  15  16
ATOM     16  C   UNL     1      -2.686   3.988 126.965  0.00  0.00    +0.000 C 
ATOM     17  C   UNL     1      -1.645   3.000 126.479  0.00  0.00    +0.000 C 
ENDBRANCH  15  16
ENDBRANCH  14  15
ENDBRANCH  13  14
ENDBRANCH  10  13
ENDBRANCH   9  10
ENDBRANCH   5   8
BRANCH   4  18
ATOM     18  O   UNL     1      -9.987  -0.425 122.703  0.00  0.00    +0.000 OA
ATOM     19  H   UNL     1      -9.768   0.265 122.046  0.00  0.00    +0.000 HD
ENDBRANCH   4  18
BRANCH   1  20
ATOM     20  C   UNL     1      -9.355  -2.902 126.440  0.00  0.00    +0.000 C 
BRANCH  20  22
ATOM     21  C   UNL     1      -8.248  -3.764 128.484  0.00  0.00    +0.000 C 
ATOM     22  C   UNL     1      -8.789  -3.989 127.285  0.00  0.00    +0.000 C 
BRANCH  21  23
ATOM     23  C   UNL     1      -8.171  -2.403 129.092  0.00  0.00    +0.000 C 
BRANCH  23  24
ATOM     24  C   UNL     1      -7.396  -2.505 130.384  0.00  0.00    +0.000 C 
BRANCH  24  25
ATOM     25  C   UNL     1      -5.998  -3.030 130.139  0.00  0.00    +0.000 C 
BRANCH  25  26
ATOM     26  C   UNL     1      -4.976  -1.964 129.836  0.00  0.00    +0.000 C 
ATOM     27  O   UNL     1      -5.097  -0.819 130.261  0.00  0.00    +0.000 OA
BRANCH  26  28
ATOM     28  O   UNL     1      -3.922  -2.314 129.075  0.00  0.00    +0.000 OA
ATOM     29  H   UNL     1      -3.732  -3.262 128.965  0.00  0.00    +0.000 HD
ENDBRANCH  26  28
ENDBRANCH  25  26
ENDBRANCH  24  25
ENDBRANCH  23  24
ENDBRANCH  21  23
ENDBRANCH  20  22
ENDBRANCH   1  20
TORSDOF 16
ENDMDL
MODEL 7
REMARK VINA RESULT:      -5.9      2.932      6.322
REMARK  Name = Dinoprost
REMARK  17 active torsions:
REMARK  status: ('A' for Active; 'I' for Inactive)
REMARK    1  A    between atoms: C_2  and  C_3
REMARK    2  A    between atoms: C_3  and  C_4
REMARK    3  A    between atoms: C_4  and  C_5
REMARK    4  A    between atoms: C_5  and  C_6
REMARK    5  A    between atoms: C_6  and  O_7
REMARK    6  A    between atoms: C_9  and  C_11
REMARK    7  A    between atoms: C_11  and  C_12
REMARK    8  A    between atoms: C_14  and  O_16
REMARK    9  A    between atoms: C_18  and  O_20
REMARK   10  A    between atoms: C_21  and  C_23
REMARK   11  A    between atoms: C_25  and  C_27
REMARK   12  A    between atoms: C_27  and  O_29
REMARK   13  A    between atoms: C_27  and  C_30
REMARK   14  A    between atoms: C_30  and  C_31
REMARK   15  A    between atoms: C_31  and  C_32
REMARK   16  A    between atoms: C_32  and  C_33
REMARK   17  A    between atoms: C_33  and  C_34
REMARK                            x       y       z     vdW  Elec       q    Type
REMARK                         _______ _______ _______ _____ _____    ______ ____
ROOT
ATOM      1  C   UNL     1      -7.265   1.953 124.902  0.00  0.00    +0.000 C 
ATOM      2  C   UNL     1      -8.456   2.892 125.116  0.00  0.00    +0.000 C 
ATOM      3  C   UNL     1      -9.573   2.218 124.330  0.00  0.00    +0.000 C 
ATOM      4  C   UNL     1      -8.883   1.681 123.075  0.00  0.00    +0.000 C 
ATOM      5  C   UNL     1      -7.392   1.499 123.428  0.00  0.00    +0.000 C 
ENDROOT
BRANCH   2   6
ATOM      6  O   UNL     1      -8.293   4.180 124.544  0.00  0.00    +0.000 OA
ATOM      7  H   UNL     1      -7.778   4.053 123.725  0.00  0.00    +0.000 HD
ENDBRANCH   2   6
BRANCH   5   8
ATOM      8  C   UNL     1      -6.935   0.069 123.244  0.00  0.00    +0.000 C 
ATOM      9  C   UNL     1      -6.986  -0.873 124.198  0.00  0.00    +0.000 C 
BRANCH   9  10
ATOM     10  C   UNL     1      -6.582  -2.293 124.016  0.00  0.00    +0.000 C 
BRANCH  10  11
ATOM     11  O   UNL     1      -5.661  -2.629 125.040  0.00  0.00    +0.000 OA
ATOM     12  H   UNL     1      -4.791  -2.730 124.622  0.00  0.00    +0.000 HD
ENDBRANCH  10  11
BRANCH  10  13
ATOM     13  C   UNL     1      -7.805  -3.201 124.119  0.00  0.00    +0.000 C 
BRANCH  13  14
ATOM     14  C   UNL     1      -8.878  -2.533 124.961  0.00  0.00    +0.000 C 
BRANCH  14  15
ATOM     15  C   UNL     1      -9.130  -3.322 126.234  0.00  0.00    +0.000 C 
BRANCH  15  16
ATOM     16  C   UNL     1      -8.317  -2.733 127.377  0.00  0.00    +0.000 C 
ATOM     17  C   UNL     1      -8.560  -3.511 128.654  0.00  0.00    +0.000 C 
ENDBRANCH  15  16
ENDBRANCH  14  15
ENDBRANCH  13  14
ENDBRANCH  10  13
ENDBRANCH   9  10
ENDBRANCH   5   8
BRANCH   4  18
ATOM     18  O   UNL     1      -9.012   2.604 121.995  0.00  0.00    +0.000 OA
ATOM     19  H   UNL     1      -8.144   3.040 121.887  0.00  0.00    +0.000 HD
ENDBRANCH   4  18
BRANCH   1  20
ATOM     20  C   UNL     1      -5.831   2.412 125.211  0.00  0.00    +0.000 C 
BRANCH  20  22
ATOM     21  C   UNL     1      -3.858   2.208 126.698  0.00  0.00    +0.000 C 
ATOM     22  C   UNL     1      -5.004   1.710 126.231  0.00  0.00    +0.000 C 
BRANCH  21  23
ATOM     23  C   UNL     1      -3.306   3.520 126.249  0.00  0.00    +0.000 C 
BRANCH  23  24
ATOM     24  C   UNL     1      -2.265   3.963 127.249  0.00  0.00    +0.000 C 
BRANCH  24  25
ATOM     25  C   UNL     1      -2.892   4.772 128.365  0.00  0.00    +0.000 C 
BRANCH  25  26
ATOM     26  C   UNL     1      -3.035   6.242 128.065  0.00  0.00    +0.000 C 
ATOM     27  O   UNL     1      -4.137   6.763 127.923  0.00  0.00    +0.000 OA
BRANCH  26  28
ATOM     28  O   UNL     1      -1.906   6.965 127.954  0.00  0.00    +0.000 OA
ATOM     29  H   UNL     1      -1.103   6.632 128.393  0.00  0.00    +0.000 HD
ENDBRANCH  26  28
ENDBRANCH  25  26
ENDBRANCH  24  25
ENDBRANCH  23  24
ENDBRANCH  21  23
ENDBRANCH  20  22
ENDBRANCH   1  20
TORSDOF 16
ENDMDL
MODEL 8
REMARK VINA RESULT:      -5.8      6.238      8.932
REMARK  Name = Dinoprost
REMARK  17 active torsions:
REMARK  status: ('A' for Active; 'I' for Inactive)
REMARK    1  A    between atoms: C_2  and  C_3
REMARK    2  A    between atoms: C_3  and  C_4
REMARK    3  A    between atoms: C_4  and  C_5
REMARK    4  A    between atoms: C_5  and  C_6
REMARK    5  A    between atoms: C_6  and  O_7
REMARK    6  A    between atoms: C_9  and  C_11
REMARK    7  A    between atoms: C_11  and  C_12
REMARK    8  A    between atoms: C_14  and  O_16
REMARK    9  A    between atoms: C_18  and  O_20
REMARK   10  A    between atoms: C_21  and  C_23
REMARK   11  A    between atoms: C_25  and  C_27
REMARK   12  A    between atoms: C_27  and  O_29
REMARK   13  A    between atoms: C_27  and  C_30
REMARK   14  A    between atoms: C_30  and  C_31
REMARK   15  A    between atoms: C_31  and  C_32
REMARK   16  A    between atoms: C_32  and  C_33
REMARK   17  A    between atoms: C_33  and  C_34
REMARK                            x       y       z     vdW  Elec       q    Type
REMARK                         _______ _______ _______ _____ _____    ______ ____
ROOT
ATOM      1  C   UNL     1      -8.793   4.490 132.030  0.00  0.00    +0.000 C 
ATOM      2  C   UNL     1      -8.730   3.792 133.392  0.00  0.00    +0.000 C 
ATOM      3  C   UNL     1      -8.484   2.335 133.023  0.00  0.00    +0.000 C 
ATOM      4  C   UNL     1      -9.342   2.110 131.777  0.00  0.00    +0.000 C 
ATOM      5  C   UNL     1      -9.546   3.491 131.120  0.00  0.00    +0.000 C 
ENDROOT
BRANCH   2   6
ATOM      6  O   UNL     1      -9.950   3.815 134.116  0.00  0.00    +0.000 OA
ATOM      7  H   UNL     1     -10.535   3.163 133.687  0.00  0.00    +0.000 HD
ENDBRANCH   2   6
BRANCH   5   8
ATOM      8  C   UNL     1      -9.026   3.528 129.701  0.00  0.00    +0.000 C 
ATOM      9  C   UNL     1      -8.403   2.507 129.094  0.00  0.00    +0.000 C 
BRANCH   9  10
ATOM     10  C   UNL     1      -7.927   2.515 127.684  0.00  0.00    +0.000 C 
BRANCH  10  11
ATOM     11  O   UNL     1      -6.578   2.951 127.671  0.00  0.00    +0.000 OA
ATOM     12  H   UNL     1      -6.486   3.618 128.370  0.00  0.00    +0.000 HD
ENDBRANCH  10  11
BRANCH  10  13
ATOM     13  C   UNL     1      -8.008   1.107 127.098  0.00  0.00    +0.000 C 
BRANCH  13  14
ATOM     14  C   UNL     1      -9.305   0.941 126.325  0.00  0.00    +0.000 C 
BRANCH  14  15
ATOM     15  C   UNL     1      -9.024   0.590 124.875  0.00  0.00    +0.000 C 
BRANCH  15  16
ATOM     16  C   UNL     1      -9.804   1.520 123.956  0.00  0.00    +0.000 C 
ATOM     17  C   UNL     1      -8.865   2.481 123.257  0.00  0.00    +0.000 C 
ENDBRANCH  15  16
ENDBRANCH  14  15
ENDBRANCH  13  14
ENDBRANCH  10  13
ENDBRANCH   9  10
ENDBRANCH   5   8
BRANCH   4  18
ATOM     18  O   UNL     1     -10.607   1.552 132.129  0.00  0.00    +0.000 OA
ATOM     19  H   UNL     1     -10.644   0.657 131.739  0.00  0.00    +0.000 HD
ENDBRANCH   4  18
BRANCH   1  20
ATOM     20  C   UNL     1      -9.378   5.904 131.893  0.00  0.00    +0.000 C 
BRANCH  20  22
ATOM     21  C   UNL     1      -9.482   7.430 129.943  0.00  0.00    +0.000 C 
ATOM     22  C   UNL     1      -8.789   6.890 130.946  0.00  0.00    +0.000 C 
BRANCH  21  23
ATOM     23  C   UNL     1     -10.916   7.104 129.685  0.00  0.00    +0.000 C 
BRANCH  23  24
ATOM     24  C   UNL     1     -11.501   8.193 128.818  0.00  0.00    +0.000 C 
BRANCH  24  25
ATOM     25  C   UNL     1     -10.755   8.304 127.506  0.00  0.00    +0.000 C 
BRANCH  25  26
ATOM     26  C   UNL     1     -10.813   7.065 126.649  0.00  0.00    +0.000 C 
ATOM     27  O   UNL     1      -9.805   6.412 126.397  0.00  0.00    +0.000 OA
BRANCH  26  28
ATOM     28  O   UNL     1     -12.015   6.702 126.164  0.00  0.00    +0.000 OA
ATOM     29  H   UNL     1     -12.453   7.298 125.531  0.00  0.00    +0.000 HD
ENDBRANCH  26  28
ENDBRANCH  25  26
ENDBRANCH  24  25
ENDBRANCH  23  24
ENDBRANCH  21  23
ENDBRANCH  20  22
ENDBRANCH   1  20
TORSDOF 16
ENDMDL
MODEL 9
REMARK VINA RESULT:      -5.8      2.510      5.711
REMARK  Name = Dinoprost
REMARK  17 active torsions:
REMARK  status: ('A' for Active; 'I' for Inactive)
REMARK    1  A    between atoms: C_2  and  C_3
REMARK    2  A    between atoms: C_3  and  C_4
REMARK    3  A    between atoms: C_4  and  C_5
REMARK    4  A    between atoms: C_5  and  C_6
REMARK    5  A    between atoms: C_6  and  O_7
REMARK    6  A    between atoms: C_9  and  C_11
REMARK    7  A    between atoms: C_11  and  C_12
REMARK    8  A    between atoms: C_14  and  O_16
REMARK    9  A    between atoms: C_18  and  O_20
REMARK   10  A    between atoms: C_21  and  C_23
REMARK   11  A    between atoms: C_25  and  C_27
REMARK   12  A    between atoms: C_27  and  O_29
REMARK   13  A    between atoms: C_27  and  C_30
REMARK   14  A    between atoms: C_30  and  C_31
REMARK   15  A    between atoms: C_31  and  C_32
REMARK   16  A    between atoms: C_32  and  C_33
REMARK   17  A    between atoms: C_33  and  C_34
REMARK                            x       y       z     vdW  Elec       q    Type
REMARK                         _______ _______ _______ _____ _____    ______ ____
ROOT
ATOM      1  C   UNL     1      -7.263   2.109 126.395  0.00  0.00    +0.000 C 
ATOM      2  C   UNL     1      -6.779   3.235 127.313  0.00  0.00    +0.000 C 
ATOM      3  C   UNL     1      -6.969   2.650 128.707  0.00  0.00    +0.000 C 
ATOM      4  C   UNL     1      -8.283   1.873 128.616  0.00  0.00    +0.000 C 
ATOM      5  C   UNL     1      -8.486   1.510 127.130  0.00  0.00    +0.000 C 
ENDROOT
BRANCH   2   6
ATOM      6  O   UNL     1      -7.576   4.408 127.267  0.00  0.00    +0.000 OA
ATOM      7  H   UNL     1      -8.316   4.213 126.662  0.00  0.00    +0.000 HD
ENDBRANCH   2   6
BRANCH   5   8
ATOM      8  C   UNL     1      -8.588   0.016 126.918  0.00  0.00    +0.000 C 
ATOM      9  C   UNL     1      -7.576  -0.846 127.094  0.00  0.00    +0.000 C 
BRANCH   9  10
ATOM     10  C   UNL     1      -7.675  -2.321 126.934  0.00  0.00    +0.000 C 
BRANCH  10  11
ATOM     11  O   UNL     1      -8.284  -2.857 128.097  0.00  0.00    +0.000 OA
ATOM     12  H   UNL     1      -8.818  -2.150 128.493  0.00  0.00    +0.000 HD
ENDBRANCH  10  11
BRANCH  10  13
ATOM     13  C   UNL     1      -8.532  -2.658 125.715  0.00  0.00    +0.000 C 
BRANCH  13  14
ATOM     14  C   UNL     1      -7.682  -3.333 124.653  0.00  0.00    +0.000 C 
BRANCH  14  15
ATOM     15  C   UNL     1      -7.161  -2.315 123.655  0.00  0.00    +0.000 C 
BRANCH  15  16
ATOM     16  C   UNL     1      -5.666  -2.110 123.858  0.00  0.00    +0.000 C 
ATOM     17  C   UNL     1      -4.915  -3.397 123.585  0.00  0.00    +0.000 C 
ENDBRANCH  15  16
ENDBRANCH  14  15
ENDBRANCH  13  14
ENDBRANCH  10  13
ENDBRANCH   9  10
ENDBRANCH   5   8
BRANCH   4  18
ATOM     18  O   UNL     1      -9.375   2.673 129.069  0.00  0.00    +0.000 OA
ATOM     19  H   UNL     1      -9.275   2.770 130.037  0.00  0.00    +0.000 HD
ENDBRANCH   4  18
BRANCH   1  20
ATOM     20  C   UNL     1      -7.590   2.379 124.918  0.00  0.00    +0.000 C 
BRANCH  20  22
ATOM     21  C   UNL     1      -6.732   2.104 122.609  0.00  0.00    +0.000 C 
ATOM     22  C   UNL     1      -6.927   1.607 123.832  0.00  0.00    +0.000 C 
BRANCH  21  23
ATOM     23  C   UNL     1      -7.153   3.483 122.222  0.00  0.00    +0.000 C 
BRANCH  23  24
ATOM     24  C   UNL     1      -6.760   3.711 120.782  0.00  0.00    +0.000 C 
BRANCH  24  25
ATOM     25  C   UNL     1      -5.293   4.065 120.667  0.00  0.00    +0.000 C 
BRANCH  25  26
ATOM     26  C   UNL     1      -5.025   5.459 120.159  0.00  0.00    +0.000 C 
ATOM     27  O   UNL     1      -5.504   5.859 119.102  0.00  0.00    +0.000 OA
BRANCH  26  28
ATOM     28  O   UNL     1      -4.237   6.251 120.909  0.00  0.00    +0.000 OA
ATOM     29  H   UNL     1      -3.830   5.870 121.707  0.00  0.00    +0.000 HD
ENDBRANCH  26  28
ENDBRANCH  25  26
ENDBRANCH  24  25
ENDBRANCH  23  24
ENDBRANCH  21  23
ENDBRANCH  20  22
ENDBRANCH   1  20
TORSDOF 16
ENDMDL
