MODEL 1
REMARK VINA RESULT:      -6.5      0.000      0.000
REMARK  Name = Dinoprostone
REMARK  16 active torsions:
REMARK  status: ('A' for Active; 'I' for Inactive)
REMARK    1  A    between atoms: C_1  and  C_2
REMARK    2  A    between atoms: C_2  and  C_3
REMARK    3  A    between atoms: C_3  and  C_4
REMARK    4  A    between atoms: C_4  and  C_5
REMARK    5  A    between atoms: C_5  and  C_6
REMARK    6  A    between atoms: C_6  and  O_7
REMARK    7  A    between atoms: C_6  and  C_8
REMARK    8  A    between atoms: C_9  and  C_10
REMARK    9  A    between atoms: C_11  and  O_12
REMARK   10  A    between atoms: C_16  and  C_17
REMARK   11  A    between atoms: C_17  and  C_18
REMARK   12  A    between atoms: C_19  and  C_20
REMARK   13  A    between atoms: C_20  and  C_21
REMARK   14  A    between atoms: C_21  and  C_22
REMARK   15  A    between atoms: C_22  and  C_23
REMARK   16  A    between atoms: C_23  and  O_24
REMARK                            x       y       z     vdW  Elec       q    Type
REMARK                         _______ _______ _______ _____ _____    ______ ____
ROOT
ATOM      1  C   UNL     1      -9.261   6.086 132.179  0.00  0.00    +0.000 C 
ATOM      2  C   UNL     1      -8.137   6.334 131.144  0.00  0.00    +0.000 C 
ATOM      3  C   UNL     1      -8.027   5.071 130.285  0.00  0.00    +0.000 C 
ATOM      4  C   UNL     1      -9.151   4.216 130.805  0.00  0.00    +0.000 C 
ATOM      5  O   UNL     1      -9.249   3.012 130.604  0.00  0.00    +0.000 OA
ATOM      6  C   UNL     1     -10.179   5.029 131.541  0.00  0.00    +0.000 C 
ENDROOT
BRANCH   1   8
ATOM      7  C   UNL     1      -7.593   5.666 134.045  0.00  0.00    +0.000 C 
ATOM      8  C   UNL     1      -8.820   5.551 133.515  0.00  0.00    +0.000 C 
BRANCH   7   9
ATOM      9  C   UNL     1      -7.229   5.131 135.385  0.00  0.00    +0.000 C 
BRANCH   9  10
ATOM     10  O   UNL     1      -6.070   4.322 135.228  0.00  0.00    +0.000 OA
ATOM     11  H   UNL     1      -5.549   4.391 136.046  0.00  0.00    +0.000 HD
ENDBRANCH   9  10
BRANCH   9  12
ATOM     12  C   UNL     1      -6.943   6.267 136.363  0.00  0.00    +0.000 C 
BRANCH  12  13
ATOM     13  C   UNL     1      -8.183   6.575 137.183  0.00  0.00    +0.000 C 
BRANCH  13  14
ATOM     14  C   UNL     1      -8.241   8.059 137.496  0.00  0.00    +0.000 C 
BRANCH  14  16
ATOM     15  C   UNL     1      -9.905   9.662 138.430  0.00  0.00    +0.000 C 
ATOM     16  C   UNL     1      -9.677   8.553 137.423  0.00  0.00    +0.000 C 
ENDBRANCH  14  16
ENDBRANCH  13  14
ENDBRANCH  12  13
ENDBRANCH   9  12
ENDBRANCH   7   9
ENDBRANCH   1   8
BRANCH   2  17
ATOM     17  O   UNL     1      -8.382   7.500 130.361  0.00  0.00    +0.000 OA
ATOM     18  H   UNL     1      -7.868   7.484 129.540  0.00  0.00    +0.000 HD
ENDBRANCH   2  17
BRANCH   6  19
ATOM     19  C   UNL     1     -11.160   5.608 130.540  0.00  0.00    +0.000 C 
BRANCH  19  20
ATOM     20  C   UNL     1     -11.875   6.805 131.096  0.00  0.00    +0.000 C 
ATOM     21  C   UNL     1     -12.854   7.422 130.425  0.00  0.00    +0.000 C 
BRANCH  21  22
ATOM     22  C   UNL     1     -13.313   6.943 129.081  0.00  0.00    +0.000 C 
BRANCH  22  23
ATOM     23  C   UNL     1     -12.975   7.962 128.014  0.00  0.00    +0.000 C 
BRANCH  23  24
ATOM     24  C   UNL     1     -11.991   7.397 127.006  0.00  0.00    +0.000 C 
BRANCH  24  25
ATOM     25  C   UNL     1     -10.553   7.379 127.465  0.00  0.00    +0.000 C 
ATOM     26  O   UNL     1      -9.796   6.457 127.176  0.00  0.00    +0.000 OA
BRANCH  25  27
ATOM     27  O   UNL     1     -10.128   8.415 128.211  0.00  0.00    +0.000 OA
ATOM     28  H   UNL     1     -10.799   9.018 128.579  0.00  0.00    +0.000 HD
ENDBRANCH  25  27
ENDBRANCH  24  25
ENDBRANCH  23  24
ENDBRANCH  22  23
ENDBRANCH  21  22
ENDBRANCH  19  20
ENDBRANCH   6  19
TORSDOF 15
ENDMDL
MODEL 2
REMARK VINA RESULT:      -6.4      7.819     11.478
REMARK  Name = Dinoprostone
REMARK  16 active torsions:
REMARK  status: ('A' for Active; 'I' for Inactive)
REMARK    1  A    between atoms: C_1  and  C_2
REMARK    2  A    between atoms: C_2  and  C_3
REMARK    3  A    between atoms: C_3  and  C_4
REMARK    4  A    between atoms: C_4  and  C_5
REMARK    5  A    between atoms: C_5  and  C_6
REMARK    6  A    between atoms: C_6  and  O_7
REMARK    7  A    between atoms: C_6  and  C_8
REMARK    8  A    between atoms: C_9  and  C_10
REMARK    9  A    between atoms: C_11  and  O_12
REMARK   10  A    between atoms: C_16  and  C_17
REMARK   11  A    between atoms: C_17  and  C_18
REMARK   12  A    between atoms: C_19  and  C_20
REMARK   13  A    between atoms: C_20  and  C_21
REMARK   14  A    between atoms: C_21  and  C_22
REMARK   15  A    between atoms: C_22  and  C_23
REMARK   16  A    between atoms: C_23  and  O_24
REMARK                            x       y       z     vdW  Elec       q    Type
REMARK                         _______ _______ _______ _____ _____    ______ ____
ROOT
ATOM      1  C   UNL     1      -7.752  -2.642 129.317  0.00  0.00    +0.000 C 
ATOM      2  C   UNL     1      -7.146  -3.582 130.387  0.00  0.00    +0.000 C 
ATOM      3  C   UNL     1      -5.649  -3.703 130.088  0.00  0.00    +0.000 C 
ATOM      4  C   UNL     1      -5.463  -2.755 128.934  0.00  0.00    +0.000 C 
ATOM      5  O   UNL     1      -4.487  -2.755 128.195  0.00  0.00    +0.000 OA
ATOM      6  C   UNL     1      -6.585  -1.760 128.840  0.00  0.00    +0.000 C 
ENDROOT
BRANCH   1   8
ATOM      7  C   UNL     1      -8.250  -2.873 126.839  0.00  0.00    +0.000 C 
ATOM      8  C   UNL     1      -8.331  -3.316 128.102  0.00  0.00    +0.000 C 
BRANCH   7   9
ATOM      9  C   UNL     1      -8.828  -3.602 125.678  0.00  0.00    +0.000 C 
BRANCH   9  10
ATOM     10  O   UNL     1     -10.005  -2.913 125.276  0.00  0.00    +0.000 OA
ATOM     11  H   UNL     1     -10.746  -3.261 125.802  0.00  0.00    +0.000 HD
ENDBRANCH   9  10
BRANCH   9  12
ATOM     12  C   UNL     1      -7.834  -3.655 124.521  0.00  0.00    +0.000 C 
BRANCH  12  13
ATOM     13  C   UNL     1      -6.905  -2.455 124.576  0.00  0.00    +0.000 C 
BRANCH  13  14
ATOM     14  C   UNL     1      -5.668  -2.721 123.737  0.00  0.00    +0.000 C 
BRANCH  14  16
ATOM     15  C   UNL     1      -4.314  -4.787 123.406  0.00  0.00    +0.000 C 
ATOM     16  C   UNL     1      -4.790  -3.762 124.415  0.00  0.00    +0.000 C 
ENDBRANCH  14  16
ENDBRANCH  13  14
ENDBRANCH  12  13
ENDBRANCH   9  12
ENDBRANCH   7   9
ENDBRANCH   1   8
BRANCH   2  17
ATOM     17  O   UNL     1      -7.396  -3.114 131.710  0.00  0.00    +0.000 OA
ATOM     18  H   UNL     1      -7.004  -2.239 131.852  0.00  0.00    +0.000 HD
ENDBRANCH   2  17
BRANCH   6  19
ATOM     19  C   UNL     1      -6.293  -0.596 129.768  0.00  0.00    +0.000 C 
BRANCH  19  20
ATOM     20  C   UNL     1      -7.555   0.039 130.273  0.00  0.00    +0.000 C 
ATOM     21  C   UNL     1      -8.154   1.044 129.623  0.00  0.00    +0.000 C 
BRANCH  21  22
ATOM     22  C   UNL     1      -7.610   1.586 128.337  0.00  0.00    +0.000 C 
BRANCH  22  23
ATOM     23  C   UNL     1      -8.714   1.711 127.308  0.00  0.00    +0.000 C 
BRANCH  23  24
ATOM     24  C   UNL     1      -8.684   0.554 126.325  0.00  0.00    +0.000 C 
BRANCH  24  25
ATOM     25  C   UNL     1      -9.450   0.789 125.046  0.00  0.00    +0.000 C 
ATOM     26  O   UNL     1      -9.892   1.896 124.754  0.00  0.00    +0.000 OA
BRANCH  25  27
ATOM     27  O   UNL     1      -9.637  -0.267 124.233  0.00  0.00    +0.000 OA
ATOM     28  H   UNL     1     -10.496  -0.350 123.783  0.00  0.00    +0.000 HD
ENDBRANCH  25  27
ENDBRANCH  24  25
ENDBRANCH  23  24
ENDBRANCH  22  23
ENDBRANCH  21  22
ENDBRANCH  19  20
ENDBRANCH   6  19
TORSDOF 15
ENDMDL
MODEL 3
REMARK VINA RESULT:      -6.3      3.212      4.657
REMARK  Name = Dinoprostone
REMARK  16 active torsions:
REMARK  status: ('A' for Active; 'I' for Inactive)
REMARK    1  A    between atoms: C_1  and  C_2
REMARK    2  A    between atoms: C_2  and  C_3
REMARK    3  A    between atoms: C_3  and  C_4
REMARK    4  A    between atoms: C_4  and  C_5
REMARK    5  A    between atoms: C_5  and  C_6
REMARK    6  A    between atoms: C_6  and  O_7
REMARK    7  A    between atoms: C_6  and  C_8
REMARK    8  A    between atoms: C_9  and  C_10
REMARK    9  A    between atoms: C_11  and  O_12
REMARK   10  A    between atoms: C_16  and  C_17
REMARK   11  A    between atoms: C_17  and  C_18
REMARK   12  A    between atoms: C_19  and  C_20
REMARK   13  A    between atoms: C_20  and  C_21
REMARK   14  A    between atoms: C_21  and  C_22
REMARK   15  A    between atoms: C_22  and  C_23
REMARK   16  A    between atoms: C_23  and  O_24
REMARK                            x       y       z     vdW  Elec       q    Type
REMARK                         _______ _______ _______ _____ _____    ______ ____
ROOT
ATOM      1  C   UNL     1      -8.695   6.106 130.561  0.00  0.00    +0.000 C 
ATOM      2  C   UNL     1      -8.390   5.002 129.519  0.00  0.00    +0.000 C 
ATOM      3  C   UNL     1      -8.814   3.668 130.137  0.00  0.00    +0.000 C 
ATOM      4  C   UNL     1      -9.427   4.087 131.447  0.00  0.00    +0.000 C 
ATOM      5  O   UNL     1      -9.634   3.327 132.383  0.00  0.00    +0.000 OA
ATOM      6  C   UNL     1      -9.820   5.537 131.441  0.00  0.00    +0.000 C 
ENDROOT
BRANCH   1   8
ATOM      7  C   UNL     1      -6.267   6.162 131.299  0.00  0.00    +0.000 C 
ATOM      8  C   UNL     1      -7.558   6.483 131.472  0.00  0.00    +0.000 C 
BRANCH   7   9
ATOM      9  C   UNL     1      -5.187   6.588 132.230  0.00  0.00    +0.000 C 
BRANCH   9  10
ATOM     10  O   UNL     1      -5.130   5.640 133.289  0.00  0.00    +0.000 OA
ATOM     11  H   UNL     1      -4.936   4.771 132.897  0.00  0.00    +0.000 HD
ENDBRANCH   9  10
BRANCH   9  12
ATOM     12  C   UNL     1      -3.843   6.647 131.510  0.00  0.00    +0.000 C 
BRANCH  12  13
ATOM     13  C   UNL     1      -3.567   8.063 131.035  0.00  0.00    +0.000 C 
BRANCH  13  14
ATOM     14  C   UNL     1      -3.815   8.165 129.541  0.00  0.00    +0.000 C 
BRANCH  14  16
ATOM     15  C   UNL     1      -2.249   6.848 128.119  0.00  0.00    +0.000 C 
ATOM     16  C   UNL     1      -3.561   6.821 128.876  0.00  0.00    +0.000 C 
ENDBRANCH  14  16
ENDBRANCH  13  14
ENDBRANCH  12  13
ENDBRANCH   9  12
ENDBRANCH   7   9
ENDBRANCH   1   8
BRANCH   2  17
ATOM     17  O   UNL     1      -9.038   5.251 128.274  0.00  0.00    +0.000 OA
ATOM     18  H   UNL     1      -8.824   6.135 127.939  0.00  0.00    +0.000 HD
ENDBRANCH   2  17
BRANCH   6  19
ATOM     19  C   UNL     1     -11.198   5.674 130.820  0.00  0.00    +0.000 C 
BRANCH  19  20
ATOM     20  C   UNL     1     -11.742   7.063 130.983  0.00  0.00    +0.000 C 
ATOM     21  C   UNL     1     -12.677   7.559 130.164  0.00  0.00    +0.000 C 
BRANCH  21  22
ATOM     22  C   UNL     1     -13.253   6.750 129.043  0.00  0.00    +0.000 C 
BRANCH  22  23
ATOM     23  C   UNL     1     -13.440   7.610 127.811  0.00  0.00    +0.000 C 
BRANCH  23  24
ATOM     24  C   UNL     1     -12.648   7.068 126.635  0.00  0.00    +0.000 C 
BRANCH  24  25
ATOM     25  C   UNL     1     -11.177   7.406 126.652  0.00  0.00    +0.000 C 
ATOM     26  O   UNL     1     -10.762   8.452 127.143  0.00  0.00    +0.000 OA
BRANCH  25  27
ATOM     27  O   UNL     1     -10.330   6.514 126.106  0.00  0.00    +0.000 OA
ATOM     28  H   UNL     1      -9.558   6.237 126.631  0.00  0.00    +0.000 HD
ENDBRANCH  25  27
ENDBRANCH  24  25
ENDBRANCH  23  24
ENDBRANCH  22  23
ENDBRANCH  21  22
ENDBRANCH  19  20
ENDBRANCH   6  19
TORSDOF 15
ENDMDL
MODEL 4
REMARK VINA RESULT:      -6.3      3.027      6.684
REMARK  Name = Dinoprostone
REMARK  16 active torsions:
REMARK  status: ('A' for Active; 'I' for Inactive)
REMARK    1  A    between atoms: C_1  and  C_2
REMARK    2  A    between atoms: C_2  and  C_3
REMARK    3  A    between atoms: C_3  and  C_4
REMARK    4  A    between atoms: C_4  and  C_5
REMARK    5  A    between atoms: C_5  and  C_6
REMARK    6  A    between atoms: C_6  and  O_7
REMARK    7  A    between atoms: C_6  and  C_8
REMARK    8  A    between atoms: C_9  and  C_10
REMARK    9  A    between atoms: C_11  and  O_12
REMARK   10  A    between atoms: C_16  and  C_17
REMARK   11  A    between atoms: C_17  and  C_18
REMARK   12  A    between atoms: C_19  and  C_20
REMARK   13  A    between atoms: C_20  and  C_21
REMARK   14  A    between atoms: C_21  and  C_22
REMARK   15  A    between atoms: C_22  and  C_23
REMARK   16  A    between atoms: C_23  and  O_24
REMARK                            x       y       z     vdW  Elec       q    Type
REMARK                         _______ _______ _______ _____ _____    ______ ____
ROOT
ATOM      1  C   UNL     1      -9.674   4.541 131.222  0.00  0.00    +0.000 C 
ATOM      2  C   UNL     1      -8.993   4.646 132.609  0.00  0.00    +0.000 C 
ATOM      3  C   UNL     1      -8.079   5.873 132.571  0.00  0.00    +0.000 C 
ATOM      4  C   UNL     1      -8.359   6.456 131.212  0.00  0.00    +0.000 C 
ATOM      5  O   UNL     1      -7.639   7.273 130.652  0.00  0.00    +0.000 OA
ATOM      6  C   UNL     1      -9.667   5.970 130.654  0.00  0.00    +0.000 C 
ENDROOT
BRANCH   1   8
ATOM      7  C   UNL     1      -8.164   2.635 130.498  0.00  0.00    +0.000 C 
ATOM      8  C   UNL     1      -8.988   3.654 130.218  0.00  0.00    +0.000 C 
BRANCH   7   9
ATOM      9  C   UNL     1      -7.535   1.782 129.453  0.00  0.00    +0.000 C 
BRANCH   9  10
ATOM     10  O   UNL     1      -7.814   0.425 129.777  0.00  0.00    +0.000 OA
ATOM     11  H   UNL     1      -7.488  -0.126 129.044  0.00  0.00    +0.000 HD
ENDBRANCH   9  10
BRANCH   9  12
ATOM     12  C   UNL     1      -8.093   2.114 128.072  0.00  0.00    +0.000 C 
BRANCH  12  13
ATOM     13  C   UNL     1      -8.391   0.836 127.309  0.00  0.00    +0.000 C 
BRANCH  13  14
ATOM     14  C   UNL     1      -9.045   1.169 125.980  0.00  0.00    +0.000 C 
BRANCH  14  16
ATOM     15  C   UNL     1      -8.787  -1.310 125.947  0.00  0.00    +0.000 C 
ATOM     16  C   UNL     1      -9.229  -0.096 125.156  0.00  0.00    +0.000 C 
ENDBRANCH  14  16
ENDBRANCH  13  14
ENDBRANCH  12  13
ENDBRANCH   9  12
ENDBRANCH   7   9
ENDBRANCH   1   8
BRANCH   2  17
ATOM     17  O   UNL     1      -9.947   4.716 133.666  0.00  0.00    +0.000 OA
ATOM     18  H   UNL     1     -10.300   3.839 133.878  0.00  0.00    +0.000 HD
ENDBRANCH   2  17
BRANCH   6  19
ATOM     19  C   UNL     1     -10.788   6.838 131.194  0.00  0.00    +0.000 C 
BRANCH  19  20
ATOM     20  C   UNL     1     -12.131   6.367 130.718  0.00  0.00    +0.000 C 
ATOM     21  C   UNL     1     -12.956   7.159 130.024  0.00  0.00    +0.000 C 
BRANCH  21  22
ATOM     22  C   UNL     1     -12.582   8.564 129.662  0.00  0.00    +0.000 C 
BRANCH  22  23
ATOM     23  C   UNL     1     -12.336   8.678 128.172  0.00  0.00    +0.000 C 
BRANCH  23  24
ATOM     24  C   UNL     1     -10.896   8.338 127.826  0.00  0.00    +0.000 C 
BRANCH  24  25
ATOM     25  C   UNL     1     -10.723   7.097 126.985  0.00  0.00    +0.000 C 
ATOM     26  O   UNL     1      -9.686   6.440 127.014  0.00  0.00    +0.000 OA
BRANCH  25  27
ATOM     27  O   UNL     1     -11.751   6.734 126.196  0.00  0.00    +0.000 OA
ATOM     28  H   UNL     1     -11.829   7.162 125.325  0.00  0.00    +0.000 HD
ENDBRANCH  25  27
ENDBRANCH  24  25
ENDBRANCH  23  24
ENDBRANCH  22  23
ENDBRANCH  21  22
ENDBRANCH  19  20
ENDBRANCH   6  19
TORSDOF 15
ENDMDL
MODEL 5
REMARK VINA RESULT:      -6.2      3.331      6.669
REMARK  Name = Dinoprostone
REMARK  16 active torsions:
REMARK  status: ('A' for Active; 'I' for Inactive)
REMARK    1  A    between atoms: C_1  and  C_2
REMARK    2  A    between atoms: C_2  and  C_3
REMARK    3  A    between atoms: C_3  and  C_4
REMARK    4  A    between atoms: C_4  and  C_5
REMARK    5  A    between atoms: C_5  and  C_6
REMARK    6  A    between atoms: C_6  and  O_7
REMARK    7  A    between atoms: C_6  and  C_8
REMARK    8  A    between atoms: C_9  and  C_10
REMARK    9  A    between atoms: C_11  and  O_12
REMARK   10  A    between atoms: C_16  and  C_17
REMARK   11  A    between atoms: C_17  and  C_18
REMARK   12  A    between atoms: C_19  and  C_20
REMARK   13  A    between atoms: C_20  and  C_21
REMARK   14  A    between atoms: C_21  and  C_22
REMARK   15  A    between atoms: C_22  and  C_23
REMARK   16  A    between atoms: C_23  and  O_24
REMARK                            x       y       z     vdW  Elec       q    Type
REMARK                         _______ _______ _______ _____ _____    ______ ____
ROOT
ATOM      1  C   UNL     1      -9.734   4.543 131.205  0.00  0.00    +0.000 C 
ATOM      2  C   UNL     1      -9.017   4.598 132.577  0.00  0.00    +0.000 C 
ATOM      3  C   UNL     1      -8.071   5.802 132.544  0.00  0.00    +0.000 C 
ATOM      4  C   UNL     1      -8.369   6.423 131.205  0.00  0.00    +0.000 C 
ATOM      5  O   UNL     1      -7.642   7.234 130.647  0.00  0.00    +0.000 OA
ATOM      6  C   UNL     1      -9.703   5.984 130.669  0.00  0.00    +0.000 C 
ENDROOT
BRANCH   1   8
ATOM      7  C   UNL     1      -8.980   2.327 130.222  0.00  0.00    +0.000 C 
ATOM      8  C   UNL     1      -9.095   3.662 130.165  0.00  0.00    +0.000 C 
BRANCH   7   9
ATOM      9  C   UNL     1      -8.356   1.513 129.145  0.00  0.00    +0.000 C 
BRANCH   9  10
ATOM     10  O   UNL     1      -7.342   2.304 128.536  0.00  0.00    +0.000 OA
ATOM     11  H   UNL     1      -6.581   2.324 129.141  0.00  0.00    +0.000 HD
ENDBRANCH   9  10
BRANCH   9  12
ATOM     12  C   UNL     1      -7.749   0.234 129.713  0.00  0.00    +0.000 C 
BRANCH  12  13
ATOM     13  C   UNL     1      -7.808  -0.876 128.679  0.00  0.00    +0.000 C 
BRANCH  13  14
ATOM     14  C   UNL     1      -7.220  -2.152 129.255  0.00  0.00    +0.000 C 
BRANCH  14  16
ATOM     15  C   UNL     1      -8.661  -3.527 127.757  0.00  0.00    +0.000 C 
ATOM     16  C   UNL     1      -8.244  -3.274 129.192  0.00  0.00    +0.000 C 
ENDBRANCH  14  16
ENDBRANCH  13  14
ENDBRANCH  12  13
ENDBRANCH   9  12
ENDBRANCH   7   9
ENDBRANCH   1   8
BRANCH   2  17
ATOM     17  O   UNL     1      -9.942   4.668 133.659  0.00  0.00    +0.000 OA
ATOM     18  H   UNL     1     -10.770   5.090 133.385  0.00  0.00    +0.000 HD
ENDBRANCH   2  17
BRANCH   6  19
ATOM     19  C   UNL     1     -10.787   6.868 131.256  0.00  0.00    +0.000 C 
BRANCH  19  20
ATOM     20  C   UNL     1     -12.157   6.397 130.863  0.00  0.00    +0.000 C 
ATOM     21  C   UNL     1     -13.040   7.203 130.262  0.00  0.00    +0.000 C 
BRANCH  21  22
ATOM     22  C   UNL     1     -12.707   8.625 129.926  0.00  0.00    +0.000 C 
BRANCH  22  23
ATOM     23  C   UNL     1     -12.873   8.869 128.441  0.00  0.00    +0.000 C 
BRANCH  23  24
ATOM     24  C   UNL     1     -12.567   7.616 127.640  0.00  0.00    +0.000 C 
BRANCH  24  25
ATOM     25  C   UNL     1     -11.122   7.462 127.233  0.00  0.00    +0.000 C 
ATOM     26  O   UNL     1     -10.224   8.079 127.797  0.00  0.00    +0.000 OA
BRANCH  25  27
ATOM     27  O   UNL     1     -10.851   6.618 126.220  0.00  0.00    +0.000 OA
ATOM     28  H   UNL     1     -11.037   5.671 126.352  0.00  0.00    +0.000 HD
ENDBRANCH  25  27
ENDBRANCH  24  25
ENDBRANCH  23  24
ENDBRANCH  22  23
ENDBRANCH  21  22
ENDBRANCH  19  20
ENDBRANCH   6  19
TORSDOF 15
ENDMDL
MODEL 6
REMARK VINA RESULT:      -6.2      9.230     10.771
REMARK  Name = Dinoprostone
REMARK  16 active torsions:
REMARK  status: ('A' for Active; 'I' for Inactive)
REMARK    1  A    between atoms: C_1  and  C_2
REMARK    2  A    between atoms: C_2  and  C_3
REMARK    3  A    between atoms: C_3  and  C_4
REMARK    4  A    between atoms: C_4  and  C_5
REMARK    5  A    between atoms: C_5  and  C_6
REMARK    6  A    between atoms: C_6  and  O_7
REMARK    7  A    between atoms: C_6  and  C_8
REMARK    8  A    between atoms: C_9  and  C_10
REMARK    9  A    between atoms: C_11  and  O_12
REMARK   10  A    between atoms: C_16  and  C_17
REMARK   11  A    between atoms: C_17  and  C_18
REMARK   12  A    between atoms: C_19  and  C_20
REMARK   13  A    between atoms: C_20  and  C_21
REMARK   14  A    between atoms: C_21  and  C_22
REMARK   15  A    between atoms: C_22  and  C_23
REMARK   16  A    between atoms: C_23  and  O_24
REMARK                            x       y       z     vdW  Elec       q    Type
REMARK                         _______ _______ _______ _____ _____    ______ ____
ROOT
ATOM      1  C   UNL     1      -6.129  -1.079 124.404  0.00  0.00    +0.000 C 
ATOM      2  C   UNL     1      -6.596  -2.223 123.471  0.00  0.00    +0.000 C 
ATOM      3  C   UNL     1      -8.123  -2.277 123.551  0.00  0.00    +0.000 C 
ATOM      4  C   UNL     1      -8.452  -1.106 124.439  0.00  0.00    +0.000 C 
ATOM      5  O   UNL     1      -9.529  -0.949 124.999  0.00  0.00    +0.000 OA
ATOM      6  C   UNL     1      -7.324  -0.115 124.497  0.00  0.00    +0.000 C 
ENDROOT
BRANCH   1   8
ATOM      7  C   UNL     1      -5.930  -0.736 126.911  0.00  0.00    +0.000 C 
ATOM      8  C   UNL     1      -5.765  -1.481 125.808  0.00  0.00    +0.000 C 
BRANCH   7   9
ATOM      9  C   UNL     1      -5.569  -1.205 128.276  0.00  0.00    +0.000 C 
BRANCH   9  10
ATOM     10  O   UNL     1      -4.501  -0.392 128.745  0.00  0.00    +0.000 OA
ATOM     11  H   UNL     1      -4.461   0.399 128.179  0.00  0.00    +0.000 HD
ENDBRANCH   9  10
BRANCH   9  12
ATOM     12  C   UNL     1      -6.762  -1.095 129.221  0.00  0.00    +0.000 C 
BRANCH  12  13
ATOM     13  C   UNL     1      -7.833  -2.098 128.828  0.00  0.00    +0.000 C 
BRANCH  13  14
ATOM     14  C   UNL     1      -7.385  -3.502 129.193  0.00  0.00    +0.000 C 
BRANCH  14  16
ATOM     15  C   UNL     1      -5.760  -4.581 130.742  0.00  0.00    +0.000 C 
ATOM     16  C   UNL     1      -6.837  -3.525 130.611  0.00  0.00    +0.000 C 
ENDBRANCH  14  16
ENDBRANCH  13  14
ENDBRANCH  12  13
ENDBRANCH   9  12
ENDBRANCH   7   9
ENDBRANCH   1   8
BRANCH   2  17
ATOM     17  O   UNL     1      -6.130  -2.045 122.136  0.00  0.00    +0.000 OA
ATOM     18  H   UNL     1      -6.518  -1.254 121.733  0.00  0.00    +0.000 HD
ENDBRANCH   2  17
BRANCH   6  19
ATOM     19  C   UNL     1      -7.431   0.827 123.313  0.00  0.00    +0.000 C 
BRANCH  19  20
ATOM     20  C   UNL     1      -6.782   2.150 123.598  0.00  0.00    +0.000 C 
ATOM     21  C   UNL     1      -7.003   3.228 122.837  0.00  0.00    +0.000 C 
BRANCH  21  22
ATOM     22  C   UNL     1      -7.930   3.186 121.661  0.00  0.00    +0.000 C 
BRANCH  22  23
ATOM     23  C   UNL     1      -7.380   4.021 120.524  0.00  0.00    +0.000 C 
BRANCH  23  24
ATOM     24  C   UNL     1      -5.863   4.062 120.556  0.00  0.00    +0.000 C 
BRANCH  24  25
ATOM     25  C   UNL     1      -5.249   5.303 119.955  0.00  0.00    +0.000 C 
ATOM     26  O   UNL     1      -4.543   6.058 120.618  0.00  0.00    +0.000 OA
BRANCH  25  27
ATOM     27  O   UNL     1      -5.507   5.557 118.659  0.00  0.00    +0.000 OA
ATOM     28  H   UNL     1      -4.948   5.122 117.990  0.00  0.00    +0.000 HD
ENDBRANCH  25  27
ENDBRANCH  24  25
ENDBRANCH  23  24
ENDBRANCH  22  23
ENDBRANCH  21  22
ENDBRANCH  19  20
ENDBRANCH   6  19
TORSDOF 15
ENDMDL
MODEL 7
REMARK VINA RESULT:      -6.2      9.069     12.387
REMARK  Name = Dinoprostone
REMARK  16 active torsions:
REMARK  status: ('A' for Active; 'I' for Inactive)
REMARK    1  A    between atoms: C_1  and  C_2
REMARK    2  A    between atoms: C_2  and  C_3
REMARK    3  A    between atoms: C_3  and  C_4
REMARK    4  A    between atoms: C_4  and  C_5
REMARK    5  A    between atoms: C_5  and  C_6
REMARK    6  A    between atoms: C_6  and  O_7
REMARK    7  A    between atoms: C_6  and  C_8
REMARK    8  A    between atoms: C_9  and  C_10
REMARK    9  A    between atoms: C_11  and  O_12
REMARK   10  A    between atoms: C_16  and  C_17
REMARK   11  A    between atoms: C_17  and  C_18
REMARK   12  A    between atoms: C_19  and  C_20
REMARK   13  A    between atoms: C_20  and  C_21
REMARK   14  A    between atoms: C_21  and  C_22
REMARK   15  A    between atoms: C_22  and  C_23
REMARK   16  A    between atoms: C_23  and  O_24
REMARK                            x       y       z     vdW  Elec       q    Type
REMARK                         _______ _______ _______ _____ _____    ______ ____
ROOT
ATOM      1  C   UNL     1      -8.337  -0.990 125.431  0.00  0.00    +0.000 C 
ATOM      2  C   UNL     1      -8.953  -2.076 124.515  0.00  0.00    +0.000 C 
ATOM      3  C   UNL     1      -7.795  -2.912 123.963  0.00  0.00    +0.000 C 
ATOM      4  C   UNL     1      -6.598  -2.328 124.666  0.00  0.00    +0.000 C 
ATOM      5  O   UNL     1      -5.440  -2.500 124.309  0.00  0.00    +0.000 OA
ATOM      6  C   UNL     1      -6.991  -1.567 125.901  0.00  0.00    +0.000 C 
ENDROOT
BRANCH   1   8
ATOM      7  C   UNL     1      -8.890   1.383 124.723  0.00  0.00    +0.000 C 
ATOM      8  C   UNL     1      -8.054   0.337 124.779  0.00  0.00    +0.000 C 
BRANCH   7   9
ATOM      9  C   UNL     1      -8.538   2.678 124.081  0.00  0.00    +0.000 C 
BRANCH   9  10
ATOM     10  O   UNL     1      -8.991   3.723 124.933  0.00  0.00    +0.000 OA
ATOM     11  H   UNL     1      -8.210   4.221 125.230  0.00  0.00    +0.000 HD
ENDBRANCH   9  10
BRANCH   9  12
ATOM     12  C   UNL     1      -7.030   2.790 123.875  0.00  0.00    +0.000 C 
BRANCH  12  13
ATOM     13  C   UNL     1      -6.710   2.873 122.393  0.00  0.00    +0.000 C 
BRANCH  13  14
ATOM     14  C   UNL     1      -5.668   3.950 122.149  0.00  0.00    +0.000 C 
BRANCH  14  16
ATOM     15  C   UNL     1      -6.984   4.062 120.036  0.00  0.00    +0.000 C 
ATOM     16  C   UNL     1      -5.636   4.322 120.675  0.00  0.00    +0.000 C 
ENDBRANCH  14  16
ENDBRANCH  13  14
ENDBRANCH  12  13
ENDBRANCH   9  12
ENDBRANCH   7   9
ENDBRANCH   1   8
BRANCH   2  17
ATOM     17  O   UNL     1      -9.913  -2.873 125.205  0.00  0.00    +0.000 OA
ATOM     18  H   UNL     1      -9.751  -3.817 125.064  0.00  0.00    +0.000 HD
ENDBRANCH   2  17
BRANCH   6  19
ATOM     19  C   UNL     1      -7.124  -2.538 127.059  0.00  0.00    +0.000 C 
BRANCH  19  20
ATOM     20  C   UNL     1      -7.903  -1.942 128.194  0.00  0.00    +0.000 C 
ATOM     21  C   UNL     1      -7.911  -2.489 129.415  0.00  0.00    +0.000 C 
BRANCH  21  22
ATOM     22  C   UNL     1      -7.124  -3.724 129.730  0.00  0.00    +0.000 C 
BRANCH  22  23
ATOM     23  C   UNL     1      -5.921  -3.381 130.582  0.00  0.00    +0.000 C 
BRANCH  23  24
ATOM     24  C   UNL     1      -4.665  -4.055 130.058  0.00  0.00    +0.000 C 
BRANCH  24  25
ATOM     25  C   UNL     1      -3.692  -3.132 129.367  0.00  0.00    +0.000 C 
ATOM     26  O   UNL     1      -2.505  -3.423 129.242  0.00  0.00    +0.000 OA
BRANCH  25  27
ATOM     27  O   UNL     1      -4.172  -1.969 128.890  0.00  0.00    +0.000 OA
ATOM     28  H   UNL     1      -4.777  -2.004 128.128  0.00  0.00    +0.000 HD
ENDBRANCH  25  27
ENDBRANCH  24  25
ENDBRANCH  23  24
ENDBRANCH  22  23
ENDBRANCH  21  22
ENDBRANCH  19  20
ENDBRANCH   6  19
TORSDOF 15
ENDMDL
MODEL 8
REMARK VINA RESULT:      -6.1      7.330     11.319
REMARK  Name = Dinoprostone
REMARK  16 active torsions:
REMARK  status: ('A' for Active; 'I' for Inactive)
REMARK    1  A    between atoms: C_1  and  C_2
REMARK    2  A    between atoms: C_2  and  C_3
REMARK    3  A    between atoms: C_3  and  C_4
REMARK    4  A    between atoms: C_4  and  C_5
REMARK    5  A    between atoms: C_5  and  C_6
REMARK    6  A    between atoms: C_6  and  O_7
REMARK    7  A    between atoms: C_6  and  C_8
REMARK    8  A    between atoms: C_9  and  C_10
REMARK    9  A    between atoms: C_11  and  O_12
REMARK   10  A    between atoms: C_16  and  C_17
REMARK   11  A    between atoms: C_17  and  C_18
REMARK   12  A    between atoms: C_19  and  C_20
REMARK   13  A    between atoms: C_20  and  C_21
REMARK   14  A    between atoms: C_21  and  C_22
REMARK   15  A    between atoms: C_22  and  C_23
REMARK   16  A    between atoms: C_23  and  O_24
REMARK                            x       y       z     vdW  Elec       q    Type
REMARK                         _______ _______ _______ _____ _____    ______ ____
ROOT
ATOM      1  C   UNL     1      -7.953  -2.596 129.083  0.00  0.00    +0.000 C 
ATOM      2  C   UNL     1      -7.265  -3.541 130.098  0.00  0.00    +0.000 C 
ATOM      3  C   UNL     1      -5.754  -3.402 129.894  0.00  0.00    +0.000 C 
ATOM      4  C   UNL     1      -5.658  -2.319 128.852  0.00  0.00    +0.000 C 
ATOM      5  O   UNL     1      -4.655  -2.093 128.187  0.00  0.00    +0.000 OA
ATOM      6  C   UNL     1      -6.916  -1.502 128.776  0.00  0.00    +0.000 C 
ENDROOT
BRANCH   1   8
ATOM      7  C   UNL     1      -8.713  -2.556 126.662  0.00  0.00    +0.000 C 
ATOM      8  C   UNL     1      -8.352  -3.217 127.771  0.00  0.00    +0.000 C 
BRANCH   7   9
ATOM      9  C   UNL     1      -9.074  -3.234 125.387  0.00  0.00    +0.000 C 
BRANCH   9  10
ATOM     10  O   UNL     1      -9.773  -2.294 124.580  0.00  0.00    +0.000 OA
ATOM     11  H   UNL     1      -9.726  -2.604 123.659  0.00  0.00    +0.000 HD
ENDBRANCH   9  10
BRANCH   9  12
ATOM     12  C   UNL     1      -7.826  -3.722 124.658  0.00  0.00    +0.000 C 
BRANCH  12  13
ATOM     13  C   UNL     1      -6.879  -2.560 124.411  0.00  0.00    +0.000 C 
BRANCH  13  14
ATOM     14  C   UNL     1      -5.453  -2.981 124.720  0.00  0.00    +0.000 C 
BRANCH  14  16
ATOM     15  C   UNL     1      -4.327  -4.866 123.542  0.00  0.00    +0.000 C 
ATOM     16  C   UNL     1      -4.748  -3.414 123.445  0.00  0.00    +0.000 C 
ENDBRANCH  14  16
ENDBRANCH  13  14
ENDBRANCH  12  13
ENDBRANCH   9  12
ENDBRANCH   7   9
ENDBRANCH   1   8
BRANCH   2  17
ATOM     17  O   UNL     1      -7.657  -3.258 131.439  0.00  0.00    +0.000 OA
ATOM     18  H   UNL     1      -8.569  -3.541 131.604  0.00  0.00    +0.000 HD
ENDBRANCH   2  17
BRANCH   6  19
ATOM     19  C   UNL     1      -6.862  -0.412 129.830  0.00  0.00    +0.000 C 
BRANCH  19  20
ATOM     20  C   UNL     1      -7.542   0.842 129.364  0.00  0.00    +0.000 C 
ATOM     21  C   UNL     1      -8.540   1.407 130.053  0.00  0.00    +0.000 C 
BRANCH  21  22
ATOM     22  C   UNL     1      -9.030   0.831 131.346  0.00  0.00    +0.000 C 
BRANCH  22  23
ATOM     23  C   UNL     1      -9.730   1.893 132.166  0.00  0.00    +0.000 C 
BRANCH  23  24
ATOM     24  C   UNL     1      -9.233   3.282 131.806  0.00  0.00    +0.000 C 
BRANCH  24  25
ATOM     25  C   UNL     1      -9.450   4.329 132.872  0.00  0.00    +0.000 C 
ATOM     26  O   UNL     1      -9.362   5.528 132.625  0.00  0.00    +0.000 OA
BRANCH  25  27
ATOM     27  O   UNL     1      -9.743   3.898 134.113  0.00  0.00    +0.000 OA
ATOM     28  H   UNL     1     -10.593   3.441 134.248  0.00  0.00    +0.000 HD
ENDBRANCH  25  27
ENDBRANCH  24  25
ENDBRANCH  23  24
ENDBRANCH  22  23
ENDBRANCH  21  22
ENDBRANCH  19  20
ENDBRANCH   6  19
TORSDOF 15
ENDMDL
MODEL 9
REMARK VINA RESULT:      -6.0      2.908      6.348
REMARK  Name = Dinoprostone
REMARK  16 active torsions:
REMARK  status: ('A' for Active; 'I' for Inactive)
REMARK    1  A    between atoms: C_1  and  C_2
REMARK    2  A    between atoms: C_2  and  C_3
REMARK    3  A    between atoms: C_3  and  C_4
REMARK    4  A    between atoms: C_4  and  C_5
REMARK    5  A    between atoms: C_5  and  C_6
REMARK    6  A    between atoms: C_6  and  O_7
REMARK    7  A    between atoms: C_6  and  C_8
REMARK    8  A    between atoms: C_9  and  C_10
REMARK    9  A    between atoms: C_11  and  O_12
REMARK   10  A    between atoms: C_16  and  C_17
REMARK   11  A    between atoms: C_17  and  C_18
REMARK   12  A    between atoms: C_19  and  C_20
REMARK   13  A    between atoms: C_20  and  C_21
REMARK   14  A    between atoms: C_21  and  C_22
REMARK   15  A    between atoms: C_22  and  C_23
REMARK   16  A    between atoms: C_23  and  O_24
REMARK                            x       y       z     vdW  Elec       q    Type
REMARK                         _______ _______ _______ _____ _____    ______ ____
ROOT
ATOM      1  C   UNL     1      -9.435   4.547 131.043  0.00  0.00    +0.000 C 
ATOM      2  C   UNL     1      -8.805   4.557 132.457  0.00  0.00    +0.000 C 
ATOM      3  C   UNL     1      -7.900   5.789 132.540  0.00  0.00    +0.000 C 
ATOM      4  C   UNL     1      -8.137   6.466 131.216  0.00  0.00    +0.000 C 
ATOM      5  O   UNL     1      -7.405   7.325 130.743  0.00  0.00    +0.000 OA
ATOM      6  C   UNL     1      -9.420   6.013 130.578  0.00  0.00    +0.000 C 
ENDROOT
BRANCH   1   8
ATOM      7  C   UNL     1      -8.997   2.484 129.631  0.00  0.00    +0.000 C 
ATOM      8  C   UNL     1      -8.706   3.739 130.003  0.00  0.00    +0.000 C 
BRANCH   7   9
ATOM      9  C   UNL     1      -8.248   1.749 128.577  0.00  0.00    +0.000 C 
BRANCH   9  10
ATOM     10  O   UNL     1      -8.667   2.254 127.315  0.00  0.00    +0.000 OA
ATOM     11  H   UNL     1      -7.961   2.835 126.981  0.00  0.00    +0.000 HD
ENDBRANCH   9  10
BRANCH   9  12
ATOM     12  C   UNL     1      -6.743   1.944 128.744  0.00  0.00    +0.000 C 
BRANCH  12  13
ATOM     13  C   UNL     1      -6.074   2.032 127.384  0.00  0.00    +0.000 C 
BRANCH  13  14
ATOM     14  C   UNL     1      -4.995   3.099 127.407  0.00  0.00    +0.000 C 
BRANCH  14  16
ATOM     15  C   UNL     1      -2.516   3.166 127.159  0.00  0.00    +0.000 C 
ATOM     16  C   UNL     1      -3.812   2.666 126.555  0.00  0.00    +0.000 C 
ENDBRANCH  14  16
ENDBRANCH  13  14
ENDBRANCH  12  13
ENDBRANCH   9  12
ENDBRANCH   7   9
ENDBRANCH   1   8
BRANCH   2  17
ATOM     17  O   UNL     1      -9.796   4.545 133.482  0.00  0.00    +0.000 OA
ATOM     18  H   UNL     1      -9.443   4.176 134.305  0.00  0.00    +0.000 HD
ENDBRANCH   2  17
BRANCH   6  19
ATOM     19  C   UNL     1     -10.567   6.834 131.138  0.00  0.00    +0.000 C 
BRANCH  19  20
ATOM     20  C   UNL     1     -11.898   6.269 130.737  0.00  0.00    +0.000 C 
ATOM     21  C   UNL     1     -12.809   6.996 130.078  0.00  0.00    +0.000 C 
BRANCH  21  22
ATOM     22  C   UNL     1     -12.547   8.417 129.682  0.00  0.00    +0.000 C 
BRANCH  22  23
ATOM     23  C   UNL     1     -12.870   8.625 128.218  0.00  0.00    +0.000 C 
BRANCH  23  24
ATOM     24  C   UNL     1     -12.428   7.437 127.383  0.00  0.00    +0.000 C 
BRANCH  24  25
ATOM     25  C   UNL     1     -11.035   7.547 126.810  0.00  0.00    +0.000 C 
ATOM     26  O   UNL     1     -10.044   7.226 127.460  0.00  0.00    +0.000 OA
BRANCH  25  27
ATOM     27  O   UNL     1     -10.917   8.014 125.554  0.00  0.00    +0.000 OA
ATOM     28  H   UNL     1     -10.098   7.813 125.067  0.00  0.00    +0.000 HD
ENDBRANCH  25  27
ENDBRANCH  24  25
ENDBRANCH  23  24
ENDBRANCH  22  23
ENDBRANCH  21  22
ENDBRANCH  19  20
ENDBRANCH   6  19
TORSDOF 15
ENDMDL
