MODEL 1
REMARK VINA RESULT:      -9.5      0.000      0.000
REMARK  Name = Diosmin
REMARK  17 active torsions:
REMARK  status: ('A' for Active; 'I' for Inactive)
REMARK    1  A    between atoms: C_1  and  O_2
REMARK    2  A    between atoms: O_2  and  C_3
REMARK    3  A    between atoms: C_4  and  O_5
REMARK    4  A    between atoms: C_7  and  C_10
REMARK    5  A    between atoms: C_15  and  O_16
REMARK    6  A    between atoms: C_18  and  O_19
REMARK    7  A    between atoms: O_19  and  C_20
REMARK    8  A    between atoms: C_22  and  C_23
REMARK    9  A    between atoms: C_23  and  O_24
REMARK   10  A    between atoms: O_24  and  C_25
REMARK   11  A    between atoms: C_27  and  C_28
REMARK   12  A    between atoms: C_29  and  O_30
REMARK   13  A    between atoms: C_31  and  O_32
REMARK   14  A    between atoms: C_33  and  O_34
REMARK   15  A    between atoms: C_35  and  O_36
REMARK   16  A    between atoms: C_37  and  O_38
REMARK   17  A    between atoms: C_39  and  O_40
REMARK                            x       y       z     vdW  Elec       q    Type
REMARK                         _______ _______ _______ _____ _____    ______ ____
ROOT
ATOM      1  C   UNL     1      -7.087  -1.200 128.160  0.00  0.00    +0.000 C 
ATOM      2  O   UNL     1      -7.775  -0.417 127.139  0.00  0.00    +0.000 OA
ATOM      3  C   UNL     1      -8.196  -1.152 125.947  0.00  0.00    +0.000 C 
ATOM      4  C   UNL     1      -9.160  -2.294 126.299  0.00  0.00    +0.000 C 
ATOM      5  C   UNL     1      -8.456  -3.247 127.262  0.00  0.00    +0.000 C 
ATOM      6  C   UNL     1      -7.871  -2.504 128.485  0.00  0.00    +0.000 C 
ENDROOT
BRANCH   4   7
ATOM      7  O   UNL     1      -9.638  -2.985 125.135  0.00  0.00    +0.000 OA
ATOM      8  H   UNL     1     -10.342  -3.609 125.381  0.00  0.00    +0.000 HD
ENDBRANCH   4   7
BRANCH   5   9
ATOM      9  O   UNL     1      -9.392  -4.245 127.707  0.00  0.00    +0.000 OA
ATOM     10  H   UNL     1     -10.034  -3.818 128.303  0.00  0.00    +0.000 HD
ENDBRANCH   5   9
BRANCH   6  11
ATOM     11  O   UNL     1      -7.065  -3.401 129.257  0.00  0.00    +0.000 OA
ATOM     12  H   UNL     1      -7.642  -3.905 129.856  0.00  0.00    +0.000 HD
ENDBRANCH   6  11
BRANCH   1  13
ATOM     13  O   UNL     1      -6.689  -0.456 129.481  0.00  0.00    +0.000 OA
BRANCH  13  21
ATOM     14  C   UNL     1     -10.148   4.972 131.450  0.00  0.00    +0.000 A 
ATOM     15  C   UNL     1      -8.850   5.251 131.318  0.00  0.00    +0.000 A 
ATOM     16  C   UNL     1      -8.201   4.220 132.078  0.00  0.00    +0.000 A 
ATOM     17  O   UNL     1      -8.150   4.138 133.327  0.00  0.00    +0.000 OA
ATOM     18  C   UNL     1      -7.945   3.098 131.271  0.00  0.00    +0.000 A 
ATOM     19  C   UNL     1      -6.947   3.039 130.290  0.00  0.00    +0.000 A 
ATOM     20  C   UNL     1      -6.590   1.887 129.637  0.00  0.00    +0.000 A 
ATOM     21  C   UNL     1      -7.302   0.750 129.888  0.00  0.00    +0.000 A 
ATOM     22  C   UNL     1      -8.617   0.949 130.644  0.00  0.00    +0.000 A 
ATOM     23  C   UNL     1      -9.014   2.264 131.262  0.00  0.00    +0.000 A 
ATOM     24  O   UNL     1     -10.320   3.310 131.031  0.00  0.00    +0.000 OA
BRANCH  14  28
ATOM     25  C   UNL     1     -12.426   8.722 129.560  0.00  0.00    +0.000 A 
ATOM     26  C   UNL     1     -11.282   8.225 128.932  0.00  0.00    +0.000 A 
ATOM     27  C   UNL     1     -10.506   7.082 129.481  0.00  0.00    +0.000 A 
ATOM     28  C   UNL     1     -10.788   6.434 130.779  0.00  0.00    +0.000 A 
ATOM     29  C   UNL     1     -12.054   6.905 131.225  0.00  0.00    +0.000 A 
ATOM     30  C   UNL     1     -12.830   7.994 130.664  0.00  0.00    +0.000 A 
BRANCH  25  32
ATOM     31  C   UNL     1     -13.462  10.861 129.969  0.00  0.00    +0.000 C 
ATOM     32  O   UNL     1     -13.059   9.833 129.044  0.00  0.00    +0.000 OA
ENDBRANCH  25  32
BRANCH  26  33
ATOM     33  O   UNL     1     -10.886   8.849 127.756  0.00  0.00    +0.000 OA
ATOM     34  H   UNL     1     -10.233   9.547 127.997  0.00  0.00    +0.000 HD
ENDBRANCH  26  33
ENDBRANCH  14  28
BRANCH  19  35
ATOM     35  O   UNL     1      -6.295   4.155 129.857  0.00  0.00    +0.000 OA
ATOM     36  H   UNL     1      -5.385   4.122 130.183  0.00  0.00    +0.000 HD
ENDBRANCH  19  35
ENDBRANCH  13  21
ENDBRANCH   1  13
BRANCH   3  37
ATOM     37  C   UNL     1      -8.913  -0.199 124.964  0.00  0.00    +0.000 C 
BRANCH  37  38
ATOM     38  O   UNL     1      -8.634   1.151 125.358  0.00  0.00    +0.000 OA
BRANCH  38  39
ATOM     39  C   UNL     1      -7.822   1.817 124.395  0.00  0.00    +0.000 C 
ATOM     40  O   UNL     1      -6.444   1.815 124.781  0.00  0.00    +0.000 OA
ATOM     41  C   UNL     1      -6.201   2.496 126.017  0.00  0.00    +0.000 C 
ATOM     42  C   UNL     1      -4.722   2.327 126.344  0.00  0.00    +0.000 C 
ATOM     43  C   UNL     1      -6.594   3.977 125.902  0.00  0.00    +0.000 C 
ATOM     44  C   UNL     1      -8.069   4.085 125.473  0.00  0.00    +0.000 C 
ATOM     45  C   UNL     1      -8.334   3.256 124.208  0.00  0.00    +0.000 C 
BRANCH  43  46
ATOM     46  O   UNL     1      -6.357   4.668 127.129  0.00  0.00    +0.000 OA
ATOM     47  H   UNL     1      -6.319   5.621 126.945  0.00  0.00    +0.000 HD
ENDBRANCH  43  46
BRANCH  44  48
ATOM     48  O   UNL     1      -8.415   5.455 125.240  0.00  0.00    +0.000 OA
ATOM     49  H   UNL     1      -7.613   5.979 125.428  0.00  0.00    +0.000 HD
ENDBRANCH  44  48
BRANCH  45  50
ATOM     50  O   UNL     1      -7.701   3.895 123.082  0.00  0.00    +0.000 OA
ATOM     51  H   UNL     1      -7.788   4.858 123.198  0.00  0.00    +0.000 HD
ENDBRANCH  45  50
ENDBRANCH  38  39
ENDBRANCH  37  38
ENDBRANCH   3  37
TORSDOF 15
ENDMDL
MODEL 2
REMARK VINA RESULT:      -9.4      1.074      1.531
REMARK  Name = Diosmin
REMARK  17 active torsions:
REMARK  status: ('A' for Active; 'I' for Inactive)
REMARK    1  A    between atoms: C_1  and  O_2
REMARK    2  A    between atoms: O_2  and  C_3
REMARK    3  A    between atoms: C_4  and  O_5
REMARK    4  A    between atoms: C_7  and  C_10
REMARK    5  A    between atoms: C_15  and  O_16
REMARK    6  A    between atoms: C_18  and  O_19
REMARK    7  A    between atoms: O_19  and  C_20
REMARK    8  A    between atoms: C_22  and  C_23
REMARK    9  A    between atoms: C_23  and  O_24
REMARK   10  A    between atoms: O_24  and  C_25
REMARK   11  A    between atoms: C_27  and  C_28
REMARK   12  A    between atoms: C_29  and  O_30
REMARK   13  A    between atoms: C_31  and  O_32
REMARK   14  A    between atoms: C_33  and  O_34
REMARK   15  A    between atoms: C_35  and  O_36
REMARK   16  A    between atoms: C_37  and  O_38
REMARK   17  A    between atoms: C_39  and  O_40
REMARK                            x       y       z     vdW  Elec       q    Type
REMARK                         _______ _______ _______ _____ _____    ______ ____
ROOT
ATOM      1  C   UNL     1      -6.876  -1.092 127.456  0.00  0.00    +0.000 C 
ATOM      2  O   UNL     1      -7.583  -0.365 126.408  0.00  0.00    +0.000 OA
ATOM      3  C   UNL     1      -8.163  -1.183 125.343  0.00  0.00    +0.000 C 
ATOM      4  C   UNL     1      -9.183  -2.189 125.896  0.00  0.00    +0.000 C 
ATOM      5  C   UNL     1      -8.479  -3.093 126.905  0.00  0.00    +0.000 C 
ATOM      6  C   UNL     1      -7.732  -2.278 127.987  0.00  0.00    +0.000 C 
ENDROOT
BRANCH   4   7
ATOM      7  O   UNL     1      -9.813  -2.955 124.858  0.00  0.00    +0.000 OA
ATOM      8  H   UNL     1      -9.683  -3.906 125.017  0.00  0.00    +0.000 HD
ENDBRANCH   4   7
BRANCH   5   9
ATOM      9  O   UNL     1      -9.450  -3.948 127.532  0.00  0.00    +0.000 OA
ATOM     10  H   UNL     1      -8.978  -4.576 128.109  0.00  0.00    +0.000 HD
ENDBRANCH   5   9
BRANCH   6  11
ATOM     11  O   UNL     1      -6.938  -3.155 128.793  0.00  0.00    +0.000 OA
ATOM     12  H   UNL     1      -7.510  -3.856 129.151  0.00  0.00    +0.000 HD
ENDBRANCH   6  11
BRANCH   1  13
ATOM     13  O   UNL     1      -6.307  -0.250 128.649  0.00  0.00    +0.000 OA
BRANCH  13  21
ATOM     14  C   UNL     1      -9.929   4.899 131.029  0.00  0.00    +0.000 A 
ATOM     15  C   UNL     1      -8.649   5.242 130.879  0.00  0.00    +0.000 A 
ATOM     16  C   UNL     1      -7.935   4.197 131.559  0.00  0.00    +0.000 A 
ATOM     17  O   UNL     1      -7.845   4.045 132.799  0.00  0.00    +0.000 OA
ATOM     18  C   UNL     1      -7.657   3.137 130.680  0.00  0.00    +0.000 A 
ATOM     19  C   UNL     1      -6.686   3.178 129.672  0.00  0.00    +0.000 A 
ATOM     20  C   UNL     1      -6.301   2.082 128.942  0.00  0.00    +0.000 A 
ATOM     21  C   UNL     1      -6.957   0.903 129.143  0.00  0.00    +0.000 A 
ATOM     22  C   UNL     1      -8.257   1.000 129.945  0.00  0.00    +0.000 A 
ATOM     23  C   UNL     1      -8.690   2.259 130.651  0.00  0.00    +0.000 A 
ATOM     24  O   UNL     1     -10.045   3.259 130.517  0.00  0.00    +0.000 OA
BRANCH  14  28
ATOM     25  C   UNL     1     -12.428   8.671 129.495  0.00  0.00    +0.000 A 
ATOM     26  C   UNL     1     -11.378   8.180 128.717  0.00  0.00    +0.000 A 
ATOM     27  C   UNL     1     -10.539   7.030 129.146  0.00  0.00    +0.000 A 
ATOM     28  C   UNL     1     -10.649   6.370 130.463  0.00  0.00    +0.000 A 
ATOM     29  C   UNL     1     -11.844   6.836 131.077  0.00  0.00    +0.000 A 
ATOM     30  C   UNL     1     -12.685   7.932 130.635  0.00  0.00    +0.000 A 
BRANCH  25  32
ATOM     31  C   UNL     1     -13.462  10.772 130.074  0.00  0.00    +0.000 C 
ATOM     32  O   UNL     1     -13.121   9.788 129.078  0.00  0.00    +0.000 OA
ENDBRANCH  25  32
BRANCH  26  33
ATOM     33  O   UNL     1     -11.140   8.816 127.505  0.00  0.00    +0.000 OA
ATOM     34  H   UNL     1     -11.362   8.178 126.787  0.00  0.00    +0.000 HD
ENDBRANCH  26  33
ENDBRANCH  14  28
BRANCH  19  35
ATOM     35  O   UNL     1      -6.094   4.344 129.288  0.00  0.00    +0.000 OA
ATOM     36  H   UNL     1      -5.160   4.307 129.535  0.00  0.00    +0.000 HD
ENDBRANCH  19  35
ENDBRANCH  13  21
ENDBRANCH   1  13
BRANCH   3  37
ATOM     37  C   UNL     1      -8.882  -0.280 124.315  0.00  0.00    +0.000 C 
BRANCH  37  38
ATOM     38  O   UNL     1      -7.981   0.764 123.922  0.00  0.00    +0.000 OA
BRANCH  38  39
ATOM     39  C   UNL     1      -8.644   2.022 123.846  0.00  0.00    +0.000 C 
ATOM     40  O   UNL     1      -8.285   2.732 122.655  0.00  0.00    +0.000 OA
ATOM     41  C   UNL     1      -6.887   3.034 122.577  0.00  0.00    +0.000 C 
ATOM     42  C   UNL     1      -6.643   3.695 121.225  0.00  0.00    +0.000 C 
ATOM     43  C   UNL     1      -6.467   3.945 123.740  0.00  0.00    +0.000 C 
ATOM     44  C   UNL     1      -6.829   3.270 125.077  0.00  0.00    +0.000 C 
ATOM     45  C   UNL     1      -8.306   2.851 125.098  0.00  0.00    +0.000 C 
BRANCH  43  46
ATOM     46  O   UNL     1      -5.075   4.254 123.673  0.00  0.00    +0.000 OA
ATOM     47  H   UNL     1      -4.661   4.002 124.516  0.00  0.00    +0.000 HD
ENDBRANCH  43  46
BRANCH  44  48
ATOM     48  O   UNL     1      -6.558   4.159 126.167  0.00  0.00    +0.000 OA
ATOM     49  H   UNL     1      -5.628   4.006 126.423  0.00  0.00    +0.000 HD
ENDBRANCH  44  48
BRANCH  45  50
ATOM     50  O   UNL     1      -9.131   4.030 125.183  0.00  0.00    +0.000 OA
ATOM     51  H   UNL     1      -9.225   4.394 124.286  0.00  0.00    +0.000 HD
ENDBRANCH  45  50
ENDBRANCH  38  39
ENDBRANCH  37  38
ENDBRANCH   3  37
TORSDOF 15
ENDMDL
MODEL 3
REMARK VINA RESULT:      -8.8      4.028      9.596
REMARK  Name = Diosmin
REMARK  17 active torsions:
REMARK  status: ('A' for Active; 'I' for Inactive)
REMARK    1  A    between atoms: C_1  and  O_2
REMARK    2  A    between atoms: O_2  and  C_3
REMARK    3  A    between atoms: C_4  and  O_5
REMARK    4  A    between atoms: C_7  and  C_10
REMARK    5  A    between atoms: C_15  and  O_16
REMARK    6  A    between atoms: C_18  and  O_19
REMARK    7  A    between atoms: O_19  and  C_20
REMARK    8  A    between atoms: C_22  and  C_23
REMARK    9  A    between atoms: C_23  and  O_24
REMARK   10  A    between atoms: O_24  and  C_25
REMARK   11  A    between atoms: C_27  and  C_28
REMARK   12  A    between atoms: C_29  and  O_30
REMARK   13  A    between atoms: C_31  and  O_32
REMARK   14  A    between atoms: C_33  and  O_34
REMARK   15  A    between atoms: C_35  and  O_36
REMARK   16  A    between atoms: C_37  and  O_38
REMARK   17  A    between atoms: C_39  and  O_40
REMARK                            x       y       z     vdW  Elec       q    Type
REMARK                         _______ _______ _______ _____ _____    ______ ____
ROOT
ATOM      1  C   UNL     1      -7.840   2.522 127.395  0.00  0.00    +0.000 C 
ATOM      2  O   UNL     1      -7.282   1.739 126.297  0.00  0.00    +0.000 OA
ATOM      3  C   UNL     1      -7.800   2.046 124.965  0.00  0.00    +0.000 C 
ATOM      4  C   UNL     1      -7.548   3.512 124.586  0.00  0.00    +0.000 C 
ATOM      5  C   UNL     1      -8.231   4.408 125.616  0.00  0.00    +0.000 C 
ATOM      6  C   UNL     1      -7.821   4.041 127.062  0.00  0.00    +0.000 C 
ENDROOT
BRANCH   4   7
ATOM      7  O   UNL     1      -7.989   3.816 123.253  0.00  0.00    +0.000 OA
ATOM      8  H   UNL     1      -8.399   4.698 123.229  0.00  0.00    +0.000 HD
ENDBRANCH   4   7
BRANCH   5   9
ATOM      9  O   UNL     1      -7.888   5.780 125.352  0.00  0.00    +0.000 OA
ATOM     10  H   UNL     1      -7.920   6.270 126.194  0.00  0.00    +0.000 HD
ENDBRANCH   5   9
BRANCH   6  11
ATOM     11  O   UNL     1      -8.623   4.775 127.994  0.00  0.00    +0.000 OA
ATOM     12  H   UNL     1      -8.553   5.723 127.790  0.00  0.00    +0.000 HD
ENDBRANCH   6  11
BRANCH   1  13
ATOM     13  O   UNL     1      -7.251   2.266 128.825  0.00  0.00    +0.000 OA
BRANCH  13  21
ATOM     14  C   UNL     1      -6.445  -3.784 131.661  0.00  0.00    +0.000 A 
ATOM     15  C   UNL     1      -5.753  -3.690 130.525  0.00  0.00    +0.000 A 
ATOM     16  C   UNL     1      -6.720  -3.216 129.575  0.00  0.00    +0.000 A 
ATOM     17  O   UNL     1      -7.648  -3.884 129.064  0.00  0.00    +0.000 OA
ATOM     18  C   UNL     1      -6.751  -1.811 129.563  0.00  0.00    +0.000 A 
ATOM     19  C   UNL     1      -5.759  -1.002 128.994  0.00  0.00    +0.000 A 
ATOM     20  C   UNL     1      -5.886   0.354 128.828  0.00  0.00    +0.000 A 
ATOM     21  C   UNL     1      -7.000   0.968 129.322  0.00  0.00    +0.000 A 
ATOM     22  C   UNL     1      -7.849   0.126 130.277  0.00  0.00    +0.000 A 
ATOM     23  C   UNL     1      -7.609  -1.345 130.502  0.00  0.00    +0.000 A 
ATOM     24  O   UNL     1      -7.227  -2.263 131.868  0.00  0.00    +0.000 OA
BRANCH  14  28
ATOM     25  C   UNL     1      -3.508  -5.989 134.717  0.00  0.00    +0.000 A 
ATOM     26  C   UNL     1      -2.987  -5.066 133.808  0.00  0.00    +0.000 A 
ATOM     27  C   UNL     1      -3.837  -4.366 132.809  0.00  0.00    +0.000 A 
ATOM     28  C   UNL     1      -5.272  -4.648 132.598  0.00  0.00    +0.000 A 
ATOM     29  C   UNL     1      -5.711  -5.461 133.679  0.00  0.00    +0.000 A 
ATOM     30  C   UNL     1      -4.885  -6.110 134.678  0.00  0.00    +0.000 A 
BRANCH  25  32
ATOM     31  C   UNL     1      -2.747  -6.364 136.975  0.00  0.00    +0.000 C 
ATOM     32  O   UNL     1      -2.657  -6.662 135.568  0.00  0.00    +0.000 OA
ENDBRANCH  25  32
BRANCH  26  33
ATOM     33  O   UNL     1      -1.621  -4.821 133.871  0.00  0.00    +0.000 OA
ATOM     34  H   UNL     1      -1.402  -4.602 134.806  0.00  0.00    +0.000 HD
ENDBRANCH  26  33
ENDBRANCH  14  28
BRANCH  19  35
ATOM     35  O   UNL     1      -4.547  -1.502 128.622  0.00  0.00    +0.000 OA
ATOM     36  H   UNL     1      -3.857  -0.923 128.974  0.00  0.00    +0.000 HD
ENDBRANCH  19  35
ENDBRANCH  13  21
ENDBRANCH   1  13
BRANCH   3  37
ATOM     37  C   UNL     1      -7.114   1.148 123.911  0.00  0.00    +0.000 C 
BRANCH  37  38
ATOM     38  O   UNL     1      -8.010   0.080 123.575  0.00  0.00    +0.000 OA
BRANCH  38  39
ATOM     39  C   UNL     1      -7.309  -1.040 123.045  0.00  0.00    +0.000 C 
ATOM     40  O   UNL     1      -8.193  -2.136 122.786  0.00  0.00    +0.000 OA
ATOM     41  C   UNL     1      -8.850  -2.623 123.961  0.00  0.00    +0.000 C 
ATOM     42  C   UNL     1      -9.822  -3.711 123.518  0.00  0.00    +0.000 C 
ATOM     43  C   UNL     1      -7.823  -3.153 124.972  0.00  0.00    +0.000 C 
ATOM     44  C   UNL     1      -6.810  -2.042 125.306  0.00  0.00    +0.000 C 
ATOM     45  C   UNL     1      -6.198  -1.456 124.026  0.00  0.00    +0.000 C 
BRANCH  43  46
ATOM     46  O   UNL     1      -8.467  -3.641 126.150  0.00  0.00    +0.000 OA
ATOM     47  H   UNL     1      -8.281  -4.591 126.234  0.00  0.00    +0.000 HD
ENDBRANCH  43  46
BRANCH  44  48
ATOM     48  O   UNL     1      -5.774  -2.558 126.151  0.00  0.00    +0.000 OA
ATOM     49  H   UNL     1      -5.928  -2.180 127.038  0.00  0.00    +0.000 HD
ENDBRANCH  44  48
BRANCH  45  50
ATOM     50  O   UNL     1      -5.314  -2.428 123.435  0.00  0.00    +0.000 OA
ATOM     51  H   UNL     1      -4.636  -2.655 124.096  0.00  0.00    +0.000 HD
ENDBRANCH  45  50
ENDBRANCH  38  39
ENDBRANCH  37  38
ENDBRANCH   3  37
TORSDOF 15
ENDMDL
MODEL 4
REMARK VINA RESULT:      -8.7      4.383      8.796
REMARK  Name = Diosmin
REMARK  17 active torsions:
REMARK  status: ('A' for Active; 'I' for Inactive)
REMARK    1  A    between atoms: C_1  and  O_2
REMARK    2  A    between atoms: O_2  and  C_3
REMARK    3  A    between atoms: C_4  and  O_5
REMARK    4  A    between atoms: C_7  and  C_10
REMARK    5  A    between atoms: C_15  and  O_16
REMARK    6  A    between atoms: C_18  and  O_19
REMARK    7  A    between atoms: O_19  and  C_20
REMARK    8  A    between atoms: C_22  and  C_23
REMARK    9  A    between atoms: C_23  and  O_24
REMARK   10  A    between atoms: O_24  and  C_25
REMARK   11  A    between atoms: C_27  and  C_28
REMARK   12  A    between atoms: C_29  and  O_30
REMARK   13  A    between atoms: C_31  and  O_32
REMARK   14  A    between atoms: C_33  and  O_34
REMARK   15  A    between atoms: C_35  and  O_36
REMARK   16  A    between atoms: C_37  and  O_38
REMARK   17  A    between atoms: C_39  and  O_40
REMARK                            x       y       z     vdW  Elec       q    Type
REMARK                         _______ _______ _______ _____ _____    ______ ____
ROOT
ATOM      1  C   UNL     1      -7.486  -0.804 123.500  0.00  0.00    +0.000 C 
ATOM      2  O   UNL     1      -6.770   0.414 123.865  0.00  0.00    +0.000 OA
ATOM      3  C   UNL     1      -7.257   1.649 123.252  0.00  0.00    +0.000 C 
ATOM      4  C   UNL     1      -8.725   1.918 123.616  0.00  0.00    +0.000 C 
ATOM      5  C   UNL     1      -9.571   0.743 123.132  0.00  0.00    +0.000 C 
ATOM      6  C   UNL     1      -9.023  -0.611 123.642  0.00  0.00    +0.000 C 
ENDROOT
BRANCH   4   7
ATOM      7  O   UNL     1      -9.202   3.162 123.079  0.00  0.00    +0.000 OA
ATOM      8  H   UNL     1     -10.171   3.205 123.144  0.00  0.00    +0.000 HD
ENDBRANCH   4   7
BRANCH   5   9
ATOM      9  O   UNL     1     -10.925   0.916 123.586  0.00  0.00    +0.000 OA
ATOM     10  H   UNL     1     -11.387   1.497 122.954  0.00  0.00    +0.000 HD
ENDBRANCH   5   9
BRANCH   6  11
ATOM     11  O   UNL     1      -9.730  -1.687 123.015  0.00  0.00    +0.000 OA
ATOM     12  H   UNL     1     -10.685  -1.513 123.077  0.00  0.00    +0.000 HD
ENDBRANCH   6  11
BRANCH   1  13
ATOM     13  O   UNL     1      -7.034  -2.133 124.197  0.00  0.00    +0.000 OA
BRANCH  13  21
ATOM     14  C   UNL     1      -6.181  -2.639 130.854  0.00  0.00    +0.000 A 
ATOM     15  C   UNL     1      -7.445  -2.893 130.511  0.00  0.00    +0.000 A 
ATOM     16  C   UNL     1      -7.807  -1.772 129.690  0.00  0.00    +0.000 A 
ATOM     17  O   UNL     1      -8.050  -0.609 130.086  0.00  0.00    +0.000 OA
ATOM     18  C   UNL     1      -7.490  -2.024 128.344  0.00  0.00    +0.000 A 
ATOM     19  C   UNL     1      -8.203  -2.895 127.512  0.00  0.00    +0.000 A 
ATOM     20  C   UNL     1      -7.996  -2.996 126.160  0.00  0.00    +0.000 A 
ATOM     21  C   UNL     1      -6.981  -2.274 125.602  0.00  0.00    +0.000 A 
ATOM     22  C   UNL     1      -5.986  -1.662 126.590  0.00  0.00    +0.000 A 
ATOM     23  C   UNL     1      -6.210  -1.662 128.080  0.00  0.00    +0.000 A 
ATOM     24  O   UNL     1      -5.349  -2.304 129.384  0.00  0.00    +0.000 OA
BRANCH  14  28
ATOM     25  C   UNL     1      -5.673  -5.583 134.583  0.00  0.00    +0.000 A 
ATOM     26  C   UNL     1      -4.746  -5.629 133.540  0.00  0.00    +0.000 A 
ATOM     27  C   UNL     1      -4.859  -4.764 132.336  0.00  0.00    +0.000 A 
ATOM     28  C   UNL     1      -6.000  -3.865 132.064  0.00  0.00    +0.000 A 
ATOM     29  C   UNL     1      -6.770  -3.781 133.257  0.00  0.00    +0.000 A 
ATOM     30  C   UNL     1      -6.633  -4.597 134.448  0.00  0.00    +0.000 A 
BRANCH  25  32
ATOM     31  C   UNL     1      -6.706  -6.641 136.488  0.00  0.00    +0.000 C 
ATOM     32  O   UNL     1      -5.556  -6.463 135.638  0.00  0.00    +0.000 OA
ENDBRANCH  25  32
BRANCH  26  33
ATOM     33  O   UNL     1      -3.695  -6.527 133.669  0.00  0.00    +0.000 OA
ATOM     34  H   UNL     1      -3.451  -6.563 134.624  0.00  0.00    +0.000 HD
ENDBRANCH  26  33
ENDBRANCH  14  28
BRANCH  19  35
ATOM     35  O   UNL     1      -9.123  -3.772 128.006  0.00  0.00    +0.000 OA
ATOM     36  H   UNL     1      -9.693  -4.057 127.279  0.00  0.00    +0.000 HD
ENDBRANCH  19  35
ENDBRANCH  13  21
ENDBRANCH   1  13
BRANCH   3  37
ATOM     37  C   UNL     1      -6.411   2.848 123.736  0.00  0.00    +0.000 C 
BRANCH  37  38
ATOM     38  O   UNL     1      -5.746   2.473 124.948  0.00  0.00    +0.000 OA
BRANCH  38  39
ATOM     39  C   UNL     1      -5.668   3.565 125.860  0.00  0.00    +0.000 C 
ATOM     40  O   UNL     1      -4.313   3.846 126.225  0.00  0.00    +0.000 OA
ATOM     41  C   UNL     1      -3.666   2.753 126.887  0.00  0.00    +0.000 C 
ATOM     42  C   UNL     1      -2.217   3.161 127.123  0.00  0.00    +0.000 C 
ATOM     43  C   UNL     1      -4.386   2.420 128.203  0.00  0.00    +0.000 C 
ATOM     44  C   UNL     1      -5.867   2.114 127.914  0.00  0.00    +0.000 C 
ATOM     45  C   UNL     1      -6.514   3.248 127.105  0.00  0.00    +0.000 C 
BRANCH  43  46
ATOM     46  O   UNL     1      -3.751   1.330 128.873  0.00  0.00    +0.000 OA
ATOM     47  H   UNL     1      -3.727   0.568 128.271  0.00  0.00    +0.000 HD
ENDBRANCH  43  46
BRANCH  44  48
ATOM     48  O   UNL     1      -6.580   1.923 129.143  0.00  0.00    +0.000 OA
ATOM     49  H   UNL     1      -7.443   1.533 128.904  0.00  0.00    +0.000 HD
ENDBRANCH  44  48
BRANCH  45  50
ATOM     50  O   UNL     1      -6.659   4.407 127.949  0.00  0.00    +0.000 OA
ATOM     51  H   UNL     1      -7.598   4.480 128.196  0.00  0.00    +0.000 HD
ENDBRANCH  45  50
ENDBRANCH  38  39
ENDBRANCH  37  38
ENDBRANCH   3  37
TORSDOF 15
ENDMDL
MODEL 5
REMARK VINA RESULT:      -8.6      3.405      4.932
REMARK  Name = Diosmin
REMARK  17 active torsions:
REMARK  status: ('A' for Active; 'I' for Inactive)
REMARK    1  A    between atoms: C_1  and  O_2
REMARK    2  A    between atoms: O_2  and  C_3
REMARK    3  A    between atoms: C_4  and  O_5
REMARK    4  A    between atoms: C_7  and  C_10
REMARK    5  A    between atoms: C_15  and  O_16
REMARK    6  A    between atoms: C_18  and  O_19
REMARK    7  A    between atoms: O_19  and  C_20
REMARK    8  A    between atoms: C_22  and  C_23
REMARK    9  A    between atoms: C_23  and  O_24
REMARK   10  A    between atoms: O_24  and  C_25
REMARK   11  A    between atoms: C_27  and  C_28
REMARK   12  A    between atoms: C_29  and  O_30
REMARK   13  A    between atoms: C_31  and  O_32
REMARK   14  A    between atoms: C_33  and  O_34
REMARK   15  A    between atoms: C_35  and  O_36
REMARK   16  A    between atoms: C_37  and  O_38
REMARK   17  A    between atoms: C_39  and  O_40
REMARK                            x       y       z     vdW  Elec       q    Type
REMARK                         _______ _______ _______ _____ _____    ______ ____
ROOT
ATOM      1  C   UNL     1      -6.633  -2.206 124.735  0.00  0.00    +0.000 C 
ATOM      2  O   UNL     1      -6.907  -0.787 124.542  0.00  0.00    +0.000 OA
ATOM      3  C   UNL     1      -7.711  -0.445 123.370  0.00  0.00    +0.000 C 
ATOM      4  C   UNL     1      -9.090  -1.120 123.416  0.00  0.00    +0.000 C 
ATOM      5  C   UNL     1      -8.891  -2.633 123.472  0.00  0.00    +0.000 C 
ATOM      6  C   UNL     1      -7.937  -3.047 124.617  0.00  0.00    +0.000 C 
ENDROOT
BRANCH   4   7
ATOM      7  O   UNL     1      -9.921  -0.743 122.307  0.00  0.00    +0.000 OA
ATOM      8  H   UNL     1     -10.348  -1.529 121.926  0.00  0.00    +0.000 HD
ENDBRANCH   4   7
BRANCH   5   9
ATOM      9  O   UNL     1     -10.167  -3.271 123.654  0.00  0.00    +0.000 OA
ATOM     10  H   UNL     1     -10.862  -2.591 123.588  0.00  0.00    +0.000 HD
ENDBRANCH   5   9
BRANCH   6  11
ATOM     11  O   UNL     1      -7.633  -4.442 124.515  0.00  0.00    +0.000 OA
ATOM     12  H   UNL     1      -6.868  -4.555 123.925  0.00  0.00    +0.000 HD
ENDBRANCH   6  11
BRANCH   1  13
ATOM     13  O   UNL     1      -5.835  -2.610 126.022  0.00  0.00    +0.000 OA
BRANCH  13  21
ATOM     14  C   UNL     1      -7.654   0.054 131.929  0.00  0.00    +0.000 A 
ATOM     15  C   UNL     1      -6.326   0.016 131.808  0.00  0.00    +0.000 A 
ATOM     16  C   UNL     1      -6.058  -1.343 131.430  0.00  0.00    +0.000 A 
ATOM     17  O   UNL     1      -6.110  -2.347 132.177  0.00  0.00    +0.000 OA
ATOM     18  C   UNL     1      -6.095  -1.483 130.032  0.00  0.00    +0.000 A 
ATOM     19  C   UNL     1      -5.100  -1.018 129.163  0.00  0.00    +0.000 A 
ATOM     20  C   UNL     1      -5.060  -1.316 127.824  0.00  0.00    +0.000 A 
ATOM     21  C   UNL     1      -6.089  -2.033 127.286  0.00  0.00    +0.000 A 
ATOM     22  C   UNL     1      -7.331  -2.167 128.169  0.00  0.00    +0.000 A 
ATOM     23  C   UNL     1      -7.359  -1.733 129.612  0.00  0.00    +0.000 A 
ATOM     24  O   UNL     1      -8.283  -0.607 130.468  0.00  0.00    +0.000 OA
BRANCH  14  28
ATOM     25  C   UNL     1      -7.910   4.069 134.506  0.00  0.00    +0.000 A 
ATOM     26  C   UNL     1      -9.005   3.677 133.734  0.00  0.00    +0.000 A 
ATOM     27  C   UNL     1      -8.984   2.457 132.884  0.00  0.00    +0.000 A 
ATOM     28  C   UNL     1      -7.792   1.608 132.681  0.00  0.00    +0.000 A 
ATOM     29  C   UNL     1      -6.818   2.004 133.638  0.00  0.00    +0.000 A 
ATOM     30  C   UNL     1      -6.857   3.172 134.496  0.00  0.00    +0.000 A 
BRANCH  25  32
ATOM     31  C   UNL     1      -6.785   5.643 135.946  0.00  0.00    +0.000 C 
ATOM     32  O   UNL     1      -7.962   5.251 135.214  0.00  0.00    +0.000 OA
ENDBRANCH  25  32
BRANCH  26  33
ATOM     33  O   UNL     1     -10.135   4.483 133.787  0.00  0.00    +0.000 OA
ATOM     34  H   UNL     1     -10.332   4.654 134.737  0.00  0.00    +0.000 HD
ENDBRANCH  26  33
ENDBRANCH  14  28
BRANCH  19  35
ATOM     35  O   UNL     1      -4.123  -0.163 129.577  0.00  0.00    +0.000 OA
ATOM     36  H   UNL     1      -3.325  -0.678 129.761  0.00  0.00    +0.000 HD
ENDBRANCH  19  35
ENDBRANCH  13  21
ENDBRANCH   1  13
BRANCH   3  37
ATOM     37  C   UNL     1      -7.924   1.084 123.301  0.00  0.00    +0.000 C 
BRANCH  37  38
ATOM     38  O   UNL     1      -7.764   1.622 124.620  0.00  0.00    +0.000 OA
BRANCH  38  39
ATOM     39  C   UNL     1      -6.705   2.573 124.670  0.00  0.00    +0.000 C 
ATOM     40  O   UNL     1      -6.008   2.516 125.920  0.00  0.00    +0.000 OA
ATOM     41  C   UNL     1      -6.840   2.816 127.046  0.00  0.00    +0.000 C 
ATOM     42  C   UNL     1      -5.994   2.621 128.299  0.00  0.00    +0.000 C 
ATOM     43  C   UNL     1      -7.386   4.248 126.945  0.00  0.00    +0.000 C 
ATOM     44  C   UNL     1      -8.146   4.416 125.616  0.00  0.00    +0.000 C 
ATOM     45  C   UNL     1      -7.275   3.982 124.428  0.00  0.00    +0.000 C 
BRANCH  43  46
ATOM     46  O   UNL     1      -8.219   4.560 128.063  0.00  0.00    +0.000 OA
ATOM     47  H   UNL     1      -7.975   3.978 128.802  0.00  0.00    +0.000 HD
ENDBRANCH  43  46
BRANCH  44  48
ATOM     48  O   UNL     1      -8.554   5.779 125.450  0.00  0.00    +0.000 OA
ATOM     49  H   UNL     1      -8.872   6.081 126.323  0.00  0.00    +0.000 HD
ENDBRANCH  44  48
BRANCH  45  50
ATOM     50  O   UNL     1      -6.223   4.947 124.236  0.00  0.00    +0.000 OA
ATOM     51  H   UNL     1      -6.424   5.722 124.790  0.00  0.00    +0.000 HD
ENDBRANCH  45  50
ENDBRANCH  38  39
ENDBRANCH  37  38
ENDBRANCH   3  37
TORSDOF 15
ENDMDL
MODEL 6
REMARK VINA RESULT:      -8.6      1.610      2.115
REMARK  Name = Diosmin
REMARK  17 active torsions:
REMARK  status: ('A' for Active; 'I' for Inactive)
REMARK    1  A    between atoms: C_1  and  O_2
REMARK    2  A    between atoms: O_2  and  C_3
REMARK    3  A    between atoms: C_4  and  O_5
REMARK    4  A    between atoms: C_7  and  C_10
REMARK    5  A    between atoms: C_15  and  O_16
REMARK    6  A    between atoms: C_18  and  O_19
REMARK    7  A    between atoms: O_19  and  C_20
REMARK    8  A    between atoms: C_22  and  C_23
REMARK    9  A    between atoms: C_23  and  O_24
REMARK   10  A    between atoms: O_24  and  C_25
REMARK   11  A    between atoms: C_27  and  C_28
REMARK   12  A    between atoms: C_29  and  O_30
REMARK   13  A    between atoms: C_31  and  O_32
REMARK   14  A    between atoms: C_33  and  O_34
REMARK   15  A    between atoms: C_35  and  O_36
REMARK   16  A    between atoms: C_37  and  O_38
REMARK   17  A    between atoms: C_39  and  O_40
REMARK                            x       y       z     vdW  Elec       q    Type
REMARK                         _______ _______ _______ _____ _____    ______ ____
ROOT
ATOM      1  C   UNL     1      -6.780  -2.190 126.803  0.00  0.00    +0.000 C 
ATOM      2  O   UNL     1      -6.563  -1.358 125.624  0.00  0.00    +0.000 OA
ATOM      3  C   UNL     1      -7.116  -1.870 124.371  0.00  0.00    +0.000 C 
ATOM      4  C   UNL     1      -8.638  -2.056 124.460  0.00  0.00    +0.000 C 
ATOM      5  C   UNL     1      -8.944  -3.037 125.589  0.00  0.00    +0.000 C 
ATOM      6  C   UNL     1      -8.272  -2.617 126.917  0.00  0.00    +0.000 C 
ENDROOT
BRANCH   4   7
ATOM      7  O   UNL     1      -9.209  -2.494 123.217  0.00  0.00    +0.000 OA
ATOM      8  H   UNL     1      -8.537  -2.951 122.682  0.00  0.00    +0.000 HD
ENDBRANCH   4   7
BRANCH   5   9
ATOM      9  O   UNL     1     -10.368  -3.115 125.774  0.00  0.00    +0.000 OA
ATOM     10  H   UNL     1     -10.795  -3.031 124.902  0.00  0.00    +0.000 HD
ENDBRANCH   5   9
BRANCH   6  11
ATOM     11  O   UNL     1      -8.429  -3.655 127.890  0.00  0.00    +0.000 OA
ATOM     12  H   UNL     1      -8.931  -3.304 128.646  0.00  0.00    +0.000 HD
ENDBRANCH   6  11
BRANCH   1  13
ATOM     13  O   UNL     1      -6.263  -1.632 128.174  0.00  0.00    +0.000 OA
BRANCH  13  21
ATOM     14  C   UNL     1      -9.257   3.541 131.268  0.00  0.00    +0.000 A 
ATOM     15  C   UNL     1      -8.156   3.936 130.627  0.00  0.00    +0.000 A 
ATOM     16  C   UNL     1      -7.149   3.020 131.083  0.00  0.00    +0.000 A 
ATOM     17  O   UNL     1      -6.603   3.018 132.210  0.00  0.00    +0.000 OA
ATOM     18  C   UNL     1      -7.106   1.883 130.259  0.00  0.00    +0.000 A 
ATOM     19  C   UNL     1      -6.574   1.863 128.963  0.00  0.00    +0.000 A 
ATOM     20  C   UNL     1      -6.376   0.714 128.241  0.00  0.00    +0.000 A 
ATOM     21  C   UNL     1      -6.798  -0.470 128.772  0.00  0.00    +0.000 A 
ATOM     22  C   UNL     1      -7.724  -0.355 129.985  0.00  0.00    +0.000 A 
ATOM     23  C   UNL     1      -7.991   0.950 130.689  0.00  0.00    +0.000 A 
ATOM     24  O   UNL     1      -9.392   1.848 130.979  0.00  0.00    +0.000 OA
BRANCH  14  28
ATOM     25  C   UNL     1     -12.360   7.127 130.686  0.00  0.00    +0.000 A 
ATOM     26  C   UNL     1     -12.177   6.203 129.656  0.00  0.00    +0.000 A 
ATOM     27  C   UNL     1     -11.206   5.080 129.756  0.00  0.00    +0.000 A 
ATOM     28  C   UNL     1     -10.270   4.892 130.883  0.00  0.00    +0.000 A 
ATOM     29  C   UNL     1     -10.669   5.777 131.923  0.00  0.00    +0.000 A 
ATOM     30  C   UNL     1     -11.646   6.845 131.836  0.00  0.00    +0.000 A 
BRANCH  25  32
ATOM     31  C   UNL     1     -12.725   9.329 129.771  0.00  0.00    +0.000 C 
ATOM     32  O   UNL     1     -13.219   8.190 130.503  0.00  0.00    +0.000 OA
ENDBRANCH  25  32
BRANCH  26  33
ATOM     33  O   UNL     1     -12.947   6.371 128.512  0.00  0.00    +0.000 OA
ATOM     34  H   UNL     1     -13.613   5.645 128.494  0.00  0.00    +0.000 HD
ENDBRANCH  26  33
ENDBRANCH  14  28
BRANCH  19  35
ATOM     35  O   UNL     1      -6.275   3.009 128.289  0.00  0.00    +0.000 OA
ATOM     36  H   UNL     1      -7.095   3.372 127.926  0.00  0.00    +0.000 HD
ENDBRANCH  19  35
ENDBRANCH  13  21
ENDBRANCH   1  13
BRANCH   3  37
ATOM     37  C   UNL     1      -6.815  -0.885 123.219  0.00  0.00    +0.000 C 
BRANCH  37  38
ATOM     38  O   UNL     1      -6.485   0.388 123.788  0.00  0.00    +0.000 OA
BRANCH  38  39
ATOM     39  C   UNL     1      -7.020   1.459 123.014  0.00  0.00    +0.000 C 
ATOM     40  O   UNL     1      -6.440   2.713 123.385  0.00  0.00    +0.000 OA
ATOM     41  C   UNL     1      -6.689   3.071 124.750  0.00  0.00    +0.000 C 
ATOM     42  C   UNL     1      -5.935   4.367 125.022  0.00  0.00    +0.000 C 
ATOM     43  C   UNL     1      -8.196   3.225 125.000  0.00  0.00    +0.000 C 
ATOM     44  C   UNL     1      -8.917   1.920 124.613  0.00  0.00    +0.000 C 
ATOM     45  C   UNL     1      -8.549   1.493 123.185  0.00  0.00    +0.000 C 
BRANCH  43  46
ATOM     46  O   UNL     1      -8.457   3.581 126.358  0.00  0.00    +0.000 OA
ATOM     47  H   UNL     1      -9.418   3.569 126.501  0.00  0.00    +0.000 HD
ENDBRANCH  43  46
BRANCH  44  48
ATOM     48  O   UNL     1     -10.335   2.089 124.722  0.00  0.00    +0.000 OA
ATOM     49  H   UNL     1     -10.548   2.037 125.674  0.00  0.00    +0.000 HD
ENDBRANCH  44  48
BRANCH  45  50
ATOM     50  O   UNL     1      -9.160   2.401 122.247  0.00  0.00    +0.000 OA
ATOM     51  H   UNL     1     -10.113   2.437 122.444  0.00  0.00    +0.000 HD
ENDBRANCH  45  50
ENDBRANCH  38  39
ENDBRANCH  37  38
ENDBRANCH   3  37
TORSDOF 15
ENDMDL
MODEL 7
REMARK VINA RESULT:      -8.6      5.273      7.529
REMARK  Name = Diosmin
REMARK  17 active torsions:
REMARK  status: ('A' for Active; 'I' for Inactive)
REMARK    1  A    between atoms: C_1  and  O_2
REMARK    2  A    between atoms: O_2  and  C_3
REMARK    3  A    between atoms: C_4  and  O_5
REMARK    4  A    between atoms: C_7  and  C_10
REMARK    5  A    between atoms: C_15  and  O_16
REMARK    6  A    between atoms: C_18  and  O_19
REMARK    7  A    between atoms: O_19  and  C_20
REMARK    8  A    between atoms: C_22  and  C_23
REMARK    9  A    between atoms: C_23  and  O_24
REMARK   10  A    between atoms: O_24  and  C_25
REMARK   11  A    between atoms: C_27  and  C_28
REMARK   12  A    between atoms: C_29  and  O_30
REMARK   13  A    between atoms: C_31  and  O_32
REMARK   14  A    between atoms: C_33  and  O_34
REMARK   15  A    between atoms: C_35  and  O_36
REMARK   16  A    between atoms: C_37  and  O_38
REMARK   17  A    between atoms: C_39  and  O_40
REMARK                            x       y       z     vdW  Elec       q    Type
REMARK                         _______ _______ _______ _____ _____    ______ ____
ROOT
ATOM      1  C   UNL     1      -6.255   3.979 126.732  0.00  0.00    +0.000 C 
ATOM      2  O   UNL     1      -6.516   2.591 127.099  0.00  0.00    +0.000 OA
ATOM      3  C   UNL     1      -7.890   2.129 126.909  0.00  0.00    +0.000 C 
ATOM      4  C   UNL     1      -8.328   2.248 125.442  0.00  0.00    +0.000 C 
ATOM      5  C   UNL     1      -8.221   3.711 125.019  0.00  0.00    +0.000 C 
ATOM      6  C   UNL     1      -6.822   4.298 125.319  0.00  0.00    +0.000 C 
ENDROOT
BRANCH   4   7
ATOM      7  O   UNL     1      -9.652   1.735 125.223  0.00  0.00    +0.000 OA
ATOM      8  H   UNL     1      -9.617   0.778 125.057  0.00  0.00    +0.000 HD
ENDBRANCH   4   7
BRANCH   5   9
ATOM      9  O   UNL     1      -8.496   3.817 123.611  0.00  0.00    +0.000 OA
ATOM     10  H   UNL     1      -8.196   4.693 123.306  0.00  0.00    +0.000 HD
ENDBRANCH   5   9
BRANCH   6  11
ATOM     11  O   UNL     1      -6.828   5.710 125.082  0.00  0.00    +0.000 OA
ATOM     12  H   UNL     1      -7.374   6.140 125.762  0.00  0.00    +0.000 HD
ENDBRANCH   6  11
BRANCH   1  13
ATOM     13  O   UNL     1      -4.776   4.482 126.856  0.00  0.00    +0.000 OA
BRANCH  13  21
ATOM     14  C   UNL     1      -2.984   7.394 132.653  0.00  0.00    +0.000 A 
ATOM     15  C   UNL     1      -1.918   7.146 131.890  0.00  0.00    +0.000 A 
ATOM     16  C   UNL     1      -2.066   5.762 131.537  0.00  0.00    +0.000 A 
ATOM     17  O   UNL     1      -1.872   4.779 132.289  0.00  0.00    +0.000 OA
ATOM     18  C   UNL     1      -2.822   5.632 130.360  0.00  0.00    +0.000 A 
ATOM     19  C   UNL     1      -2.348   5.934 129.077  0.00  0.00    +0.000 A 
ATOM     20  C   UNL     1      -3.029   5.635 127.924  0.00  0.00    +0.000 A 
ATOM     21  C   UNL     1      -4.276   5.091 128.028  0.00  0.00    +0.000 A 
ATOM     22  C   UNL     1      -4.909   5.154 129.420  0.00  0.00    +0.000 A 
ATOM     23  C   UNL     1      -4.146   5.585 130.646  0.00  0.00    +0.000 A 
ATOM     24  O   UNL     1      -4.347   6.842 131.757  0.00  0.00    +0.000 OA
BRANCH  14  28
ATOM     25  C   UNL     1      -2.154  11.662 134.633  0.00  0.00    +0.000 A 
ATOM     26  C   UNL     1      -2.252  11.556 133.245  0.00  0.00    +0.000 A 
ATOM     27  C   UNL     1      -2.478  10.256 132.559  0.00  0.00    +0.000 A 
ATOM     28  C   UNL     1      -2.509   8.949 133.249  0.00  0.00    +0.000 A 
ATOM     29  C   UNL     1      -2.572   9.205 134.646  0.00  0.00    +0.000 A 
ATOM     30  C   UNL     1      -2.392  10.481 135.312  0.00  0.00    +0.000 A 
BRANCH  25  32
ATOM     31  C   UNL     1      -0.537  13.083 135.721  0.00  0.00    +0.000 C 
ATOM     32  O   UNL     1      -1.867  12.884 135.206  0.00  0.00    +0.000 OA
ENDBRANCH  25  32
BRANCH  26  33
ATOM     33  O   UNL     1      -2.127  12.729 132.512  0.00  0.00    +0.000 OA
ATOM     34  H   UNL     1      -1.517  13.324 133.006  0.00  0.00    +0.000 HD
ENDBRANCH  26  33
ENDBRANCH  14  28
BRANCH  19  35
ATOM     35  O   UNL     1      -1.188   6.623 128.881  0.00  0.00    +0.000 OA
ATOM     36  H   UNL     1      -1.407   7.554 128.737  0.00  0.00    +0.000 HD
ENDBRANCH  19  35
ENDBRANCH  13  21
ENDBRANCH   1  13
BRANCH   3  37
ATOM     37  C   UNL     1      -8.013   0.647 127.332  0.00  0.00    +0.000 C 
BRANCH  37  38
ATOM     38  O   UNL     1      -7.379  -0.162 126.332  0.00  0.00    +0.000 OA
BRANCH  38  39
ATOM     39  C   UNL     1      -7.887  -1.493 126.341  0.00  0.00    +0.000 C 
ATOM     40  O   UNL     1      -6.896  -2.434 125.913  0.00  0.00    +0.000 OA
ATOM     41  C   UNL     1      -6.443  -2.209 124.573  0.00  0.00    +0.000 C 
ATOM     42  C   UNL     1      -5.332  -3.216 124.296  0.00  0.00    +0.000 C 
ATOM     43  C   UNL     1      -7.606  -2.357 123.580  0.00  0.00    +0.000 C 
ATOM     44  C   UNL     1      -8.739  -1.388 123.968  0.00  0.00    +0.000 C 
ATOM     45  C   UNL     1      -9.133  -1.567 125.441  0.00  0.00    +0.000 C 
BRANCH  43  46
ATOM     46  O   UNL     1      -7.167  -2.135 122.239  0.00  0.00    +0.000 OA
ATOM     47  H   UNL     1      -7.355  -2.932 121.717  0.00  0.00    +0.000 HD
ENDBRANCH  43  46
BRANCH  44  48
ATOM     48  O   UNL     1      -9.879  -1.602 123.128  0.00  0.00    +0.000 OA
ATOM     49  H   UNL     1     -10.431  -2.273 123.575  0.00  0.00    +0.000 HD
ENDBRANCH  44  48
BRANCH  45  50
ATOM     50  O   UNL     1      -9.818  -2.825 125.598  0.00  0.00    +0.000 OA
ATOM     51  H   UNL     1     -10.681  -2.646 126.012  0.00  0.00    +0.000 HD
ENDBRANCH  45  50
ENDBRANCH  38  39
ENDBRANCH  37  38
ENDBRANCH   3  37
TORSDOF 15
ENDMDL
MODEL 8
REMARK VINA RESULT:      -8.3      4.291      5.729
REMARK  Name = Diosmin
REMARK  17 active torsions:
REMARK  status: ('A' for Active; 'I' for Inactive)
REMARK    1  A    between atoms: C_1  and  O_2
REMARK    2  A    between atoms: O_2  and  C_3
REMARK    3  A    between atoms: C_4  and  O_5
REMARK    4  A    between atoms: C_7  and  C_10
REMARK    5  A    between atoms: C_15  and  O_16
REMARK    6  A    between atoms: C_18  and  O_19
REMARK    7  A    between atoms: O_19  and  C_20
REMARK    8  A    between atoms: C_22  and  C_23
REMARK    9  A    between atoms: C_23  and  O_24
REMARK   10  A    between atoms: O_24  and  C_25
REMARK   11  A    between atoms: C_27  and  C_28
REMARK   12  A    between atoms: C_29  and  O_30
REMARK   13  A    between atoms: C_31  and  O_32
REMARK   14  A    between atoms: C_33  and  O_34
REMARK   15  A    between atoms: C_35  and  O_36
REMARK   16  A    between atoms: C_37  and  O_38
REMARK   17  A    between atoms: C_39  and  O_40
REMARK                            x       y       z     vdW  Elec       q    Type
REMARK                         _______ _______ _______ _____ _____    ______ ____
ROOT
ATOM      1  C   UNL     1      -7.584  -1.964 125.669  0.00  0.00    +0.000 C 
ATOM      2  O   UNL     1      -7.959  -0.584 125.381  0.00  0.00    +0.000 OA
ATOM      3  C   UNL     1      -8.273  -0.286 123.985  0.00  0.00    +0.000 C 
ATOM      4  C   UNL     1      -9.445  -1.138 123.475  0.00  0.00    +0.000 C 
ATOM      5  C   UNL     1      -9.070  -2.612 123.609  0.00  0.00    +0.000 C 
ATOM      6  C   UNL     1      -8.600  -2.961 125.040  0.00  0.00    +0.000 C 
ENDROOT
BRANCH   4   7
ATOM      7  O   UNL     1      -9.813  -0.811 122.126  0.00  0.00    +0.000 OA
ATOM      8  H   UNL     1     -10.569  -1.355 121.844  0.00  0.00    +0.000 HD
ENDBRANCH   4   7
BRANCH   5   9
ATOM      9  O   UNL     1     -10.208  -3.422 123.265  0.00  0.00    +0.000 OA
ATOM     10  H   UNL     1     -10.769  -2.916 122.649  0.00  0.00    +0.000 HD
ENDBRANCH   5   9
BRANCH   6  11
ATOM     11  O   UNL     1      -8.084  -4.295 125.069  0.00  0.00    +0.000 OA
ATOM     12  H   UNL     1      -8.744  -4.896 124.682  0.00  0.00    +0.000 HD
ENDBRANCH   6  11
BRANCH   1  13
ATOM     13  O   UNL     1      -7.313  -2.330 127.169  0.00  0.00    +0.000 OA
BRANCH  13  21
ATOM     14  C   UNL     1      -4.833   2.328 131.346  0.00  0.00    +0.000 A 
ATOM     15  C   UNL     1      -4.079   1.228 131.351  0.00  0.00    +0.000 A 
ATOM     16  C   UNL     1      -5.023   0.169 131.574  0.00  0.00    +0.000 A 
ATOM     17  O   UNL     1      -5.591  -0.104 132.656  0.00  0.00    +0.000 OA
ATOM     18  C   UNL     1      -5.534  -0.301 130.352  0.00  0.00    +0.000 A 
ATOM     19  C   UNL     1      -4.819  -1.095 129.447  0.00  0.00    +0.000 A 
ATOM     20  C   UNL     1      -5.384  -1.694 128.350  0.00  0.00    +0.000 A 
ATOM     21  C   UNL     1      -6.694  -1.436 128.069  0.00  0.00    +0.000 A 
ATOM     22  C   UNL     1      -7.313  -0.265 128.835  0.00  0.00    +0.000 A 
ATOM     23  C   UNL     1      -6.612   0.429 129.974  0.00  0.00    +0.000 A 
ATOM     24  O   UNL     1      -6.111   2.022 130.232  0.00  0.00    +0.000 OA
BRANCH  14  28
ATOM     25  C   UNL     1      -1.625   5.822 131.917  0.00  0.00    +0.000 A 
ATOM     26  C   UNL     1      -2.212   5.627 130.666  0.00  0.00    +0.000 A 
ATOM     27  C   UNL     1      -3.194   4.540 130.408  0.00  0.00    +0.000 A 
ATOM     28  C   UNL     1      -3.562   3.503 131.395  0.00  0.00    +0.000 A 
ATOM     29  C   UNL     1      -3.041   3.909 132.655  0.00  0.00    +0.000 A 
ATOM     30  C   UNL     1      -2.115   4.995 132.911  0.00  0.00    +0.000 A 
BRANCH  25  32
ATOM     31  C   UNL     1      -0.914   7.829 133.050  0.00  0.00    +0.000 C 
ATOM     32  O   UNL     1      -0.665   6.799 132.074  0.00  0.00    +0.000 OA
ENDBRANCH  25  32
BRANCH  26  33
ATOM     33  O   UNL     1      -1.840   6.498 129.650  0.00  0.00    +0.000 OA
ATOM     34  H   UNL     1      -1.871   5.995 128.803  0.00  0.00    +0.000 HD
ENDBRANCH  26  33
ENDBRANCH  14  28
BRANCH  19  35
ATOM     35  O   UNL     1      -3.472  -1.276 129.555  0.00  0.00    +0.000 OA
ATOM     36  H   UNL     1      -3.308  -1.957 130.222  0.00  0.00    +0.000 HD
ENDBRANCH  19  35
ENDBRANCH  13  21
ENDBRANCH   1  13
BRANCH   3  37
ATOM     37  C   UNL     1      -8.658   1.204 123.835  0.00  0.00    +0.000 C 
BRANCH  37  38
ATOM     38  O   UNL     1      -7.888   1.966 124.774  0.00  0.00    +0.000 OA
BRANCH  38  39
ATOM     39  C   UNL     1      -6.614   2.317 124.240  0.00  0.00    +0.000 C 
ATOM     40  O   UNL     1      -5.555   1.952 125.131  0.00  0.00    +0.000 OA
ATOM     41  C   UNL     1      -5.629   2.614 126.399  0.00  0.00    +0.000 C 
ATOM     42  C   UNL     1      -4.505   2.057 127.266  0.00  0.00    +0.000 C 
ATOM     43  C   UNL     1      -5.512   4.135 126.221  0.00  0.00    +0.000 C 
ATOM     44  C   UNL     1      -6.610   4.625 125.259  0.00  0.00    +0.000 C 
ATOM     45  C   UNL     1      -6.586   3.827 123.947  0.00  0.00    +0.000 C 
BRANCH  43  46
ATOM     46  O   UNL     1      -5.585   4.806 127.479  0.00  0.00    +0.000 OA
ATOM     47  H   UNL     1      -5.468   4.151 128.187  0.00  0.00    +0.000 HD
ENDBRANCH  43  46
BRANCH  44  48
ATOM     48  O   UNL     1      -6.437   6.021 124.984  0.00  0.00    +0.000 OA
ATOM     49  H   UNL     1      -7.334   6.404 124.926  0.00  0.00    +0.000 HD
ENDBRANCH  44  48
BRANCH  45  50
ATOM     50  O   UNL     1      -5.413   4.192 123.193  0.00  0.00    +0.000 OA
ATOM     51  H   UNL     1      -5.127   5.072 123.494  0.00  0.00    +0.000 HD
ENDBRANCH  45  50
ENDBRANCH  38  39
ENDBRANCH  37  38
ENDBRANCH   3  37
TORSDOF 15
ENDMDL
MODEL 9
REMARK VINA RESULT:      -8.3      5.559      7.925
REMARK  Name = Diosmin
REMARK  17 active torsions:
REMARK  status: ('A' for Active; 'I' for Inactive)
REMARK    1  A    between atoms: C_1  and  O_2
REMARK    2  A    between atoms: O_2  and  C_3
REMARK    3  A    between atoms: C_4  and  O_5
REMARK    4  A    between atoms: C_7  and  C_10
REMARK    5  A    between atoms: C_15  and  O_16
REMARK    6  A    between atoms: C_18  and  O_19
REMARK    7  A    between atoms: O_19  and  C_20
REMARK    8  A    between atoms: C_22  and  C_23
REMARK    9  A    between atoms: C_23  and  O_24
REMARK   10  A    between atoms: O_24  and  C_25
REMARK   11  A    between atoms: C_27  and  C_28
REMARK   12  A    between atoms: C_29  and  O_30
REMARK   13  A    between atoms: C_31  and  O_32
REMARK   14  A    between atoms: C_33  and  O_34
REMARK   15  A    between atoms: C_35  and  O_36
REMARK   16  A    between atoms: C_37  and  O_38
REMARK   17  A    between atoms: C_39  and  O_40
REMARK                            x       y       z     vdW  Elec       q    Type
REMARK                         _______ _______ _______ _____ _____    ______ ____
ROOT
ATOM      1  C   UNL     1      -6.496   3.089 128.155  0.00  0.00    +0.000 C 
ATOM      2  O   UNL     1      -7.621   3.362 129.042  0.00  0.00    +0.000 OA
ATOM      3  C   UNL     1      -8.434   2.205 129.416  0.00  0.00    +0.000 C 
ATOM      4  C   UNL     1      -7.599   1.138 130.138  0.00  0.00    +0.000 C 
ATOM      5  C   UNL     1      -6.474   0.689 129.210  0.00  0.00    +0.000 C 
ATOM      6  C   UNL     1      -5.655   1.887 128.673  0.00  0.00    +0.000 C 
ENDROOT
BRANCH   4   7
ATOM      7  O   UNL     1      -8.394   0.024 130.574  0.00  0.00    +0.000 OA
ATOM      8  H   UNL     1      -8.343  -0.698 129.925  0.00  0.00    +0.000 HD
ENDBRANCH   4   7
BRANCH   5   9
ATOM      9  O   UNL     1      -5.603  -0.208 129.921  0.00  0.00    +0.000 OA
ATOM     10  H   UNL     1      -5.919  -1.119 129.778  0.00  0.00    +0.000 HD
ENDBRANCH   5   9
BRANCH   6  11
ATOM     11  O   UNL     1      -4.740   1.438 127.668  0.00  0.00    +0.000 OA
ATOM     12  H   UNL     1      -3.876   1.272 128.082  0.00  0.00    +0.000 HD
ENDBRANCH   6  11
BRANCH   1  13
ATOM     13  O   UNL     1      -5.563   4.296 127.795  0.00  0.00    +0.000 OA
BRANCH  13  21
ATOM     14  C   UNL     1      -2.427   7.591 132.755  0.00  0.00    +0.000 A 
ATOM     15  C   UNL     1      -1.573   7.250 131.789  0.00  0.00    +0.000 A 
ATOM     16  C   UNL     1      -1.817   5.849 131.596  0.00  0.00    +0.000 A 
ATOM     17  O   UNL     1      -1.465   4.921 132.361  0.00  0.00    +0.000 OA
ATOM     18  C   UNL     1      -2.829   5.651 130.641  0.00  0.00    +0.000 A 
ATOM     19  C   UNL     1      -2.665   5.838 129.263  0.00  0.00    +0.000 A 
ATOM     20  C   UNL     1      -3.600   5.472 128.329  0.00  0.00    +0.000 A 
ATOM     21  C   UNL     1      -4.795   4.978 128.764  0.00  0.00    +0.000 A 
ATOM     22  C   UNL     1      -5.084   5.169 130.255  0.00  0.00    +0.000 A 
ATOM     23  C   UNL     1      -4.050   5.670 131.230  0.00  0.00    +0.000 A 
ATOM     24  O   UNL     1      -3.969   7.015 132.249  0.00  0.00    +0.000 OA
BRANCH  14  28
ATOM     25  C   UNL     1      -0.934  11.884 134.226  0.00  0.00    +0.000 A 
ATOM     26  C   UNL     1      -1.757  11.791 133.103  0.00  0.00    +0.000 A 
ATOM     27  C   UNL     1      -2.234  10.487 132.571  0.00  0.00    +0.000 A 
ATOM     28  C   UNL     1      -1.806   9.172 133.093  0.00  0.00    +0.000 A 
ATOM     29  C   UNL     1      -1.122   9.400 134.318  0.00  0.00    +0.000 A 
ATOM     30  C   UNL     1      -0.693  10.677 134.857  0.00  0.00    +0.000 A 
BRANCH  25  32
ATOM     31  C   UNL     1       0.924  13.416 134.369  0.00  0.00    +0.000 C 
ATOM     32  O   UNL     1      -0.462  13.117 134.626  0.00  0.00    +0.000 OA
ENDBRANCH  25  32
BRANCH  26  33
ATOM     33  O   UNL     1      -2.123  12.981 132.488  0.00  0.00    +0.000 OA
ATOM     34  H   UNL     1      -1.317  13.546 132.434  0.00  0.00    +0.000 HD
ENDBRANCH  26  33
ENDBRANCH  14  28
BRANCH  19  35
ATOM     35  O   UNL     1      -1.574   6.472 128.746  0.00  0.00    +0.000 OA
ATOM     36  H   UNL     1      -1.864   7.021 128.004  0.00  0.00    +0.000 HD
ENDBRANCH  19  35
ENDBRANCH  13  21
ENDBRANCH   1  13
BRANCH   3  37
ATOM     37  C   UNL     1      -9.577   2.645 130.359  0.00  0.00    +0.000 C 
BRANCH  37  38
ATOM     38  O   UNL     1     -10.134   3.866 129.856  0.00  0.00    +0.000 OA
BRANCH  38  39
ATOM     39  C   UNL     1     -10.491   4.751 130.914  0.00  0.00    +0.000 C 
ATOM     40  O   UNL     1     -11.606   5.573 130.555  0.00  0.00    +0.000 OA
ATOM     41  C   UNL     1     -11.348   6.417 129.427  0.00  0.00    +0.000 C 
ATOM     42  C   UNL     1     -12.644   7.152 129.105  0.00  0.00    +0.000 C 
ATOM     43  C   UNL     1     -10.201   7.391 129.735  0.00  0.00    +0.000 C 
ATOM     44  C   UNL     1      -8.949   6.596 130.150  0.00  0.00    +0.000 C 
ATOM     45  C   UNL     1      -9.274   5.616 131.286  0.00  0.00    +0.000 C 
BRANCH  43  46
ATOM     46  O   UNL     1      -9.933   8.238 128.617  0.00  0.00    +0.000 OA
ATOM     47  H   UNL     1      -9.883   7.689 127.817  0.00  0.00    +0.000 HD
ENDBRANCH  43  46
BRANCH  44  48
ATOM     48  O   UNL     1      -7.909   7.492 130.561  0.00  0.00    +0.000 OA
ATOM     49  H   UNL     1      -7.271   6.959 131.072  0.00  0.00    +0.000 HD
ENDBRANCH  44  48
BRANCH  45  50
ATOM     50  O   UNL     1      -9.509   6.358 132.498  0.00  0.00    +0.000 OA
ATOM     51  H   UNL     1      -9.010   7.192 132.440  0.00  0.00    +0.000 HD
ENDBRANCH  45  50
ENDBRANCH  38  39
ENDBRANCH  37  38
ENDBRANCH   3  37
TORSDOF 15
ENDMDL
