MODEL 1
REMARK VINA RESULT:      -7.0      0.000      0.000
REMARK  Name = Dioxybenzone
REMARK  6 active torsions:
REMARK  status: ('A' for Active; 'I' for Inactive)
REMARK    1  A    between atoms: C_1  and  O_2
REMARK    2  A    between atoms: O_2  and  C_3
REMARK    3  A    between atoms: C_5  and  O_6
REMARK    4  A    between atoms: C_7  and  C_10
REMARK    5  A    between atoms: C_10  and  C_12
REMARK    6  A    between atoms: C_17  and  O_18
REMARK                            x       y       z     vdW  Elec       q    Type
REMARK                         _______ _______ _______ _____ _____    ______ ____
ROOT
ATOM      1  C   UNL     1     -12.492   8.966 129.245  0.00  0.00    +0.000 A 
ATOM      2  C   UNL     1     -12.814   8.201 130.372  0.00  0.00    +0.000 A 
ATOM      3  C   UNL     1     -12.022   7.107 130.745  0.00  0.00    +0.000 A 
ATOM      4  C   UNL     1     -10.895   6.755 129.990  0.00  0.00    +0.000 A 
ATOM      5  C   UNL     1     -10.598   7.524 128.852  0.00  0.00    +0.000 A 
ATOM      6  C   UNL     1     -11.372   8.630 128.495  0.00  0.00    +0.000 A 
ENDROOT
BRANCH   1   8
ATOM      7  C   UNL     1     -13.545  10.947 130.020  0.00  0.00    +0.000 C 
ATOM      8  O   UNL     1     -13.339  10.006 128.970  0.00  0.00    +0.000 OA
ENDBRANCH   1   8
BRANCH   3   9
ATOM      9  O   UNL     1     -12.369   6.383 131.850  0.00  0.00    +0.000 OA
ATOM     10  H   UNL     1     -11.746   6.533 132.576  0.00  0.00    +0.000 HD
ENDBRANCH   3   9
BRANCH   4  11
ATOM     11  C   UNL     1     -10.035   5.578 130.359  0.00  0.00    +0.000 C 
ATOM     12  O   UNL     1     -10.168   4.459 129.864  0.00  0.00    +0.000 OA
BRANCH  11  13
ATOM     13  C   UNL     1      -8.917   5.731 131.308  0.00  0.00    +0.000 A 
ATOM     14  C   UNL     1      -7.713   6.261 130.827  0.00  0.00    +0.000 A 
ATOM     15  C   UNL     1      -6.636   6.425 131.696  0.00  0.00    +0.000 A 
ATOM     16  C   UNL     1      -6.760   6.053 133.036  0.00  0.00    +0.000 A 
ATOM     17  C   UNL     1      -7.959   5.516 133.516  0.00  0.00    +0.000 A 
ATOM     18  C   UNL     1      -9.035   5.348 132.648  0.00  0.00    +0.000 A 
BRANCH  18  19
ATOM     19  O   UNL     1     -10.216   4.831 133.100  0.00  0.00    +0.000 OA
ATOM     20  H   UNL     1     -10.410   5.164 133.990  0.00  0.00    +0.000 HD
ENDBRANCH  18  19
ENDBRANCH  11  13
ENDBRANCH   4  11
TORSDOF 5
ENDMDL
MODEL 2
REMARK VINA RESULT:      -6.9      1.487      2.128
REMARK  Name = Dioxybenzone
REMARK  6 active torsions:
REMARK  status: ('A' for Active; 'I' for Inactive)
REMARK    1  A    between atoms: C_1  and  O_2
REMARK    2  A    between atoms: O_2  and  C_3
REMARK    3  A    between atoms: C_5  and  O_6
REMARK    4  A    between atoms: C_7  and  C_10
REMARK    5  A    between atoms: C_10  and  C_12
REMARK    6  A    between atoms: C_17  and  O_18
REMARK                            x       y       z     vdW  Elec       q    Type
REMARK                         _______ _______ _______ _____ _____    ______ ____
ROOT
ATOM      1  C   UNL     1     -12.452   8.567 129.581  0.00  0.00    +0.000 A 
ATOM      2  C   UNL     1     -11.464   8.088 128.714  0.00  0.00    +0.000 A 
ATOM      3  C   UNL     1     -10.776   6.900 129.000  0.00  0.00    +0.000 A 
ATOM      4  C   UNL     1     -11.061   6.176 130.164  0.00  0.00    +0.000 A 
ATOM      5  C   UNL     1     -12.044   6.684 131.032  0.00  0.00    +0.000 A 
ATOM      6  C   UNL     1     -12.748   7.852 130.735  0.00  0.00    +0.000 A 
ENDROOT
BRANCH   1   8
ATOM      7  C   UNL     1     -13.356  10.656 130.255  0.00  0.00    +0.000 C 
ATOM      8  O   UNL     1     -13.053   9.739 129.207  0.00  0.00    +0.000 OA
ENDBRANCH   1   8
BRANCH   3   9
ATOM      9  O   UNL     1      -9.817   6.464 128.129  0.00  0.00    +0.000 OA
ATOM     10  H   UNL     1     -10.133   5.711 127.610  0.00  0.00    +0.000 HD
ENDBRANCH   3   9
BRANCH   4  11
ATOM     11  C   UNL     1     -10.329   4.906 130.502  0.00  0.00    +0.000 C 
ATOM     12  O   UNL     1     -10.202   3.967 129.717  0.00  0.00    +0.000 OA
BRANCH  11  13
ATOM     13  C   UNL     1      -9.652   4.751 131.803  0.00  0.00    +0.000 A 
ATOM     14  C   UNL     1      -8.974   5.858 132.329  0.00  0.00    +0.000 A 
ATOM     15  C   UNL     1      -8.327   5.749 133.558  0.00  0.00    +0.000 A 
ATOM     16  C   UNL     1      -8.352   4.538 134.254  0.00  0.00    +0.000 A 
ATOM     17  C   UNL     1      -9.022   3.430 133.725  0.00  0.00    +0.000 A 
ATOM     18  C   UNL     1      -9.665   3.536 132.495  0.00  0.00    +0.000 A 
BRANCH  18  19
ATOM     19  O   UNL     1     -10.330   2.465 131.967  0.00  0.00    +0.000 OA
ATOM     20  H   UNL     1     -11.233   2.718 131.720  0.00  0.00    +0.000 HD
ENDBRANCH  18  19
ENDBRANCH  11  13
ENDBRANCH   4  11
TORSDOF 5
ENDMDL
MODEL 3
REMARK VINA RESULT:      -6.7      1.804      2.340
REMARK  Name = Dioxybenzone
REMARK  6 active torsions:
REMARK  status: ('A' for Active; 'I' for Inactive)
REMARK    1  A    between atoms: C_1  and  O_2
REMARK    2  A    between atoms: O_2  and  C_3
REMARK    3  A    between atoms: C_5  and  O_6
REMARK    4  A    between atoms: C_7  and  C_10
REMARK    5  A    between atoms: C_10  and  C_12
REMARK    6  A    between atoms: C_17  and  O_18
REMARK                            x       y       z     vdW  Elec       q    Type
REMARK                         _______ _______ _______ _____ _____    ______ ____
ROOT
ATOM      1  C   UNL     1     -12.256   8.204 129.233  0.00  0.00    +0.000 A 
ATOM      2  C   UNL     1     -12.639   7.483 130.370  0.00  0.00    +0.000 A 
ATOM      3  C   UNL     1     -11.693   6.765 131.115  0.00  0.00    +0.000 A 
ATOM      4  C   UNL     1     -10.346   6.752 130.729  0.00  0.00    +0.000 A 
ATOM      5  C   UNL     1      -9.984   7.467 129.574  0.00  0.00    +0.000 A 
ATOM      6  C   UNL     1     -10.921   8.203 128.847  0.00  0.00    +0.000 A 
ENDROOT
BRANCH   1   8
ATOM      7  C   UNL     1     -13.513  10.202 128.987  0.00  0.00    +0.000 C 
ATOM      8  O   UNL     1     -13.263   8.860 128.578  0.00  0.00    +0.000 OA
ENDBRANCH   1   8
BRANCH   3   9
ATOM      9  O   UNL     1     -12.105   6.073 132.218  0.00  0.00    +0.000 OA
ATOM     10  H   UNL     1     -13.068   6.109 132.313  0.00  0.00    +0.000 HD
ENDBRANCH   3   9
BRANCH   4  11
ATOM     11  C   UNL     1      -9.312   5.980 131.502  0.00  0.00    +0.000 C 
ATOM     12  O   UNL     1      -8.507   6.506 132.270  0.00  0.00    +0.000 OA
BRANCH  11  13
ATOM     13  C   UNL     1      -9.260   4.508 131.427  0.00  0.00    +0.000 A 
ATOM     14  C   UNL     1      -8.910   3.923 130.204  0.00  0.00    +0.000 A 
ATOM     15  C   UNL     1      -8.845   2.536 130.097  0.00  0.00    +0.000 A 
ATOM     16  C   UNL     1      -9.135   1.737 131.206  0.00  0.00    +0.000 A 
ATOM     17  C   UNL     1      -9.491   2.320 132.426  0.00  0.00    +0.000 A 
ATOM     18  C   UNL     1      -9.561   3.707 132.533  0.00  0.00    +0.000 A 
BRANCH  18  19
ATOM     19  O   UNL     1      -9.902   4.294 133.718  0.00  0.00    +0.000 OA
ATOM     20  H   UNL     1      -9.105   4.531 134.218  0.00  0.00    +0.000 HD
ENDBRANCH  18  19
ENDBRANCH  11  13
ENDBRANCH   4  11
TORSDOF 5
ENDMDL
MODEL 4
REMARK VINA RESULT:      -6.7      9.404     11.607
REMARK  Name = Dioxybenzone
REMARK  6 active torsions:
REMARK  status: ('A' for Active; 'I' for Inactive)
REMARK    1  A    between atoms: C_1  and  O_2
REMARK    2  A    between atoms: O_2  and  C_3
REMARK    3  A    between atoms: C_5  and  O_6
REMARK    4  A    between atoms: C_7  and  C_10
REMARK    5  A    between atoms: C_10  and  C_12
REMARK    6  A    between atoms: C_17  and  O_18
REMARK                            x       y       z     vdW  Elec       q    Type
REMARK                         _______ _______ _______ _____ _____    ______ ____
ROOT
ATOM      1  C   UNL     1      -8.234  -1.672 123.444  0.00  0.00    +0.000 A 
ATOM      2  C   UNL     1      -9.329  -0.978 122.918  0.00  0.00    +0.000 A 
ATOM      3  C   UNL     1      -9.300   0.418 122.797  0.00  0.00    +0.000 A 
ATOM      4  C   UNL     1      -8.175   1.145 123.208  0.00  0.00    +0.000 A 
ATOM      5  C   UNL     1      -7.092   0.431 123.751  0.00  0.00    +0.000 A 
ATOM      6  C   UNL     1      -7.110  -0.961 123.848  0.00  0.00    +0.000 A 
ENDROOT
BRANCH   1   8
ATOM      7  C   UNL     1      -7.517  -3.702 124.443  0.00  0.00    +0.000 C 
ATOM      8  O   UNL     1      -8.374  -3.031 123.524  0.00  0.00    +0.000 OA
ENDBRANCH   1   8
BRANCH   3   9
ATOM      9  O   UNL     1     -10.389   1.061 122.279  0.00  0.00    +0.000 OA
ATOM     10  H   UNL     1     -10.241   2.016 122.230  0.00  0.00    +0.000 HD
ENDBRANCH   3   9
BRANCH   4  11
ATOM     11  C   UNL     1      -8.123   2.644 123.102  0.00  0.00    +0.000 C 
ATOM     12  O   UNL     1      -8.684   3.400 123.894  0.00  0.00    +0.000 OA
BRANCH  11  13
ATOM     13  C   UNL     1      -7.317   3.297 122.054  0.00  0.00    +0.000 A 
ATOM     14  C   UNL     1      -5.962   3.533 122.316  0.00  0.00    +0.000 A 
ATOM     15  C   UNL     1      -5.168   4.144 121.348  0.00  0.00    +0.000 A 
ATOM     16  C   UNL     1      -5.728   4.522 120.125  0.00  0.00    +0.000 A 
ATOM     17  C   UNL     1      -7.083   4.293 119.864  0.00  0.00    +0.000 A 
ATOM     18  C   UNL     1      -7.879   3.687 120.834  0.00  0.00    +0.000 A 
BRANCH  18  19
ATOM     19  O   UNL     1      -9.202   3.450 120.594  0.00  0.00    +0.000 OA
ATOM     20  H   UNL     1      -9.625   3.075 121.382  0.00  0.00    +0.000 HD
ENDBRANCH  18  19
ENDBRANCH  11  13
ENDBRANCH   4  11
TORSDOF 5
ENDMDL
MODEL 5
REMARK VINA RESULT:      -6.5      1.448      2.417
REMARK  Name = Dioxybenzone
REMARK  6 active torsions:
REMARK  status: ('A' for Active; 'I' for Inactive)
REMARK    1  A    between atoms: C_1  and  O_2
REMARK    2  A    between atoms: O_2  and  C_3
REMARK    3  A    between atoms: C_5  and  O_6
REMARK    4  A    between atoms: C_7  and  C_10
REMARK    5  A    between atoms: C_10  and  C_12
REMARK    6  A    between atoms: C_17  and  O_18
REMARK                            x       y       z     vdW  Elec       q    Type
REMARK                         _______ _______ _______ _____ _____    ______ ____
ROOT
ATOM      1  C   UNL     1     -12.778   9.038 129.266  0.00  0.00    +0.000 A 
ATOM      2  C   UNL     1     -11.898   8.549 128.294  0.00  0.00    +0.000 A 
ATOM      3  C   UNL     1     -11.136   7.397 128.533  0.00  0.00    +0.000 A 
ATOM      4  C   UNL     1     -11.237   6.719 129.755  0.00  0.00    +0.000 A 
ATOM      5  C   UNL     1     -12.113   7.236 130.725  0.00  0.00    +0.000 A 
ATOM      6  C   UNL     1     -12.891   8.368 130.478  0.00  0.00    +0.000 A 
ENDROOT
BRANCH   1   8
ATOM      7  C   UNL     1     -13.560  11.177 129.936  0.00  0.00    +0.000 C 
ATOM      8  O   UNL     1     -13.465  10.173 128.929  0.00  0.00    +0.000 OA
ENDBRANCH   1   8
BRANCH   3   9
ATOM      9  O   UNL     1     -10.287   6.951 127.560  0.00  0.00    +0.000 OA
ATOM     10  H   UNL     1      -9.775   7.680 127.181  0.00  0.00    +0.000 HD
ENDBRANCH   3   9
BRANCH   4  11
ATOM     11  C   UNL     1     -10.422   5.488 130.043  0.00  0.00    +0.000 C 
ATOM     12  O   UNL     1     -10.894   4.352 130.068  0.00  0.00    +0.000 OA
BRANCH  11  13
ATOM     13  C   UNL     1      -8.964   5.581 130.246  0.00  0.00    +0.000 A 
ATOM     14  C   UNL     1      -8.483   6.562 131.122  0.00  0.00    +0.000 A 
ATOM     15  C   UNL     1      -7.112   6.675 131.344  0.00  0.00    +0.000 A 
ATOM     16  C   UNL     1      -6.227   5.818 130.686  0.00  0.00    +0.000 A 
ATOM     17  C   UNL     1      -6.706   4.843 129.805  0.00  0.00    +0.000 A 
ATOM     18  C   UNL     1      -8.076   4.731 129.579  0.00  0.00    +0.000 A 
BRANCH  18  19
ATOM     19  O   UNL     1      -8.562   3.781 128.727  0.00  0.00    +0.000 OA
ATOM     20  H   UNL     1      -8.224   3.928 127.830  0.00  0.00    +0.000 HD
ENDBRANCH  18  19
ENDBRANCH  11  13
ENDBRANCH   4  11
TORSDOF 5
ENDMDL
MODEL 6
REMARK VINA RESULT:      -6.5      1.762      5.717
REMARK  Name = Dioxybenzone
REMARK  6 active torsions:
REMARK  status: ('A' for Active; 'I' for Inactive)
REMARK    1  A    between atoms: C_1  and  O_2
REMARK    2  A    between atoms: O_2  and  C_3
REMARK    3  A    between atoms: C_5  and  O_6
REMARK    4  A    between atoms: C_7  and  C_10
REMARK    5  A    between atoms: C_10  and  C_12
REMARK    6  A    between atoms: C_17  and  O_18
REMARK                            x       y       z     vdW  Elec       q    Type
REMARK                         _______ _______ _______ _____ _____    ______ ____
ROOT
ATOM      1  C   UNL     1      -6.224   5.790 130.671  0.00  0.00    +0.000 A 
ATOM      2  C   UNL     1      -6.737   4.812 129.811  0.00  0.00    +0.000 A 
ATOM      3  C   UNL     1      -8.114   4.727 129.565  0.00  0.00    +0.000 A 
ATOM      4  C   UNL     1      -9.003   5.616 130.183  0.00  0.00    +0.000 A 
ATOM      5  C   UNL     1      -8.471   6.579 131.057  0.00  0.00    +0.000 A 
ATOM      6  C   UNL     1      -7.097   6.682 131.282  0.00  0.00    +0.000 A 
ENDROOT
BRANCH   1   8
ATOM      7  C   UNL     1      -4.263   7.013 131.212  0.00  0.00    +0.000 C 
ATOM      8  O   UNL     1      -4.866   5.776 130.844  0.00  0.00    +0.000 OA
ENDBRANCH   1   8
BRANCH   3   9
ATOM      9  O   UNL     1      -8.578   3.758 128.720  0.00  0.00    +0.000 OA
ATOM     10  H   UNL     1      -9.082   4.144 127.990  0.00  0.00    +0.000 HD
ENDBRANCH   3   9
BRANCH   4  11
ATOM     11  C   UNL     1     -10.487   5.538 129.948  0.00  0.00    +0.000 C 
ATOM     12  O   UNL     1     -11.109   4.478 129.887  0.00  0.00    +0.000 OA
BRANCH  11  13
ATOM     13  C   UNL     1     -11.298   6.765 129.845  0.00  0.00    +0.000 A 
ATOM     14  C   UNL     1     -11.136   7.569 128.709  0.00  0.00    +0.000 A 
ATOM     15  C   UNL     1     -11.890   8.732 128.575  0.00  0.00    +0.000 A 
ATOM     16  C   UNL     1     -12.796   9.095 129.574  0.00  0.00    +0.000 A 
ATOM     17  C   UNL     1     -12.954   8.297 130.712  0.00  0.00    +0.000 A 
ATOM     18  C   UNL     1     -12.197   7.135 130.850  0.00  0.00    +0.000 A 
BRANCH  18  19
ATOM     19  O   UNL     1     -12.343   6.341 131.951  0.00  0.00    +0.000 OA
ATOM     20  H   UNL     1     -11.574   5.758 132.050  0.00  0.00    +0.000 HD
ENDBRANCH  18  19
ENDBRANCH  11  13
ENDBRANCH   4  11
TORSDOF 5
ENDMDL
MODEL 7
REMARK VINA RESULT:      -6.4      2.267      6.143
REMARK  Name = Dioxybenzone
REMARK  6 active torsions:
REMARK  status: ('A' for Active; 'I' for Inactive)
REMARK    1  A    between atoms: C_1  and  O_2
REMARK    2  A    between atoms: O_2  and  C_3
REMARK    3  A    between atoms: C_5  and  O_6
REMARK    4  A    between atoms: C_7  and  C_10
REMARK    5  A    between atoms: C_10  and  C_12
REMARK    6  A    between atoms: C_17  and  O_18
REMARK                            x       y       z     vdW  Elec       q    Type
REMARK                         _______ _______ _______ _____ _____    ______ ____
ROOT
ATOM      1  C   UNL     1      -9.443   2.811 132.050  0.00  0.00    +0.000 A 
ATOM      2  C   UNL     1      -9.450   3.952 132.859  0.00  0.00    +0.000 A 
ATOM      3  C   UNL     1      -9.482   5.233 132.290  0.00  0.00    +0.000 A 
ATOM      4  C   UNL     1      -9.500   5.392 130.898  0.00  0.00    +0.000 A 
ATOM      5  C   UNL     1      -9.475   4.233 130.102  0.00  0.00    +0.000 A 
ATOM      6  C   UNL     1      -9.469   2.958 130.668  0.00  0.00    +0.000 A 
ENDROOT
BRANCH   1   8
ATOM      7  C   UNL     1      -9.043   0.474 131.935  0.00  0.00    +0.000 C 
ATOM      8  O   UNL     1      -9.402   1.613 132.712  0.00  0.00    +0.000 OA
ENDBRANCH   1   8
BRANCH   3   9
ATOM      9  O   UNL     1      -9.487   6.324 133.112  0.00  0.00    +0.000 OA
ATOM     10  H   UNL     1     -10.387   6.555 133.381  0.00  0.00    +0.000 HD
ENDBRANCH   3   9
BRANCH   4  11
ATOM     11  C   UNL     1      -9.522   6.754 130.260  0.00  0.00    +0.000 C 
ATOM     12  O   UNL     1      -8.563   7.526 130.279  0.00  0.00    +0.000 OA
BRANCH  11  13
ATOM     13  C   UNL     1     -10.700   7.212 129.503  0.00  0.00    +0.000 A 
ATOM     14  C   UNL     1     -11.775   7.752 130.220  0.00  0.00    +0.000 A 
ATOM     15  C   UNL     1     -12.904   8.201 129.537  0.00  0.00    +0.000 A 
ATOM     16  C   UNL     1     -12.960   8.104 128.145  0.00  0.00    +0.000 A 
ATOM     17  C   UNL     1     -11.890   7.558 127.428  0.00  0.00    +0.000 A 
ATOM     18  C   UNL     1     -10.763   7.105 128.109  0.00  0.00    +0.000 A 
BRANCH  18  19
ATOM     19  O   UNL     1      -9.707   6.575 127.425  0.00  0.00    +0.000 OA
ATOM     20  H   UNL     1      -9.699   6.901 126.512  0.00  0.00    +0.000 HD
ENDBRANCH  18  19
ENDBRANCH  11  13
ENDBRANCH   4  11
TORSDOF 5
ENDMDL
MODEL 8
REMARK VINA RESULT:      -6.3      2.507      6.099
REMARK  Name = Dioxybenzone
REMARK  6 active torsions:
REMARK  status: ('A' for Active; 'I' for Inactive)
REMARK    1  A    between atoms: C_1  and  O_2
REMARK    2  A    between atoms: O_2  and  C_3
REMARK    3  A    between atoms: C_5  and  O_6
REMARK    4  A    between atoms: C_7  and  C_10
REMARK    5  A    between atoms: C_10  and  C_12
REMARK    6  A    between atoms: C_17  and  O_18
REMARK                            x       y       z     vdW  Elec       q    Type
REMARK                         _______ _______ _______ _____ _____    ______ ____
ROOT
ATOM      1  C   UNL     1      -9.064   1.626 131.159  0.00  0.00    +0.000 A 
ATOM      2  C   UNL     1      -9.299   2.069 132.465  0.00  0.00    +0.000 A 
ATOM      3  C   UNL     1      -9.527   3.427 132.730  0.00  0.00    +0.000 A 
ATOM      4  C   UNL     1      -9.519   4.365 131.690  0.00  0.00    +0.000 A 
ATOM      5  C   UNL     1      -9.264   3.903 130.387  0.00  0.00    +0.000 A 
ATOM      6  C   UNL     1      -9.062   2.548 130.119  0.00  0.00    +0.000 A 
ENDROOT
BRANCH   1   8
ATOM      7  C   UNL     1      -7.490  -0.149 131.101  0.00  0.00    +0.000 C 
ATOM      8  O   UNL     1      -8.845   0.282 131.018  0.00  0.00    +0.000 OA
ENDBRANCH   1   8
BRANCH   3   9
ATOM      9  O   UNL     1      -9.752   3.821 134.019  0.00  0.00    +0.000 OA
ATOM     10  H   UNL     1     -10.538   3.392 134.384  0.00  0.00    +0.000 HD
ENDBRANCH   3   9
BRANCH   4  11
ATOM     11  C   UNL     1      -9.749   5.829 131.947  0.00  0.00    +0.000 C 
ATOM     12  O   UNL     1      -9.356   6.409 132.960  0.00  0.00    +0.000 OA
BRANCH  11  13
ATOM     13  C   UNL     1     -10.412   6.676 130.939  0.00  0.00    +0.000 A 
ATOM     14  C   UNL     1      -9.622   7.242 129.931  0.00  0.00    +0.000 A 
ATOM     15  C   UNL     1     -10.216   8.044 128.959  0.00  0.00    +0.000 A 
ATOM     16  C   UNL     1     -11.591   8.284 128.998  0.00  0.00    +0.000 A 
ATOM     17  C   UNL     1     -12.381   7.725 130.009  0.00  0.00    +0.000 A 
ATOM     18  C   UNL     1     -11.788   6.927 130.984  0.00  0.00    +0.000 A 
BRANCH  18  19
ATOM     19  O   UNL     1     -12.544   6.368 131.975  0.00  0.00    +0.000 OA
ATOM     20  H   UNL     1     -13.269   6.963 132.222  0.00  0.00    +0.000 HD
ENDBRANCH  18  19
ENDBRANCH  11  13
ENDBRANCH   4  11
TORSDOF 5
ENDMDL
MODEL 9
REMARK VINA RESULT:      -6.2      8.814     10.424
REMARK  Name = Dioxybenzone
REMARK  6 active torsions:
REMARK  status: ('A' for Active; 'I' for Inactive)
REMARK    1  A    between atoms: C_1  and  O_2
REMARK    2  A    between atoms: O_2  and  C_3
REMARK    3  A    between atoms: C_5  and  O_6
REMARK    4  A    between atoms: C_7  and  C_10
REMARK    5  A    between atoms: C_10  and  C_12
REMARK    6  A    between atoms: C_17  and  O_18
REMARK                            x       y       z     vdW  Elec       q    Type
REMARK                         _______ _______ _______ _____ _____    ______ ____
ROOT
ATOM      1  C   UNL     1      -6.446   3.501 123.413  0.00  0.00    +0.000 A 
ATOM      2  C   UNL     1      -7.600   3.168 122.695  0.00  0.00    +0.000 A 
ATOM      3  C   UNL     1      -8.475   2.179 123.165  0.00  0.00    +0.000 A 
ATOM      4  C   UNL     1      -8.206   1.502 124.362  0.00  0.00    +0.000 A 
ATOM      5  C   UNL     1      -7.033   1.838 125.059  0.00  0.00    +0.000 A 
ATOM      6  C   UNL     1      -6.174   2.840 124.605  0.00  0.00    +0.000 A 
ENDROOT
BRANCH   1   8
ATOM      7  C   UNL     1      -5.284   4.281 121.496  0.00  0.00    +0.000 C 
ATOM      8  O   UNL     1      -5.660   4.474 122.857  0.00  0.00    +0.000 OA
ENDBRANCH   1   8
BRANCH   3   9
ATOM      9  O   UNL     1      -9.591   1.881 122.435  0.00  0.00    +0.000 OA
ATOM     10  H   UNL     1     -10.386   2.254 122.845  0.00  0.00    +0.000 HD
ENDBRANCH   3   9
BRANCH   4  11
ATOM     11  C   UNL     1      -9.121   0.428 124.882  0.00  0.00    +0.000 C 
ATOM     12  O   UNL     1     -10.203   0.661 125.421  0.00  0.00    +0.000 OA
BRANCH  11  13
ATOM     13  C   UNL     1      -8.787  -0.997 124.705  0.00  0.00    +0.000 A 
ATOM     14  C   UNL     1      -8.013  -1.620 125.692  0.00  0.00    +0.000 A 
ATOM     15  C   UNL     1      -7.683  -2.967 125.561  0.00  0.00    +0.000 A 
ATOM     16  C   UNL     1      -8.118  -3.686 124.445  0.00  0.00    +0.000 A 
ATOM     17  C   UNL     1      -8.885  -3.063 123.455  0.00  0.00    +0.000 A 
ATOM     18  C   UNL     1      -9.212  -1.715 123.583  0.00  0.00    +0.000 A 
BRANCH  18  19
ATOM     19  O   UNL     1      -9.965  -1.092 122.629  0.00  0.00    +0.000 OA
ATOM     20  H   UNL     1     -10.430  -1.747 122.085  0.00  0.00    +0.000 HD
ENDBRANCH  18  19
ENDBRANCH  11  13
ENDBRANCH   4  11
TORSDOF 5
ENDMDL
