MODEL 1
REMARK VINA RESULT:      -5.7      0.000      0.000
REMARK  Name = Dipentamethylenethiuram disulfide
REMARK  5 active torsions:
REMARK  status: ('A' for Active; 'I' for Inactive)
REMARK    1  A    between atoms: C_2  and  S_3
REMARK    2  A    between atoms: C_2  and  N_13
REMARK    3  A    between atoms: S_3  and  S_4
REMARK    4  A    between atoms: S_4  and  C_5
REMARK    5  A    between atoms: C_5  and  N_7
REMARK                            x       y       z     vdW  Elec       q    Type
REMARK                         _______ _______ _______ _____ _____    ______ ____
ROOT
ATOM      1  S   UNL     1      -8.988   2.297 124.421  0.00  0.00    +0.000 S 
ENDROOT
BRANCH   1   3
ATOM      2  S   UNL     1      -6.578   4.189 124.647  0.00  0.00    +0.000 S 
ATOM      3  C   UNL     1      -7.650   3.278 123.715  0.00  0.00    +0.000 C 
BRANCH   3   4
ATOM      4  N   UNL     1      -7.540   3.207 122.308  0.00  0.00    +0.000 N 
ATOM      5  C   UNL     1      -6.262   3.181 121.581  0.00  0.00    +0.000 C 
ATOM      6  C   UNL     1      -6.232   4.251 120.493  0.00  0.00    +0.000 C 
ATOM      7  C   UNL     1      -7.437   4.137 119.554  0.00  0.00    +0.000 C 
ATOM      8  C   UNL     1      -8.749   4.045 120.336  0.00  0.00    +0.000 C 
ATOM      9  C   UNL     1      -8.689   2.959 121.416  0.00  0.00    +0.000 C 
ENDBRANCH   3   4
ENDBRANCH   1   3
BRANCH   1  10
ATOM     10  S   UNL     1      -8.500   0.249 124.265  0.00  0.00    +0.000 S 
BRANCH  10  11
ATOM     11  C   UNL     1      -7.812  -0.309 125.837  0.00  0.00    +0.000 C 
ATOM     12  S   UNL     1      -8.015   0.533 127.285  0.00  0.00    +0.000 S 
BRANCH  11  13
ATOM     13  N   UNL     1      -7.104  -1.536 125.778  0.00  0.00    +0.000 N 
ATOM     14  C   UNL     1      -5.672  -1.620 125.426  0.00  0.00    +0.000 C 
ATOM     15  C   UNL     1      -5.439  -2.338 124.097  0.00  0.00    +0.000 C 
ATOM     16  C   UNL     1      -6.099  -3.715 124.095  0.00  0.00    +0.000 C 
ATOM     17  C   UNL     1      -7.569  -3.614 124.509  0.00  0.00    +0.000 C 
ATOM     18  C   UNL     1      -7.752  -2.856 125.836  0.00  0.00    +0.000 C 
ENDBRANCH  11  13
ENDBRANCH  10  11
ENDBRANCH   1  10
TORSDOF 5
ENDMDL
MODEL 2
REMARK VINA RESULT:      -5.6      1.892      6.316
REMARK  Name = Dipentamethylenethiuram disulfide
REMARK  5 active torsions:
REMARK  status: ('A' for Active; 'I' for Inactive)
REMARK    1  A    between atoms: C_2  and  S_3
REMARK    2  A    between atoms: C_2  and  N_13
REMARK    3  A    between atoms: S_3  and  S_4
REMARK    4  A    between atoms: S_4  and  C_5
REMARK    5  A    between atoms: C_5  and  N_7
REMARK                            x       y       z     vdW  Elec       q    Type
REMARK                         _______ _______ _______ _____ _____    ______ ____
ROOT
ATOM      1  S   UNL     1      -6.649   0.317 125.663  0.00  0.00    +0.000 S 
ENDROOT
BRANCH   1   3
ATOM      2  S   UNL     1      -5.620  -2.000 127.398  0.00  0.00    +0.000 S 
ATOM      3  C   UNL     1      -6.501  -1.432 126.076  0.00  0.00    +0.000 C 
BRANCH   3   4
ATOM      4  N   UNL     1      -7.208  -2.305 125.219  0.00  0.00    +0.000 N 
ATOM      5  C   UNL     1      -6.939  -2.446 123.781  0.00  0.00    +0.000 C 
ATOM      6  C   UNL     1      -8.221  -2.281 122.968  0.00  0.00    +0.000 C 
ATOM      7  C   UNL     1      -9.322  -3.231 123.449  0.00  0.00    +0.000 C 
ATOM      8  C   UNL     1      -9.503  -3.155 124.967  0.00  0.00    +0.000 C 
ATOM      9  C   UNL     1      -8.169  -3.316 125.704  0.00  0.00    +0.000 C 
ENDBRANCH   3   4
ENDBRANCH   1   3
BRANCH   1  10
ATOM     10  S   UNL     1      -8.694   0.837 125.581  0.00  0.00    +0.000 S 
BRANCH  10  11
ATOM     11  C   UNL     1      -9.044   1.578 123.973  0.00  0.00    +0.000 C 
ATOM     12  S   UNL     1     -10.092   0.887 122.846  0.00  0.00    +0.000 S 
BRANCH  11  13
ATOM     13  N   UNL     1      -8.391   2.813 123.729  0.00  0.00    +0.000 N 
ATOM     14  C   UNL     1      -7.814   3.169 122.418  0.00  0.00    +0.000 C 
ATOM     15  C   UNL     1      -6.290   3.284 122.462  0.00  0.00    +0.000 C 
ATOM     16  C   UNL     1      -5.845   4.254 123.555  0.00  0.00    +0.000 C 
ATOM     17  C   UNL     1      -6.491   3.898 124.895  0.00  0.00    +0.000 C 
ATOM     18  C   UNL     1      -8.021   3.764 124.790  0.00  0.00    +0.000 C 
ENDBRANCH  11  13
ENDBRANCH  10  11
ENDBRANCH   1  10
TORSDOF 5
ENDMDL
MODEL 3
REMARK VINA RESULT:      -5.6      1.767      2.789
REMARK  Name = Dipentamethylenethiuram disulfide
REMARK  5 active torsions:
REMARK  status: ('A' for Active; 'I' for Inactive)
REMARK    1  A    between atoms: C_2  and  S_3
REMARK    2  A    between atoms: C_2  and  N_13
REMARK    3  A    between atoms: S_3  and  S_4
REMARK    4  A    between atoms: S_4  and  C_5
REMARK    5  A    between atoms: C_5  and  N_7
REMARK                            x       y       z     vdW  Elec       q    Type
REMARK                         _______ _______ _______ _____ _____    ______ ____
ROOT
ATOM      1  S   UNL     1      -7.995   2.397 125.383  0.00  0.00    +0.000 S 
ENDROOT
BRANCH   1   3
ATOM      2  S   UNL     1      -4.989   2.693 125.942  0.00  0.00    +0.000 S 
ATOM      3  C   UNL     1      -6.328   2.926 124.943  0.00  0.00    +0.000 C 
BRANCH   3   4
ATOM      4  N   UNL     1      -6.215   3.532 123.671  0.00  0.00    +0.000 N 
ATOM      5  C   UNL     1      -6.994   3.127 122.493  0.00  0.00    +0.000 C 
ATOM      6  C   UNL     1      -6.079   2.859 121.300  0.00  0.00    +0.000 C 
ATOM      7  C   UNL     1      -5.164   4.053 121.009  0.00  0.00    +0.000 C 
ATOM      8  C   UNL     1      -4.454   4.535 122.276  0.00  0.00    +0.000 C 
ATOM      9  C   UNL     1      -5.441   4.765 123.426  0.00  0.00    +0.000 C 
ENDBRANCH   3   4
ENDBRANCH   1   3
BRANCH   1  10
ATOM     10  S   UNL     1      -8.060   0.287 125.431  0.00  0.00    +0.000 S 
BRANCH  10  11
ATOM     11  C   UNL     1      -8.599  -0.317 123.819  0.00  0.00    +0.000 C 
ATOM     12  S   UNL     1      -9.780   0.452 122.890  0.00  0.00    +0.000 S 
BRANCH  11  13
ATOM     13  N   UNL     1      -7.933  -1.483 123.364  0.00  0.00    +0.000 N 
ATOM     14  C   UNL     1      -8.490  -2.841 123.525  0.00  0.00    +0.000 C 
ATOM     15  C   UNL     1      -7.662  -3.704 124.478  0.00  0.00    +0.000 C 
ATOM     16  C   UNL     1      -6.197  -3.746 124.046  0.00  0.00    +0.000 C 
ATOM     17  C   UNL     1      -5.651  -2.332 123.837  0.00  0.00    +0.000 C 
ATOM     18  C   UNL     1      -6.537  -1.495 122.896  0.00  0.00    +0.000 C 
ENDBRANCH  11  13
ENDBRANCH  10  11
ENDBRANCH   1  10
TORSDOF 5
ENDMDL
MODEL 4
REMARK VINA RESULT:      -5.4      7.963     10.647
REMARK  Name = Dipentamethylenethiuram disulfide
REMARK  5 active torsions:
REMARK  status: ('A' for Active; 'I' for Inactive)
REMARK    1  A    between atoms: C_2  and  S_3
REMARK    2  A    between atoms: C_2  and  N_13
REMARK    3  A    between atoms: S_3  and  S_4
REMARK    4  A    between atoms: S_4  and  C_5
REMARK    5  A    between atoms: C_5  and  N_7
REMARK                            x       y       z     vdW  Elec       q    Type
REMARK                         _______ _______ _______ _____ _____    ______ ____
ROOT
ATOM      1  S   UNL     1      -7.230   6.155 131.833  0.00  0.00    +0.000 S 
ENDROOT
BRANCH   1   3
ATOM      2  S   UNL     1      -4.803   4.305 131.481  0.00  0.00    +0.000 S 
ATOM      3  C   UNL     1      -6.464   4.531 131.673  0.00  0.00    +0.000 C 
BRANCH   3   4
ATOM      4  N   UNL     1      -7.361   3.442 131.749  0.00  0.00    +0.000 N 
ATOM      5  C   UNL     1      -7.894   2.730 130.578  0.00  0.00    +0.000 C 
ATOM      6  C   UNL     1      -9.418   2.650 130.636  0.00  0.00    +0.000 C 
ATOM      7  C   UNL     1      -9.904   2.043 131.956  0.00  0.00    +0.000 C 
ATOM      8  C   UNL     1      -9.244   2.721 133.159  0.00  0.00    +0.000 C 
ATOM      9  C   UNL     1      -7.719   2.771 133.014  0.00  0.00    +0.000 C 
ENDBRANCH   3   4
ENDBRANCH   1   3
BRANCH   1  10
ATOM     10  S   UNL     1      -8.469   6.504 130.159  0.00  0.00    +0.000 S 
BRANCH  10  11
ATOM     11  C   UNL     1     -10.168   6.719 130.725  0.00  0.00    +0.000 C 
ATOM     12  S   UNL     1     -10.732   6.133 132.204  0.00  0.00    +0.000 S 
BRANCH  11  13
ATOM     13  N   UNL     1     -11.004   7.451 129.844  0.00  0.00    +0.000 N 
ATOM     14  C   UNL     1     -12.479   7.404 129.912  0.00  0.00    +0.000 C 
ATOM     15  C   UNL     1     -13.100   6.747 128.679  0.00  0.00    +0.000 C 
ATOM     16  C   UNL     1     -12.618   7.422 127.397  0.00  0.00    +0.000 C 
ATOM     17  C   UNL     1     -11.090   7.505 127.366  0.00  0.00    +0.000 C 
ATOM     18  C   UNL     1     -10.513   8.145 128.642  0.00  0.00    +0.000 C 
ENDBRANCH  11  13
ENDBRANCH  10  11
ENDBRANCH   1  10
TORSDOF 5
ENDMDL
MODEL 5
REMARK VINA RESULT:      -5.4      7.895      9.310
REMARK  Name = Dipentamethylenethiuram disulfide
REMARK  5 active torsions:
REMARK  status: ('A' for Active; 'I' for Inactive)
REMARK    1  A    between atoms: C_2  and  S_3
REMARK    2  A    between atoms: C_2  and  N_13
REMARK    3  A    between atoms: S_3  and  S_4
REMARK    4  A    between atoms: S_4  and  C_5
REMARK    5  A    between atoms: C_5  and  N_7
REMARK                            x       y       z     vdW  Elec       q    Type
REMARK                         _______ _______ _______ _____ _____    ______ ____
ROOT
ATOM      1  S   UNL     1      -8.337   5.606 130.180  0.00  0.00    +0.000 S 
ENDROOT
BRANCH   1   3
ATOM      2  S   UNL     1     -10.401   6.059 132.410  0.00  0.00    +0.000 S 
ATOM      3  C   UNL     1      -9.945   6.151 130.788  0.00  0.00    +0.000 C 
BRANCH   3   4
ATOM      4  N   UNL     1     -10.798   6.697 129.802  0.00  0.00    +0.000 N 
ATOM      5  C   UNL     1     -10.374   7.016 128.431  0.00  0.00    +0.000 C 
ATOM      6  C   UNL     1     -10.745   8.452 128.067  0.00  0.00    +0.000 C 
ATOM      7  C   UNL     1     -12.234   8.727 128.294  0.00  0.00    +0.000 C 
ATOM      8  C   UNL     1     -12.680   8.276 129.687  0.00  0.00    +0.000 C 
ATOM      9  C   UNL     1     -12.257   6.832 129.977  0.00  0.00    +0.000 C 
ENDBRANCH   3   4
ENDBRANCH   1   3
BRANCH   1  10
ATOM     10  S   UNL     1      -6.823   6.751 131.105  0.00  0.00    +0.000 S 
BRANCH  10  11
ATOM     11  C   UNL     1      -5.251   5.881 130.943  0.00  0.00    +0.000 C 
ATOM     12  S   UNL     1      -4.466   5.140 132.240  0.00  0.00    +0.000 S 
BRANCH  11  13
ATOM     13  N   UNL     1      -4.726   5.835 129.627  0.00  0.00    +0.000 N 
ATOM     14  C   UNL     1      -4.813   4.637 128.768  0.00  0.00    +0.000 C 
ATOM     15  C   UNL     1      -3.443   4.023 128.482  0.00  0.00    +0.000 C 
ATOM     16  C   UNL     1      -2.487   5.062 127.900  0.00  0.00    +0.000 C 
ATOM     17  C   UNL     1      -2.446   6.315 128.777  0.00  0.00    +0.000 C 
ATOM     18  C   UNL     1      -3.851   6.876 129.061  0.00  0.00    +0.000 C 
ENDBRANCH  11  13
ENDBRANCH  10  11
ENDBRANCH   1  10
TORSDOF 5
ENDMDL
MODEL 6
REMARK VINA RESULT:      -5.4      1.701      3.105
REMARK  Name = Dipentamethylenethiuram disulfide
REMARK  5 active torsions:
REMARK  status: ('A' for Active; 'I' for Inactive)
REMARK    1  A    between atoms: C_2  and  S_3
REMARK    2  A    between atoms: C_2  and  N_13
REMARK    3  A    between atoms: S_3  and  S_4
REMARK    4  A    between atoms: S_4  and  C_5
REMARK    5  A    between atoms: C_5  and  N_7
REMARK                            x       y       z     vdW  Elec       q    Type
REMARK                         _______ _______ _______ _____ _____    ______ ____
ROOT
ATOM      1  S   UNL     1      -7.982   1.569 125.569  0.00  0.00    +0.000 S 
ENDROOT
BRANCH   1   3
ATOM      2  S   UNL     1      -9.662   1.252 123.016  0.00  0.00    +0.000 S 
ATOM      3  C   UNL     1      -8.408   1.992 123.868  0.00  0.00    +0.000 C 
BRANCH   3   4
ATOM      4  N   UNL     1      -7.626   3.023 123.300  0.00  0.00    +0.000 N 
ATOM      5  C   UNL     1      -7.574   3.320 121.861  0.00  0.00    +0.000 C 
ATOM      6  C   UNL     1      -6.130   3.366 121.366  0.00  0.00    +0.000 C 
ATOM      7  C   UNL     1      -5.280   4.338 122.191  0.00  0.00    +0.000 C 
ATOM      8  C   UNL     1      -5.443   4.087 123.692  0.00  0.00    +0.000 C 
ATOM      9  C   UNL     1      -6.919   4.041 124.101  0.00  0.00    +0.000 C 
ENDBRANCH   3   4
ENDBRANCH   1   3
BRANCH   1  10
ATOM     10  S   UNL     1      -6.265   0.339 125.566  0.00  0.00    +0.000 S 
BRANCH  10  11
ATOM     11  C   UNL     1      -6.657  -1.209 124.727  0.00  0.00    +0.000 C 
ATOM     12  S   UNL     1      -6.658  -1.377 123.048  0.00  0.00    +0.000 S 
BRANCH  11  13
ATOM     13  N   UNL     1      -6.941  -2.300 125.587  0.00  0.00    +0.000 N 
ATOM     14  C   UNL     1      -7.944  -3.335 125.266  0.00  0.00    +0.000 C 
ATOM     15  C   UNL     1      -9.140  -3.305 126.217  0.00  0.00    +0.000 C 
ATOM     16  C   UNL     1      -8.685  -3.396 127.673  0.00  0.00    +0.000 C 
ATOM     17  C   UNL     1      -7.612  -2.347 127.974  0.00  0.00    +0.000 C 
ATOM     18  C   UNL     1      -6.446  -2.399 126.969  0.00  0.00    +0.000 C 
ENDBRANCH  11  13
ENDBRANCH  10  11
ENDBRANCH   1  10
TORSDOF 5
ENDMDL
MODEL 7
REMARK VINA RESULT:      -5.4      6.451      8.164
REMARK  Name = Dipentamethylenethiuram disulfide
REMARK  5 active torsions:
REMARK  status: ('A' for Active; 'I' for Inactive)
REMARK    1  A    between atoms: C_2  and  S_3
REMARK    2  A    between atoms: C_2  and  N_13
REMARK    3  A    between atoms: S_3  and  S_4
REMARK    4  A    between atoms: S_4  and  C_5
REMARK    5  A    between atoms: C_5  and  N_7
REMARK                            x       y       z     vdW  Elec       q    Type
REMARK                         _______ _______ _______ _____ _____    ______ ____
ROOT
ATOM      1  S   UNL     1      -8.630   4.165 129.492  0.00  0.00    +0.000 S 
ENDROOT
BRANCH   1   3
ATOM      2  S   UNL     1      -8.012   6.707 131.103  0.00  0.00    +0.000 S 
ATOM      3  C   UNL     1      -9.030   5.818 130.092  0.00  0.00    +0.000 C 
BRANCH   3   4
ATOM      4  N   UNL     1     -10.259   6.336 129.627  0.00  0.00    +0.000 N 
ATOM      5  C   UNL     1     -10.422   7.051 128.352  0.00  0.00    +0.000 C 
ATOM      6  C   UNL     1     -11.123   8.390 128.564  0.00  0.00    +0.000 C 
ATOM      7  C   UNL     1     -12.451   8.223 129.310  0.00  0.00    +0.000 C 
ATOM      8  C   UNL     1     -12.279   7.374 130.572  0.00  0.00    +0.000 C 
ATOM      9  C   UNL     1     -11.556   6.056 130.274  0.00  0.00    +0.000 C 
ENDBRANCH   3   4
ENDBRANCH   1   3
BRANCH   1  10
ATOM     10  S   UNL     1      -6.566   4.068 129.057  0.00  0.00    +0.000 S 
BRANCH  10  11
ATOM     11  C   UNL     1      -6.335   4.250 127.277  0.00  0.00    +0.000 C 
ATOM     12  S   UNL     1      -7.612   4.235 126.173  0.00  0.00    +0.000 S 
BRANCH  11  13
ATOM     13  N   UNL     1      -4.992   4.438 126.863  0.00  0.00    +0.000 N 
ATOM     14  C   UNL     1      -4.326   3.565 125.877  0.00  0.00    +0.000 C 
ATOM     15  C   UNL     1      -3.186   2.752 126.491  0.00  0.00    +0.000 C 
ATOM     16  C   UNL     1      -2.186   3.662 127.201  0.00  0.00    +0.000 C 
ATOM     17  C   UNL     1      -2.899   4.592 128.184  0.00  0.00    +0.000 C 
ATOM     18  C   UNL     1      -4.057   5.363 127.525  0.00  0.00    +0.000 C 
ENDBRANCH  11  13
ENDBRANCH  10  11
ENDBRANCH   1  10
TORSDOF 5
ENDMDL
MODEL 8
REMARK VINA RESULT:      -5.4      2.212      6.285
REMARK  Name = Dipentamethylenethiuram disulfide
REMARK  5 active torsions:
REMARK  status: ('A' for Active; 'I' for Inactive)
REMARK    1  A    between atoms: C_2  and  S_3
REMARK    2  A    between atoms: C_2  and  N_13
REMARK    3  A    between atoms: S_3  and  S_4
REMARK    4  A    between atoms: S_4  and  C_5
REMARK    5  A    between atoms: C_5  and  N_7
REMARK                            x       y       z     vdW  Elec       q    Type
REMARK                         _______ _______ _______ _____ _____    ______ ____
ROOT
ATOM      1  S   UNL     1      -7.712   0.680 126.931  0.00  0.00    +0.000 S 
ENDROOT
BRANCH   1   3
ATOM      2  S   UNL     1      -7.417  -2.136 128.123  0.00  0.00    +0.000 S 
ATOM      3  C   UNL     1      -7.964  -1.106 126.904  0.00  0.00    +0.000 C 
BRANCH   3   4
ATOM      4  N   UNL     1      -8.688  -1.586 125.790  0.00  0.00    +0.000 N 
ATOM      5  C   UNL     1      -9.360  -2.893 125.745  0.00  0.00    +0.000 C 
ATOM      6  C   UNL     1      -8.942  -3.678 124.504  0.00  0.00    +0.000 C 
ATOM      7  C   UNL     1      -9.161  -2.869 123.222  0.00  0.00    +0.000 C 
ATOM      8  C   UNL     1      -8.556  -1.467 123.336  0.00  0.00    +0.000 C 
ATOM      9  C   UNL     1      -9.014  -0.756 124.614  0.00  0.00    +0.000 C 
ENDBRANCH   3   4
ENDBRANCH   1   3
BRANCH   1  10
ATOM     10  S   UNL     1      -5.972   1.149 125.830  0.00  0.00    +0.000 S 
BRANCH  10  11
ATOM     11  C   UNL     1      -5.831   2.943 125.697  0.00  0.00    +0.000 C 
ATOM     12  S   UNL     1      -4.868   3.873 126.724  0.00  0.00    +0.000 S 
BRANCH  11  13
ATOM     13  N   UNL     1      -6.572   3.524 124.638  0.00  0.00    +0.000 N 
ATOM     14  C   UNL     1      -8.048   3.569 124.621  0.00  0.00    +0.000 C 
ATOM     15  C   UNL     1      -8.645   2.710 123.506  0.00  0.00    +0.000 C 
ATOM     16  C   UNL     1      -8.056   3.088 122.148  0.00  0.00    +0.000 C 
ATOM     17  C   UNL     1      -6.527   3.083 122.198  0.00  0.00    +0.000 C 
ATOM     18  C   UNL     1      -5.977   3.936 123.356  0.00  0.00    +0.000 C 
ENDBRANCH  11  13
ENDBRANCH  10  11
ENDBRANCH   1  10
TORSDOF 5
ENDMDL
MODEL 9
REMARK VINA RESULT:      -5.4      1.991      2.882
REMARK  Name = Dipentamethylenethiuram disulfide
REMARK  5 active torsions:
REMARK  status: ('A' for Active; 'I' for Inactive)
REMARK    1  A    between atoms: C_2  and  S_3
REMARK    2  A    between atoms: C_2  and  N_13
REMARK    3  A    between atoms: S_3  and  S_4
REMARK    4  A    between atoms: S_4  and  C_5
REMARK    5  A    between atoms: C_5  and  N_7
REMARK                            x       y       z     vdW  Elec       q    Type
REMARK                         _______ _______ _______ _____ _____    ______ ____
ROOT
ATOM      1  S   UNL     1      -7.786   1.007 126.787  0.00  0.00    +0.000 S 
ENDROOT
BRANCH   1   3
ATOM      2  S   UNL     1      -9.685   1.318 124.391  0.00  0.00    +0.000 S 
ATOM      3  C   UNL     1      -8.164   1.510 125.097  0.00  0.00    +0.000 C 
BRANCH   3   4
ATOM      4  N   UNL     1      -7.091   2.113 124.404  0.00  0.00    +0.000 N 
ATOM      5  C   UNL     1      -5.935   2.742 125.060  0.00  0.00    +0.000 C 
ATOM      6  C   UNL     1      -5.713   4.157 124.532  0.00  0.00    +0.000 C 
ATOM      7  C   UNL     1      -5.596   4.180 123.005  0.00  0.00    +0.000 C 
ATOM      8  C   UNL     1      -6.747   3.416 122.345  0.00  0.00    +0.000 C 
ATOM      9  C   UNL     1      -6.910   2.014 122.942  0.00  0.00    +0.000 C 
ENDBRANCH   3   4
ENDBRANCH   1   3
BRANCH   1  10
ATOM     10  S   UNL     1      -6.366  -0.555 126.742  0.00  0.00    +0.000 S 
BRANCH  10  11
ATOM     11  C   UNL     1      -7.236  -2.135 126.723  0.00  0.00    +0.000 C 
ATOM     12  S   UNL     1      -7.890  -2.848 128.106  0.00  0.00    +0.000 S 
BRANCH  11  13
ATOM     13  N   UNL     1      -7.362  -2.733 125.444  0.00  0.00    +0.000 N 
ATOM     14  C   UNL     1      -6.635  -2.246 124.255  0.00  0.00    +0.000 C 
ATOM     15  C   UNL     1      -7.572  -1.664 123.195  0.00  0.00    +0.000 C 
ATOM     16  C   UNL     1      -8.660  -2.667 122.816  0.00  0.00    +0.000 C 
ATOM     17  C   UNL     1      -9.370  -3.197 124.064  0.00  0.00    +0.000 C 
ATOM     18  C   UNL     1      -8.382  -3.742 125.112  0.00  0.00    +0.000 C 
ENDBRANCH  11  13
ENDBRANCH  10  11
ENDBRANCH   1  10
TORSDOF 5
ENDMDL
