MODEL 1
REMARK VINA RESULT:      -7.5      0.000      0.000
REMARK  Name = Diphenylpyraline
REMARK  5 active torsions:
REMARK  status: ('A' for Active; 'I' for Inactive)
REMARK    1  A    between atoms: C_1  and  N_2
REMARK    2  A    between atoms: C_5  and  O_8
REMARK    3  A    between atoms: O_8  and  C_9
REMARK    4  A    between atoms: C_9  and  C_10
REMARK    5  A    between atoms: C_9  and  C_16
REMARK                            x       y       z     vdW  Elec       q    Type
REMARK                         _______ _______ _______ _____ _____    ______ ____
ROOT
ATOM      1  C   UNL     1      -7.606  -0.984 125.677  0.00  0.00    +0.000 C 
ENDROOT
BRANCH   1   2
ATOM      2  C   UNL     1      -8.018  -1.970 126.804  0.00  0.00    +0.000 A 
ATOM      3  C   UNL     1      -7.756  -1.629 128.097  0.00  0.00    +0.000 A 
ATOM      4  C   UNL     1      -7.554  -2.569 129.090  0.00  0.00    +0.000 A 
ATOM      5  C   UNL     1      -8.340  -3.696 129.021  0.00  0.00    +0.000 A 
ATOM      6  C   UNL     1      -9.087  -3.871 127.871  0.00  0.00    +0.000 A 
ATOM      7  C   UNL     1      -8.808  -3.120 126.711  0.00  0.00    +0.000 A 
ENDBRANCH   1   2
BRANCH   1   8
ATOM      8  C   UNL     1      -6.648  -1.683 124.679  0.00  0.00    +0.000 A 
ATOM      9  C   UNL     1      -6.653  -1.439 123.298  0.00  0.00    +0.000 A 
ATOM     10  C   UNL     1      -5.833  -2.198 122.440  0.00  0.00    +0.000 A 
ATOM     11  C   UNL     1      -4.941  -3.147 122.946  0.00  0.00    +0.000 A 
ATOM     12  C   UNL     1      -4.878  -3.360 124.306  0.00  0.00    +0.000 A 
ATOM     13  C   UNL     1      -5.722  -2.643 125.138  0.00  0.00    +0.000 A 
ENDBRANCH   1   8
BRANCH   1  14
ATOM     14  O   UNL     1      -8.751  -0.437 124.895  0.00  0.00    +0.000 OA
BRANCH  14  19
ATOM     15  C   UNL     1      -7.487   3.093 122.321  0.00  0.00    +0.000 C 
ATOM     16  N   UNL     1      -8.373   2.930 123.505  0.00  0.00    +0.000 NA
ATOM     17  C   UNL     1      -7.605   2.383 124.650  0.00  0.00    +0.000 C 
ATOM     18  C   UNL     1      -8.515   1.887 125.798  0.00  0.00    +0.000 C 
ATOM     19  C   UNL     1      -9.470   0.743 125.360  0.00  0.00    +0.000 C 
ATOM     20  C   UNL     1     -10.285   1.429 124.269  0.00  0.00    +0.000 C 
ATOM     21  C   UNL     1      -9.344   1.911 123.132  0.00  0.00    +0.000 C 
ENDBRANCH  14  19
ENDBRANCH   1  14
TORSDOF 4
ENDMDL
MODEL 2
REMARK VINA RESULT:      -7.5      1.091      4.109
REMARK  Name = Diphenylpyraline
REMARK  5 active torsions:
REMARK  status: ('A' for Active; 'I' for Inactive)
REMARK    1  A    between atoms: C_1  and  N_2
REMARK    2  A    between atoms: C_5  and  O_8
REMARK    3  A    between atoms: O_8  and  C_9
REMARK    4  A    between atoms: C_9  and  C_10
REMARK    5  A    between atoms: C_9  and  C_16
REMARK                            x       y       z     vdW  Elec       q    Type
REMARK                         _______ _______ _______ _____ _____    ______ ____
ROOT
ATOM      1  C   UNL     1      -8.157  -1.904 124.961  0.00  0.00    +0.000 C 
ENDROOT
BRANCH   1   2
ATOM      2  C   UNL     1      -6.916  -2.453 124.205  0.00  0.00    +0.000 A 
ATOM      3  C   UNL     1      -6.599  -3.772 124.343  0.00  0.00    +0.000 A 
ATOM      4  C   UNL     1      -5.308  -4.246 124.210  0.00  0.00    +0.000 A 
ATOM      5  C   UNL     1      -4.546  -3.649 123.233  0.00  0.00    +0.000 A 
ATOM      6  C   UNL     1      -5.064  -2.515 122.638  0.00  0.00    +0.000 A 
ATOM      7  C   UNL     1      -6.145  -1.825 123.223  0.00  0.00    +0.000 A 
ENDBRANCH   1   2
BRANCH   1   8
ATOM      8  C   UNL     1      -8.158  -2.414 126.426  0.00  0.00    +0.000 A 
ATOM      9  C   UNL     1      -7.256  -1.971 127.403  0.00  0.00    +0.000 A 
ATOM     10  C   UNL     1      -7.245  -2.566 128.680  0.00  0.00    +0.000 A 
ATOM     11  C   UNL     1      -8.178  -3.545 129.030  0.00  0.00    +0.000 A 
ATOM     12  C   UNL     1      -9.112  -3.952 128.102  0.00  0.00    +0.000 A 
ATOM     13  C   UNL     1      -9.086  -3.396 126.834  0.00  0.00    +0.000 A 
ENDBRANCH   1   8
BRANCH   1  14
ATOM     14  O   UNL     1      -8.239  -0.417 125.003  0.00  0.00    +0.000 OA
BRANCH  14  19
ATOM     15  C   UNL     1      -7.512   4.071 124.906  0.00  0.00    +0.000 C 
ATOM     16  N   UNL     1      -8.608   3.203 125.415  0.00  0.00    +0.000 NA
ATOM     17  C   UNL     1      -8.088   2.271 126.445  0.00  0.00    +0.000 C 
ATOM     18  C   UNL     1      -9.083   1.135 126.779  0.00  0.00    +0.000 C 
ATOM     19  C   UNL     1      -9.417   0.245 125.550  0.00  0.00    +0.000 C 
ATOM     20  C   UNL     1     -10.042   1.261 124.600  0.00  0.00    +0.000 C 
ATOM     21  C   UNL     1      -9.019   2.384 124.283  0.00  0.00    +0.000 C 
ENDBRANCH  14  19
ENDBRANCH   1  14
TORSDOF 4
ENDMDL
MODEL 3
REMARK VINA RESULT:      -7.3      2.670      6.230
REMARK  Name = Diphenylpyraline
REMARK  5 active torsions:
REMARK  status: ('A' for Active; 'I' for Inactive)
REMARK    1  A    between atoms: C_1  and  N_2
REMARK    2  A    between atoms: C_5  and  O_8
REMARK    3  A    between atoms: O_8  and  C_9
REMARK    4  A    between atoms: C_9  and  C_10
REMARK    5  A    between atoms: C_9  and  C_16
REMARK                            x       y       z     vdW  Elec       q    Type
REMARK                         _______ _______ _______ _____ _____    ______ ____
ROOT
ATOM      1  C   UNL     1      -7.781   3.041 123.127  0.00  0.00    +0.000 C 
ENDROOT
BRANCH   1   2
ATOM      2  C   UNL     1      -6.804   3.246 124.317  0.00  0.00    +0.000 A 
ATOM      3  C   UNL     1      -6.820   4.439 124.976  0.00  0.00    +0.000 A 
ATOM      4  C   UNL     1      -5.713   4.946 125.628  0.00  0.00    +0.000 A 
ATOM      5  C   UNL     1      -4.927   4.025 126.283  0.00  0.00    +0.000 A 
ATOM      6  C   UNL     1      -5.196   2.690 126.049  0.00  0.00    +0.000 A 
ATOM      7  C   UNL     1      -6.002   2.299 124.960  0.00  0.00    +0.000 A 
ENDBRANCH   1   2
BRANCH   1   8
ATOM      8  C   UNL     1      -7.151   3.585 121.819  0.00  0.00    +0.000 A 
ATOM      9  C   UNL     1      -5.802   3.954 121.701  0.00  0.00    +0.000 A 
ATOM     10  C   UNL     1      -5.331   4.548 120.515  0.00  0.00    +0.000 A 
ATOM     11  C   UNL     1      -6.165   4.710 119.405  0.00  0.00    +0.000 A 
ATOM     12  C   UNL     1      -7.478   4.300 119.481  0.00  0.00    +0.000 A 
ATOM     13  C   UNL     1      -7.946   3.759 120.667  0.00  0.00    +0.000 A 
ENDBRANCH   1   8
BRANCH   1  14
ATOM     14  O   UNL     1      -8.161   1.620 122.886  0.00  0.00    +0.000 OA
BRANCH  14  19
ATOM     15  C   UNL     1      -8.506  -1.567 126.111  0.00  0.00    +0.000 C 
ATOM     16  N   UNL     1      -9.455  -0.959 125.140  0.00  0.00    +0.000 NA
ATOM     17  C   UNL     1      -8.987  -1.190 123.751  0.00  0.00    +0.000 C 
ATOM     18  C   UNL     1      -9.737  -0.319 122.716  0.00  0.00    +0.000 C 
ATOM     19  C   UNL     1      -9.556   1.203 122.964  0.00  0.00    +0.000 C 
ATOM     20  C   UNL     1     -10.161   1.359 124.354  0.00  0.00    +0.000 C 
ATOM     21  C   UNL     1      -9.386   0.477 125.369  0.00  0.00    +0.000 C 
ENDBRANCH  14  19
ENDBRANCH   1  14
TORSDOF 4
ENDMDL
MODEL 4
REMARK VINA RESULT:      -7.0      1.361      1.631
REMARK  Name = Diphenylpyraline
REMARK  5 active torsions:
REMARK  status: ('A' for Active; 'I' for Inactive)
REMARK    1  A    between atoms: C_1  and  N_2
REMARK    2  A    between atoms: C_5  and  O_8
REMARK    3  A    between atoms: O_8  and  C_9
REMARK    4  A    between atoms: C_9  and  C_10
REMARK    5  A    between atoms: C_9  and  C_16
REMARK                            x       y       z     vdW  Elec       q    Type
REMARK                         _______ _______ _______ _____ _____    ______ ____
ROOT
ATOM      1  C   UNL     1      -6.496  -1.145 126.416  0.00  0.00    +0.000 C 
ENDROOT
BRANCH   1   2
ATOM      2  C   UNL     1      -7.488  -2.133 127.086  0.00  0.00    +0.000 A 
ATOM      3  C   UNL     1      -7.547  -2.176 128.447  0.00  0.00    +0.000 A 
ATOM      4  C   UNL     1      -7.927  -3.309 129.142  0.00  0.00    +0.000 A 
ATOM      5  C   UNL     1      -8.937  -4.051 128.576  0.00  0.00    +0.000 A 
ATOM      6  C   UNL     1      -9.317  -3.717 127.290  0.00  0.00    +0.000 A 
ATOM      7  C   UNL     1      -8.501  -2.891 126.491  0.00  0.00    +0.000 A 
ENDBRANCH   1   2
BRANCH   1   8
ATOM      8  C   UNL     1      -6.134  -1.636 124.991  0.00  0.00    +0.000 A 
ATOM      9  C   UNL     1      -6.645  -1.061 123.818  0.00  0.00    +0.000 A 
ATOM     10  C   UNL     1      -6.360  -1.636 122.564  0.00  0.00    +0.000 A 
ATOM     11  C   UNL     1      -5.503  -2.733 122.449  0.00  0.00    +0.000 A 
ATOM     12  C   UNL     1      -4.943  -3.277 123.585  0.00  0.00    +0.000 A 
ATOM     13  C   UNL     1      -5.265  -2.734 124.818  0.00  0.00    +0.000 A 
ENDBRANCH   1   8
BRANCH   1  14
ATOM     14  O   UNL     1      -7.009   0.249 126.294  0.00  0.00    +0.000 OA
BRANCH  14  19
ATOM     15  C   UNL     1      -7.675   4.689 125.568  0.00  0.00    +0.000 C 
ATOM     16  N   UNL     1      -8.501   3.590 126.137  0.00  0.00    +0.000 NA
ATOM     17  C   UNL     1      -7.830   3.005 127.323  0.00  0.00    +0.000 C 
ATOM     18  C   UNL     1      -8.461   1.664 127.765  0.00  0.00    +0.000 C 
ATOM     19  C   UNL     1      -8.382   0.569 126.667  0.00  0.00    +0.000 C 
ATOM     20  C   UNL     1      -9.186   1.209 125.541  0.00  0.00    +0.000 C 
ATOM     21  C   UNL     1      -8.526   2.549 125.119  0.00  0.00    +0.000 C 
ENDBRANCH  14  19
ENDBRANCH   1  14
TORSDOF 4
ENDMDL
MODEL 5
REMARK VINA RESULT:      -6.9      3.441      6.562
REMARK  Name = Diphenylpyraline
REMARK  5 active torsions:
REMARK  status: ('A' for Active; 'I' for Inactive)
REMARK    1  A    between atoms: C_1  and  N_2
REMARK    2  A    between atoms: C_5  and  O_8
REMARK    3  A    between atoms: O_8  and  C_9
REMARK    4  A    between atoms: C_9  and  C_10
REMARK    5  A    between atoms: C_9  and  C_16
REMARK                            x       y       z     vdW  Elec       q    Type
REMARK                         _______ _______ _______ _____ _____    ______ ____
ROOT
ATOM      1  C   UNL     1      -7.611   2.672 123.339  0.00  0.00    +0.000 C 
ENDROOT
BRANCH   1   2
ATOM      2  C   UNL     1      -7.285   3.285 121.949  0.00  0.00    +0.000 A 
ATOM      3  C   UNL     1      -5.987   3.309 121.536  0.00  0.00    +0.000 A 
ATOM      4  C   UNL     1      -5.503   4.257 120.655  0.00  0.00    +0.000 A 
ATOM      5  C   UNL     1      -6.356   4.628 119.641  0.00  0.00    +0.000 A 
ATOM      6  C   UNL     1      -7.662   4.186 119.727  0.00  0.00    +0.000 A 
ATOM      7  C   UNL     1      -8.169   3.669 120.937  0.00  0.00    +0.000 A 
ENDBRANCH   1   2
BRANCH   1   8
ATOM      8  C   UNL     1      -7.992   1.177 123.187  0.00  0.00    +0.000 A 
ATOM      9  C   UNL     1      -9.299   0.729 122.949  0.00  0.00    +0.000 A 
ATOM     10  C   UNL     1      -9.586  -0.650 122.938  0.00  0.00    +0.000 A 
ATOM     11  C   UNL     1      -8.572  -1.601 123.081  0.00  0.00    +0.000 A 
ATOM     12  C   UNL     1      -7.271  -1.181 123.257  0.00  0.00    +0.000 A 
ATOM     13  C   UNL     1      -7.005   0.177 123.313  0.00  0.00    +0.000 A 
ENDBRANCH   1   8
BRANCH   1  14
ATOM     14  O   UNL     1      -6.494   2.754 124.321  0.00  0.00    +0.000 OA
BRANCH  14  19
ATOM     15  C   UNL     1      -2.530   3.407 126.453  0.00  0.00    +0.000 C 
ATOM     16  N   UNL     1      -3.945   3.280 126.897  0.00  0.00    +0.000 NA
ATOM     17  C   UNL     1      -4.494   1.963 126.490  0.00  0.00    +0.000 C 
ATOM     18  C   UNL     1      -6.033   1.891 126.626  0.00  0.00    +0.000 C 
ATOM     19  C   UNL     1      -6.767   2.935 125.742  0.00  0.00    +0.000 C 
ATOM     20  C   UNL     1      -6.227   4.244 126.305  0.00  0.00    +0.000 C 
ATOM     21  C   UNL     1      -4.683   4.287 126.150  0.00  0.00    +0.000 C 
ENDBRANCH  14  19
ENDBRANCH   1  14
TORSDOF 4
ENDMDL
MODEL 6
REMARK VINA RESULT:      -6.8      1.848      4.754
REMARK  Name = Diphenylpyraline
REMARK  5 active torsions:
REMARK  status: ('A' for Active; 'I' for Inactive)
REMARK    1  A    between atoms: C_1  and  N_2
REMARK    2  A    between atoms: C_5  and  O_8
REMARK    3  A    between atoms: O_8  and  C_9
REMARK    4  A    between atoms: C_9  and  C_10
REMARK    5  A    between atoms: C_9  and  C_16
REMARK                            x       y       z     vdW  Elec       q    Type
REMARK                         _______ _______ _______ _____ _____    ______ ____
ROOT
ATOM      1  C   UNL     1      -8.032  -1.022 125.374  0.00  0.00    +0.000 C 
ENDROOT
BRANCH   1   2
ATOM      2  C   UNL     1      -7.038  -1.737 124.419  0.00  0.00    +0.000 A 
ATOM      3  C   UNL     1      -6.378  -2.840 124.871  0.00  0.00    +0.000 A 
ATOM      4  C   UNL     1      -5.140  -3.218 124.388  0.00  0.00    +0.000 A 
ATOM      5  C   UNL     1      -4.938  -3.035 123.040  0.00  0.00    +0.000 A 
ATOM      6  C   UNL     1      -5.894  -2.308 122.356  0.00  0.00    +0.000 A 
ATOM      7  C   UNL     1      -6.838  -1.526 123.052  0.00  0.00    +0.000 A 
ENDBRANCH   1   2
BRANCH   1   8
ATOM      8  C   UNL     1      -8.212  -1.849 126.674  0.00  0.00    +0.000 A 
ATOM      9  C   UNL     1      -7.674  -1.474 127.913  0.00  0.00    +0.000 A 
ATOM     10  C   UNL     1      -7.783  -2.335 129.023  0.00  0.00    +0.000 A 
ATOM     11  C   UNL     1      -8.493  -3.535 128.941  0.00  0.00    +0.000 A 
ATOM     12  C   UNL     1      -9.079  -3.894 127.747  0.00  0.00    +0.000 A 
ATOM     13  C   UNL     1      -8.929  -3.064 126.648  0.00  0.00    +0.000 A 
ENDBRANCH   1   8
BRANCH   1  14
ATOM     14  O   UNL     1      -7.617   0.354 125.770  0.00  0.00    +0.000 OA
BRANCH  14  19
ATOM     15  C   UNL     1      -6.405   3.685 128.619  0.00  0.00    +0.000 C 
ATOM     16  N   UNL     1      -5.841   3.135 127.357  0.00  0.00    +0.000 NA
ATOM     17  C   UNL     1      -6.826   3.263 126.255  0.00  0.00    +0.000 C 
ATOM     18  C   UNL     1      -6.441   2.430 125.010  0.00  0.00    +0.000 C 
ATOM     19  C   UNL     1      -6.351   0.909 125.307  0.00  0.00    +0.000 C 
ATOM     20  C   UNL     1      -5.247   0.868 126.357  0.00  0.00    +0.000 C 
ATOM     21  C   UNL     1      -5.665   1.709 127.593  0.00  0.00    +0.000 C 
ENDBRANCH  14  19
ENDBRANCH   1  14
TORSDOF 4
ENDMDL
MODEL 7
REMARK VINA RESULT:      -6.5      7.346      9.924
REMARK  Name = Diphenylpyraline
REMARK  5 active torsions:
REMARK  status: ('A' for Active; 'I' for Inactive)
REMARK    1  A    between atoms: C_1  and  N_2
REMARK    2  A    between atoms: C_5  and  O_8
REMARK    3  A    between atoms: O_8  and  C_9
REMARK    4  A    between atoms: C_9  and  C_10
REMARK    5  A    between atoms: C_9  and  C_16
REMARK                            x       y       z     vdW  Elec       q    Type
REMARK                         _______ _______ _______ _____ _____    ______ ____
ROOT
ATOM      1  C   UNL     1      -8.810   6.028 131.442  0.00  0.00    +0.000 C 
ENDROOT
BRANCH   1   2
ATOM      2  C   UNL     1     -10.116   6.651 130.878  0.00  0.00    +0.000 A 
ATOM      3  C   UNL     1     -10.116   7.117 129.597  0.00  0.00    +0.000 A 
ATOM      4  C   UNL     1     -10.950   8.134 129.173  0.00  0.00    +0.000 A 
ATOM      5  C   UNL     1     -12.220   8.130 129.702  0.00  0.00    +0.000 A 
ATOM      6  C   UNL     1     -12.463   7.256 130.744  0.00  0.00    +0.000 A 
ATOM      7  C   UNL     1     -11.396   6.650 131.438  0.00  0.00    +0.000 A 
ENDBRANCH   1   2
BRANCH   1   8
ATOM      8  C   UNL     1      -8.953   4.487 131.540  0.00  0.00    +0.000 A 
ATOM      9  C   UNL     1      -8.882   3.629 130.434  0.00  0.00    +0.000 A 
ATOM     10  C   UNL     1      -9.137   2.252 130.587  0.00  0.00    +0.000 A 
ATOM     11  C   UNL     1      -9.383   1.697 131.845  0.00  0.00    +0.000 A 
ATOM     12  C   UNL     1      -9.400   2.515 132.953  0.00  0.00    +0.000 A 
ATOM     13  C   UNL     1      -9.194   3.875 132.788  0.00  0.00    +0.000 A 
ENDBRANCH   1   8
BRANCH   1  14
ATOM     14  O   UNL     1      -7.594   6.316 130.630  0.00  0.00    +0.000 OA
BRANCH  14  19
ATOM     15  C   UNL     1      -4.122   3.389 130.388  0.00  0.00    +0.000 C 
ATOM     16  N   UNL     1      -4.309   4.738 130.987  0.00  0.00    +0.000 NA
ATOM     17  C   UNL     1      -5.391   4.705 132.001  0.00  0.00    +0.000 C 
ATOM     18  C   UNL     1      -5.857   6.118 132.423  0.00  0.00    +0.000 C 
ATOM     19  C   UNL     1      -6.428   6.944 131.239  0.00  0.00    +0.000 C 
ATOM     20  C   UNL     1      -5.222   7.019 130.310  0.00  0.00    +0.000 C 
ATOM     21  C   UNL     1      -4.782   5.587 129.902  0.00  0.00    +0.000 C 
ENDBRANCH  14  19
ENDBRANCH   1  14
TORSDOF 4
ENDMDL
MODEL 8
REMARK VINA RESULT:      -6.4      6.439      9.218
REMARK  Name = Diphenylpyraline
REMARK  5 active torsions:
REMARK  status: ('A' for Active; 'I' for Inactive)
REMARK    1  A    between atoms: C_1  and  N_2
REMARK    2  A    between atoms: C_5  and  O_8
REMARK    3  A    between atoms: O_8  and  C_9
REMARK    4  A    between atoms: C_9  and  C_10
REMARK    5  A    between atoms: C_9  and  C_16
REMARK                            x       y       z     vdW  Elec       q    Type
REMARK                         _______ _______ _______ _____ _____    ______ ____
ROOT
ATOM      1  C   UNL     1     -10.359   4.458 130.821  0.00  0.00    +0.000 C 
ENDROOT
BRANCH   1   2
ATOM      2  C   UNL     1      -9.449   4.671 132.060  0.00  0.00    +0.000 A 
ATOM      3  C   UNL     1      -8.747   5.834 132.162  0.00  0.00    +0.000 A 
ATOM      4  C   UNL     1      -7.553   5.927 132.852  0.00  0.00    +0.000 A 
ATOM      5  C   UNL     1      -7.470   5.192 134.012  0.00  0.00    +0.000 A 
ATOM      6  C   UNL     1      -8.485   4.286 134.255  0.00  0.00    +0.000 A 
ATOM      7  C   UNL     1      -9.369   3.903 133.226  0.00  0.00    +0.000 A 
ENDBRANCH   1   2
BRANCH   1   8
ATOM      8  C   UNL     1     -11.000   5.803 130.391  0.00  0.00    +0.000 A 
ATOM      9  C   UNL     1     -10.548   6.567 129.305  0.00  0.00    +0.000 A 
ATOM     10  C   UNL     1     -11.107   7.834 129.048  0.00  0.00    +0.000 A 
ATOM     11  C   UNL     1     -12.172   8.323 129.809  0.00  0.00    +0.000 A 
ATOM     12  C   UNL     1     -12.670   7.561 130.844  0.00  0.00    +0.000 A 
ATOM     13  C   UNL     1     -12.084   6.337 131.119  0.00  0.00    +0.000 A 
ENDBRANCH   1   8
BRANCH   1  14
ATOM     14  O   UNL     1      -9.654   3.896 129.633  0.00  0.00    +0.000 OA
BRANCH  14  19
ATOM     15  C   UNL     1      -8.191   2.764 125.479  0.00  0.00    +0.000 C 
ATOM     16  N   UNL     1      -7.634   2.633 126.853  0.00  0.00    +0.000 NA
ATOM     17  C   UNL     1      -8.538   1.814 127.697  0.00  0.00    +0.000 C 
ATOM     18  C   UNL     1      -8.195   1.907 129.202  0.00  0.00    +0.000 C 
ATOM     19  C   UNL     1      -8.308   3.352 129.760  0.00  0.00    +0.000 C 
ATOM     20  C   UNL     1      -7.273   4.085 128.914  0.00  0.00    +0.000 C 
ATOM     21  C   UNL     1      -7.647   3.977 127.412  0.00  0.00    +0.000 C 
ENDBRANCH  14  19
ENDBRANCH   1  14
TORSDOF 4
ENDMDL
MODEL 9
REMARK VINA RESULT:      -6.4      2.263      2.959
REMARK  Name = Diphenylpyraline
REMARK  5 active torsions:
REMARK  status: ('A' for Active; 'I' for Inactive)
REMARK    1  A    between atoms: C_1  and  N_2
REMARK    2  A    between atoms: C_5  and  O_8
REMARK    3  A    between atoms: O_8  and  C_9
REMARK    4  A    between atoms: C_9  and  C_10
REMARK    5  A    between atoms: C_9  and  C_16
REMARK                            x       y       z     vdW  Elec       q    Type
REMARK                         _______ _______ _______ _____ _____    ______ ____
ROOT
ATOM      1  C   UNL     1      -5.742  -1.052 126.655  0.00  0.00    +0.000 C 
ENDROOT
BRANCH   1   2
ATOM      2  C   UNL     1      -6.635  -1.950 127.553  0.00  0.00    +0.000 A 
ATOM      3  C   UNL     1      -6.365  -2.012 128.887  0.00  0.00    +0.000 A 
ATOM      4  C   UNL     1      -6.676  -3.115 129.660  0.00  0.00    +0.000 A 
ATOM      5  C   UNL     1      -7.863  -3.744 129.362  0.00  0.00    +0.000 A 
ATOM      6  C   UNL     1      -8.508  -3.350 128.205  0.00  0.00    +0.000 A 
ATOM      7  C   UNL     1      -7.833  -2.593 127.227  0.00  0.00    +0.000 A 
ENDBRANCH   1   2
BRANCH   1   8
ATOM      8  C   UNL     1      -5.850  -1.500 125.175  0.00  0.00    +0.000 A 
ATOM      9  C   UNL     1      -5.227  -2.648 124.664  0.00  0.00    +0.000 A 
ATOM     10  C   UNL     1      -5.276  -2.927 123.284  0.00  0.00    +0.000 A 
ATOM     11  C   UNL     1      -6.008  -2.122 122.409  0.00  0.00    +0.000 A 
ATOM     12  C   UNL     1      -6.677  -1.022 122.900  0.00  0.00    +0.000 A 
ATOM     13  C   UNL     1      -6.586  -0.728 124.251  0.00  0.00    +0.000 A 
ENDBRANCH   1   8
BRANCH   1  14
ATOM     14  O   UNL     1      -6.081   0.399 126.711  0.00  0.00    +0.000 OA
BRANCH  14  19
ATOM     15  C   UNL     1      -7.357   4.590 125.491  0.00  0.00    +0.000 C 
ATOM     16  N   UNL     1      -6.228   4.033 126.285  0.00  0.00    +0.000 NA
ATOM     17  C   UNL     1      -5.425   3.103 125.453  0.00  0.00    +0.000 C 
ATOM     18  C   UNL     1      -4.445   2.248 126.291  0.00  0.00    +0.000 C 
ATOM     19  C   UNL     1      -5.166   1.350 127.332  0.00  0.00    +0.000 C 
ATOM     20  C   UNL     1      -5.866   2.390 128.199  0.00  0.00    +0.000 C 
ATOM     21  C   UNL     1      -6.843   3.228 127.331  0.00  0.00    +0.000 C 
ENDBRANCH  14  19
ENDBRANCH   1  14
TORSDOF 4
ENDMDL
