MODEL 1
REMARK VINA RESULT:      -7.8      0.000      0.000
REMARK  Name = Diphenidol
REMARK  7 active torsions:
REMARK  status: ('A' for Active; 'I' for Inactive)
REMARK    1  A    between atoms: O_1  and  C_2
REMARK    2  A    between atoms: C_2  and  C_3
REMARK    3  A    between atoms: C_2  and  C_12
REMARK    4  A    between atoms: C_2  and  C_18
REMARK    5  A    between atoms: C_3  and  C_4
REMARK    6  A    between atoms: C_4  and  C_5
REMARK    7  A    between atoms: C_5  and  N_6
REMARK                            x       y       z     vdW  Elec       q    Type
REMARK                         _______ _______ _______ _____ _____    ______ ____
ROOT
ATOM      1  C   UNL     1      -8.145  -1.224 125.367  0.00  0.00    +0.000 C 
ENDROOT
BRANCH   1   2
ATOM      2  C   UNL     1      -8.327  -1.967 126.709  0.00  0.00    +0.000 A 
ATOM      3  C   UNL     1      -7.773  -1.465 127.906  0.00  0.00    +0.000 A 
ATOM      4  C   UNL     1      -7.797  -2.198 129.091  0.00  0.00    +0.000 A 
ATOM      5  C   UNL     1      -8.428  -3.424 129.132  0.00  0.00    +0.000 A 
ATOM      6  C   UNL     1      -9.029  -3.932 127.984  0.00  0.00    +0.000 A 
ATOM      7  C   UNL     1      -8.965  -3.213 126.788  0.00  0.00    +0.000 A 
ENDBRANCH   1   2
BRANCH   1   8
ATOM      8  C   UNL     1      -7.004  -1.801 124.499  0.00  0.00    +0.000 A 
ATOM      9  C   UNL     1      -6.975  -1.532 123.118  0.00  0.00    +0.000 A 
ATOM     10  C   UNL     1      -6.052  -2.158 122.280  0.00  0.00    +0.000 A 
ATOM     11  C   UNL     1      -5.024  -2.912 122.826  0.00  0.00    +0.000 A 
ATOM     12  C   UNL     1      -4.965  -3.113 124.200  0.00  0.00    +0.000 A 
ATOM     13  C   UNL     1      -5.985  -2.621 125.015  0.00  0.00    +0.000 A 
ENDBRANCH   1   8
BRANCH   1  14
ATOM     14  O   UNL     1      -9.373  -1.403 124.637  0.00  0.00    +0.000 OA
ATOM     15  H   UNL     1      -9.144  -1.837 123.799  0.00  0.00    +0.000 HD
ENDBRANCH   1  14
BRANCH   1  16
ATOM     16  C   UNL     1      -8.006   0.306 125.593  0.00  0.00    +0.000 C 
BRANCH  16  17
ATOM     17  C   UNL     1      -8.860   1.125 124.638  0.00  0.00    +0.000 C 
BRANCH  17  18
ATOM     18  C   UNL     1      -8.709   2.607 124.935  0.00  0.00    +0.000 C 
BRANCH  18  19
ATOM     19  N   UNL     1      -8.137   3.301 123.780  0.00  0.00    +0.000 NA
ATOM     20  C   UNL     1      -6.675   3.178 123.815  0.00  0.00    +0.000 C 
ATOM     21  C   UNL     1      -6.049   3.965 122.670  0.00  0.00    +0.000 C 
ATOM     22  C   UNL     1      -6.597   3.511 121.321  0.00  0.00    +0.000 C 
ATOM     23  C   UNL     1      -8.115   3.548 121.321  0.00  0.00    +0.000 C 
ATOM     24  C   UNL     1      -8.672   2.780 122.508  0.00  0.00    +0.000 C 
ENDBRANCH  18  19
ENDBRANCH  17  18
ENDBRANCH  16  17
ENDBRANCH   1  16
TORSDOF 7
ENDMDL
MODEL 2
REMARK VINA RESULT:      -7.7      2.664      7.493
REMARK  Name = Diphenidol
REMARK  7 active torsions:
REMARK  status: ('A' for Active; 'I' for Inactive)
REMARK    1  A    between atoms: O_1  and  C_2
REMARK    2  A    between atoms: C_2  and  C_3
REMARK    3  A    between atoms: C_2  and  C_12
REMARK    4  A    between atoms: C_2  and  C_18
REMARK    5  A    between atoms: C_3  and  C_4
REMARK    6  A    between atoms: C_4  and  C_5
REMARK    7  A    between atoms: C_5  and  N_6
REMARK                            x       y       z     vdW  Elec       q    Type
REMARK                         _______ _______ _______ _____ _____    ______ ____
ROOT
ATOM      1  C   UNL     1      -7.006   3.161 123.393  0.00  0.00    +0.000 C 
ENDROOT
BRANCH   1   2
ATOM      2  C   UNL     1      -6.468   3.715 122.056  0.00  0.00    +0.000 A 
ATOM      3  C   UNL     1      -5.195   4.318 121.971  0.00  0.00    +0.000 A 
ATOM      4  C   UNL     1      -4.760   4.958 120.812  0.00  0.00    +0.000 A 
ATOM      5  C   UNL     1      -5.556   4.961 119.685  0.00  0.00    +0.000 A 
ATOM      6  C   UNL     1      -6.799   4.335 119.713  0.00  0.00    +0.000 A 
ATOM      7  C   UNL     1      -7.248   3.732 120.890  0.00  0.00    +0.000 A 
ENDBRANCH   1   2
BRANCH   1   8
ATOM      8  C   UNL     1      -6.150   3.570 124.613  0.00  0.00    +0.000 A 
ATOM      9  C   UNL     1      -5.351   2.608 125.258  0.00  0.00    +0.000 A 
ATOM     10  C   UNL     1      -4.686   2.902 126.448  0.00  0.00    +0.000 A 
ATOM     11  C   UNL     1      -4.649   4.208 126.914  0.00  0.00    +0.000 A 
ATOM     12  C   UNL     1      -5.345   5.205 126.241  0.00  0.00    +0.000 A 
ATOM     13  C   UNL     1      -6.142   4.872 125.145  0.00  0.00    +0.000 A 
ENDBRANCH   1   8
BRANCH   1  14
ATOM     14  O   UNL     1      -8.313   3.740 123.573  0.00  0.00    +0.000 OA
ATOM     15  H   UNL     1      -8.826   3.119 124.113  0.00  0.00    +0.000 HD
ENDBRANCH   1  14
BRANCH   1  16
ATOM     16  C   UNL     1      -7.231   1.627 123.310  0.00  0.00    +0.000 C 
BRANCH  16  17
ATOM     17  C   UNL     1      -8.393   1.152 124.168  0.00  0.00    +0.000 C 
BRANCH  17  18
ATOM     18  C   UNL     1      -9.363   0.334 123.334  0.00  0.00    +0.000 C 
BRANCH  18  19
ATOM     19  N   UNL     1      -9.578  -0.979 123.943  0.00  0.00    +0.000 NA
ATOM     20  C   UNL     1      -9.077  -2.021 123.039  0.00  0.00    +0.000 C 
ATOM     21  C   UNL     1      -9.366  -3.404 123.612  0.00  0.00    +0.000 C 
ATOM     22  C   UNL     1      -8.765  -3.563 125.005  0.00  0.00    +0.000 C 
ATOM     23  C   UNL     1      -9.209  -2.429 125.911  0.00  0.00    +0.000 C 
ATOM     24  C   UNL     1      -8.930  -1.082 125.264  0.00  0.00    +0.000 C 
ENDBRANCH  18  19
ENDBRANCH  17  18
ENDBRANCH  16  17
ENDBRANCH   1  16
TORSDOF 7
ENDMDL
MODEL 3
REMARK VINA RESULT:      -7.7      0.693      1.576
REMARK  Name = Diphenidol
REMARK  7 active torsions:
REMARK  status: ('A' for Active; 'I' for Inactive)
REMARK    1  A    between atoms: O_1  and  C_2
REMARK    2  A    between atoms: C_2  and  C_3
REMARK    3  A    between atoms: C_2  and  C_12
REMARK    4  A    between atoms: C_2  and  C_18
REMARK    5  A    between atoms: C_3  and  C_4
REMARK    6  A    between atoms: C_4  and  C_5
REMARK    7  A    between atoms: C_5  and  N_6
REMARK                            x       y       z     vdW  Elec       q    Type
REMARK                         _______ _______ _______ _____ _____    ______ ____
ROOT
ATOM      1  C   UNL     1      -8.316  -1.402 125.325  0.00  0.00    +0.000 C 
ENDROOT
BRANCH   1   2
ATOM      2  C   UNL     1      -8.419  -2.106 126.696  0.00  0.00    +0.000 A 
ATOM      3  C   UNL     1      -7.795  -1.571 127.844  0.00  0.00    +0.000 A 
ATOM      4  C   UNL     1      -7.749  -2.269 129.049  0.00  0.00    +0.000 A 
ATOM      5  C   UNL     1      -8.376  -3.493 129.162  0.00  0.00    +0.000 A 
ATOM      6  C   UNL     1      -9.043  -4.033 128.067  0.00  0.00    +0.000 A 
ATOM      7  C   UNL     1      -9.050  -3.349 126.849  0.00  0.00    +0.000 A 
ENDBRANCH   1   2
BRANCH   1   8
ATOM      8  C   UNL     1      -7.179  -1.956 124.438  0.00  0.00    +0.000 A 
ATOM      9  C   UNL     1      -6.295  -2.921 124.959  0.00  0.00    +0.000 A 
ATOM     10  C   UNL     1      -5.171  -3.331 124.243  0.00  0.00    +0.000 A 
ATOM     11  C   UNL     1      -5.009  -2.933 122.924  0.00  0.00    +0.000 A 
ATOM     12  C   UNL     1      -5.922  -2.060 122.345  0.00  0.00    +0.000 A 
ATOM     13  C   UNL     1      -6.953  -1.525 123.119  0.00  0.00    +0.000 A 
ENDBRANCH   1   8
BRANCH   1  14
ATOM     14  O   UNL     1      -9.558  -1.663 124.644  0.00  0.00    +0.000 OA
ATOM     15  H   UNL     1     -10.128  -2.140 125.268  0.00  0.00    +0.000 HD
ENDBRANCH   1  14
BRANCH   1  16
ATOM     16  C   UNL     1      -8.242   0.139 125.496  0.00  0.00    +0.000 C 
BRANCH  16  17
ATOM     17  C   UNL     1      -9.601   0.812 125.390  0.00  0.00    +0.000 C 
BRANCH  17  18
ATOM     18  C   UNL     1      -9.535   1.985 124.427  0.00  0.00    +0.000 C 
BRANCH  18  19
ATOM     19  N   UNL     1      -8.142   2.328 124.137  0.00  0.00    +0.000 NA
ATOM     20  C   UNL     1      -7.973   2.486 122.688  0.00  0.00    +0.000 C 
ATOM     21  C   UNL     1      -6.512   2.760 122.351  0.00  0.00    +0.000 C 
ATOM     22  C   UNL     1      -5.993   3.988 123.092  0.00  0.00    +0.000 C 
ATOM     23  C   UNL     1      -6.256   3.863 124.582  0.00  0.00    +0.000 C 
ATOM     24  C   UNL     1      -7.720   3.551 124.846  0.00  0.00    +0.000 C 
ENDBRANCH  18  19
ENDBRANCH  17  18
ENDBRANCH  16  17
ENDBRANCH   1  16
TORSDOF 7
ENDMDL
MODEL 4
REMARK VINA RESULT:      -7.6      2.042      5.716
REMARK  Name = Diphenidol
REMARK  7 active torsions:
REMARK  status: ('A' for Active; 'I' for Inactive)
REMARK    1  A    between atoms: O_1  and  C_2
REMARK    2  A    between atoms: C_2  and  C_3
REMARK    3  A    between atoms: C_2  and  C_12
REMARK    4  A    between atoms: C_2  and  C_18
REMARK    5  A    between atoms: C_3  and  C_4
REMARK    6  A    between atoms: C_4  and  C_5
REMARK    7  A    between atoms: C_5  and  N_6
REMARK                            x       y       z     vdW  Elec       q    Type
REMARK                         _______ _______ _______ _____ _____    ______ ____
ROOT
ATOM      1  C   UNL     1      -7.602   2.126 123.606  0.00  0.00    +0.000 C 
ENDROOT
BRANCH   1   2
ATOM      2  C   UNL     1      -7.833   0.612 123.398  0.00  0.00    +0.000 A 
ATOM      3  C   UNL     1      -6.751  -0.279 123.236  0.00  0.00    +0.000 A 
ATOM      4  C   UNL     1      -6.944  -1.617 122.896  0.00  0.00    +0.000 A 
ATOM      5  C   UNL     1      -8.223  -2.118 122.768  0.00  0.00    +0.000 A 
ATOM      6  C   UNL     1      -9.318  -1.283 122.967  0.00  0.00    +0.000 A 
ATOM      7  C   UNL     1      -9.118   0.067 123.266  0.00  0.00    +0.000 A 
ENDBRANCH   1   2
BRANCH   1   8
ATOM      8  C   UNL     1      -7.444   2.906 122.282  0.00  0.00    +0.000 A 
ATOM      9  C   UNL     1      -8.589   3.347 121.591  0.00  0.00    +0.000 A 
ATOM     10  C   UNL     1      -8.492   3.919 120.323  0.00  0.00    +0.000 A 
ATOM     11  C   UNL     1      -7.245   4.236 119.802  0.00  0.00    +0.000 A 
ATOM     12  C   UNL     1      -6.094   3.907 120.508  0.00  0.00    +0.000 A 
ATOM     13  C   UNL     1      -6.195   3.187 121.699  0.00  0.00    +0.000 A 
ENDBRANCH   1   8
BRANCH   1  14
ATOM     14  O   UNL     1      -8.783   2.627 124.261  0.00  0.00    +0.000 OA
ATOM     15  H   UNL     1      -9.539   2.145 123.889  0.00  0.00    +0.000 HD
ENDBRANCH   1  14
BRANCH   1  16
ATOM     16  C   UNL     1      -6.431   2.379 124.592  0.00  0.00    +0.000 C 
BRANCH  16  17
ATOM     17  C   UNL     1      -6.898   2.865 125.954  0.00  0.00    +0.000 C 
BRANCH  17  18
ATOM     18  C   UNL     1      -6.470   1.889 127.037  0.00  0.00    +0.000 C 
BRANCH  18  19
ATOM     19  N   UNL     1      -6.692   0.511 126.597  0.00  0.00    +0.000 NA
ATOM     20  C   UNL     1      -5.575  -0.327 127.050  0.00  0.00    +0.000 C 
ATOM     21  C   UNL     1      -5.738  -1.752 126.531  0.00  0.00    +0.000 C 
ATOM     22  C   UNL     1      -7.072  -2.350 126.964  0.00  0.00    +0.000 C 
ATOM     23  C   UNL     1      -8.219  -1.432 126.579  0.00  0.00    +0.000 C 
ATOM     24  C   UNL     1      -7.975  -0.022 127.091  0.00  0.00    +0.000 C 
ENDBRANCH  18  19
ENDBRANCH  17  18
ENDBRANCH  16  17
ENDBRANCH   1  16
TORSDOF 7
ENDMDL
MODEL 5
REMARK VINA RESULT:      -7.6      2.361      6.546
REMARK  Name = Diphenidol
REMARK  7 active torsions:
REMARK  status: ('A' for Active; 'I' for Inactive)
REMARK    1  A    between atoms: O_1  and  C_2
REMARK    2  A    between atoms: C_2  and  C_3
REMARK    3  A    between atoms: C_2  and  C_12
REMARK    4  A    between atoms: C_2  and  C_18
REMARK    5  A    between atoms: C_3  and  C_4
REMARK    6  A    between atoms: C_4  and  C_5
REMARK    7  A    between atoms: C_5  and  N_6
REMARK                            x       y       z     vdW  Elec       q    Type
REMARK                         _______ _______ _______ _____ _____    ______ ____
ROOT
ATOM      1  C   UNL     1      -7.494   2.353 123.510  0.00  0.00    +0.000 C 
ENDROOT
BRANCH   1   2
ATOM      2  C   UNL     1      -6.611   3.059 124.563  0.00  0.00    +0.000 A 
ATOM      3  C   UNL     1      -6.699   4.450 124.780  0.00  0.00    +0.000 A 
ATOM      4  C   UNL     1      -5.806   5.123 125.613  0.00  0.00    +0.000 A 
ATOM      5  C   UNL     1      -4.839   4.419 126.299  0.00  0.00    +0.000 A 
ATOM      6  C   UNL     1      -4.750   3.038 126.149  0.00  0.00    +0.000 A 
ATOM      7  C   UNL     1      -5.620   2.374 125.281  0.00  0.00    +0.000 A 
ENDBRANCH   1   2
BRANCH   1   8
ATOM      8  C   UNL     1      -7.422   3.009 122.114  0.00  0.00    +0.000 A 
ATOM      9  C   UNL     1      -6.168   3.245 121.517  0.00  0.00    +0.000 A 
ATOM     10  C   UNL     1      -6.057   3.969 120.331  0.00  0.00    +0.000 A 
ATOM     11  C   UNL     1      -7.199   4.308 119.619  0.00  0.00    +0.000 A 
ATOM     12  C   UNL     1      -8.453   3.998 120.131  0.00  0.00    +0.000 A 
ATOM     13  C   UNL     1      -8.560   3.420 121.397  0.00  0.00    +0.000 A 
ENDBRANCH   1   8
BRANCH   1  14
ATOM     14  O   UNL     1      -6.978   1.015 123.383  0.00  0.00    +0.000 OA
ATOM     15  H   UNL     1      -7.264   0.524 124.170  0.00  0.00    +0.000 HD
ENDBRANCH   1  14
BRANCH   1  16
ATOM     16  C   UNL     1      -8.952   2.197 124.021  0.00  0.00    +0.000 C 
BRANCH  16  17
ATOM     17  C   UNL     1      -9.450   0.762 123.960  0.00  0.00    +0.000 C 
BRANCH  17  18
ATOM     18  C   UNL     1      -9.485   0.156 125.352  0.00  0.00    +0.000 C 
BRANCH  18  19
ATOM     19  N   UNL     1      -9.463  -1.305 125.272  0.00  0.00    +0.000 NA
ATOM     20  C   UNL     1      -9.025  -1.710 123.932  0.00  0.00    +0.000 C 
ATOM     21  C   UNL     1      -9.075  -3.228 123.794  0.00  0.00    +0.000 C 
ATOM     22  C   UNL     1      -8.232  -3.910 124.867  0.00  0.00    +0.000 C 
ATOM     23  C   UNL     1      -8.623  -3.415 126.248  0.00  0.00    +0.000 C 
ATOM     24  C   UNL     1      -8.591  -1.896 126.304  0.00  0.00    +0.000 C 
ENDBRANCH  18  19
ENDBRANCH  17  18
ENDBRANCH  16  17
ENDBRANCH   1  16
TORSDOF 7
ENDMDL
MODEL 6
REMARK VINA RESULT:      -7.6      1.022      4.135
REMARK  Name = Diphenidol
REMARK  7 active torsions:
REMARK  status: ('A' for Active; 'I' for Inactive)
REMARK    1  A    between atoms: O_1  and  C_2
REMARK    2  A    between atoms: C_2  and  C_3
REMARK    3  A    between atoms: C_2  and  C_12
REMARK    4  A    between atoms: C_2  and  C_18
REMARK    5  A    between atoms: C_3  and  C_4
REMARK    6  A    between atoms: C_4  and  C_5
REMARK    7  A    between atoms: C_5  and  N_6
REMARK                            x       y       z     vdW  Elec       q    Type
REMARK                         _______ _______ _______ _____ _____    ______ ____
ROOT
ATOM      1  C   UNL     1      -7.763  -0.825 125.899  0.00  0.00    +0.000 C 
ENDROOT
BRANCH   1   2
ATOM      2  C   UNL     1      -6.847  -1.396 124.793  0.00  0.00    +0.000 A 
ATOM      3  C   UNL     1      -7.143  -1.206 123.427  0.00  0.00    +0.000 A 
ATOM      4  C   UNL     1      -6.416  -1.841 122.421  0.00  0.00    +0.000 A 
ATOM      5  C   UNL     1      -5.337  -2.636 122.748  0.00  0.00    +0.000 A 
ATOM      6  C   UNL     1      -4.983  -2.810 124.083  0.00  0.00    +0.000 A 
ATOM      7  C   UNL     1      -5.741  -2.205 125.088  0.00  0.00    +0.000 A 
ENDBRANCH   1   2
BRANCH   1   8
ATOM      8  C   UNL     1      -7.994  -1.807 127.068  0.00  0.00    +0.000 A 
ATOM      9  C   UNL     1      -8.630  -3.041 126.828  0.00  0.00    +0.000 A 
ATOM     10  C   UNL     1      -8.991  -3.884 127.877  0.00  0.00    +0.000 A 
ATOM     11  C   UNL     1      -8.559  -3.606 129.166  0.00  0.00    +0.000 A 
ATOM     12  C   UNL     1      -7.839  -2.445 129.422  0.00  0.00    +0.000 A 
ATOM     13  C   UNL     1      -7.623  -1.525 128.395  0.00  0.00    +0.000 A 
ENDBRANCH   1   8
BRANCH   1  14
ATOM     14  O   UNL     1      -7.080   0.325 126.433  0.00  0.00    +0.000 OA
ATOM     15  H   UNL     1      -6.128   0.148 126.361  0.00  0.00    +0.000 HD
ENDBRANCH   1  14
BRANCH   1  16
ATOM     16  C   UNL     1      -9.090  -0.287 125.299  0.00  0.00    +0.000 C 
BRANCH  16  17
ATOM     17  C   UNL     1      -9.320   1.186 125.596  0.00  0.00    +0.000 C 
BRANCH  17  18
ATOM     18  C   UNL     1      -9.294   1.993 124.309  0.00  0.00    +0.000 C 
BRANCH  18  19
ATOM     19  N   UNL     1      -7.917   2.328 123.946  0.00  0.00    +0.000 NA
ATOM     20  C   UNL     1      -7.888   2.824 122.565  0.00  0.00    +0.000 C 
ATOM     21  C   UNL     1      -6.452   3.101 122.131  0.00  0.00    +0.000 C 
ATOM     22  C   UNL     1      -5.769   4.086 123.074  0.00  0.00    +0.000 C 
ATOM     23  C   UNL     1      -5.886   3.617 124.513  0.00  0.00    +0.000 C 
ATOM     24  C   UNL     1      -7.334   3.322 124.867  0.00  0.00    +0.000 C 
ENDBRANCH  18  19
ENDBRANCH  17  18
ENDBRANCH  16  17
ENDBRANCH   1  16
TORSDOF 7
ENDMDL
MODEL 7
REMARK VINA RESULT:      -7.4      7.355      9.800
REMARK  Name = Diphenidol
REMARK  7 active torsions:
REMARK  status: ('A' for Active; 'I' for Inactive)
REMARK    1  A    between atoms: O_1  and  C_2
REMARK    2  A    between atoms: C_2  and  C_3
REMARK    3  A    between atoms: C_2  and  C_12
REMARK    4  A    between atoms: C_2  and  C_18
REMARK    5  A    between atoms: C_3  and  C_4
REMARK    6  A    between atoms: C_4  and  C_5
REMARK    7  A    between atoms: C_5  and  N_6
REMARK                            x       y       z     vdW  Elec       q    Type
REMARK                         _______ _______ _______ _____ _____    ______ ____
ROOT
ATOM      1  C   UNL     1      -8.920   6.015 130.556  0.00  0.00    +0.000 C 
ENDROOT
BRANCH   1   2
ATOM      2  C   UNL     1     -10.187   6.872 130.336  0.00  0.00    +0.000 A 
ATOM      3  C   UNL     1     -11.327   6.717 131.153  0.00  0.00    +0.000 A 
ATOM      4  C   UNL     1     -12.527   7.370 130.873  0.00  0.00    +0.000 A 
ATOM      5  C   UNL     1     -12.605   8.242 129.807  0.00  0.00    +0.000 A 
ATOM      6  C   UNL     1     -11.488   8.459 129.005  0.00  0.00    +0.000 A 
ATOM      7  C   UNL     1     -10.300   7.770 129.265  0.00  0.00    +0.000 A 
ENDBRANCH   1   2
BRANCH   1   8
ATOM      8  C   UNL     1      -9.191   4.716 131.346  0.00  0.00    +0.000 A 
ATOM      9  C   UNL     1      -9.058   4.710 132.747  0.00  0.00    +0.000 A 
ATOM     10  C   UNL     1      -9.146   3.525 133.477  0.00  0.00    +0.000 A 
ATOM     11  C   UNL     1      -9.555   2.357 132.849  0.00  0.00    +0.000 A 
ATOM     12  C   UNL     1      -9.795   2.351 131.480  0.00  0.00    +0.000 A 
ATOM     13  C   UNL     1      -9.545   3.502 130.730  0.00  0.00    +0.000 A 
ENDBRANCH   1   8
BRANCH   1  14
ATOM     14  O   UNL     1      -8.460   5.634 129.246  0.00  0.00    +0.000 OA
ATOM     15  H   UNL     1      -9.141   5.057 128.863  0.00  0.00    +0.000 HD
ENDBRANCH   1  14
BRANCH   1  16
ATOM     16  C   UNL     1      -7.776   6.863 131.176  0.00  0.00    +0.000 C 
BRANCH  16  17
ATOM     17  C   UNL     1      -6.414   6.200 131.050  0.00  0.00    +0.000 C 
BRANCH  17  18
ATOM     18  C   UNL     1      -5.365   7.224 130.655  0.00  0.00    +0.000 C 
BRANCH  18  19
ATOM     19  N   UNL     1      -4.639   6.777 129.465  0.00  0.00    +0.000 NA
ATOM     20  C   UNL     1      -3.229   7.167 129.583  0.00  0.00    +0.000 C 
ATOM     21  C   UNL     1      -2.467   6.788 128.318  0.00  0.00    +0.000 C 
ATOM     22  C   UNL     1      -2.592   5.297 128.021  0.00  0.00    +0.000 C 
ATOM     23  C   UNL     1      -4.051   4.878 127.996  0.00  0.00    +0.000 C 
ATOM     24  C   UNL     1      -4.760   5.321 129.266  0.00  0.00    +0.000 C 
ENDBRANCH  18  19
ENDBRANCH  17  18
ENDBRANCH  16  17
ENDBRANCH   1  16
TORSDOF 7
ENDMDL
MODEL 8
REMARK VINA RESULT:      -7.4      7.486      9.814
REMARK  Name = Diphenidol
REMARK  7 active torsions:
REMARK  status: ('A' for Active; 'I' for Inactive)
REMARK    1  A    between atoms: O_1  and  C_2
REMARK    2  A    between atoms: C_2  and  C_3
REMARK    3  A    between atoms: C_2  and  C_12
REMARK    4  A    between atoms: C_2  and  C_18
REMARK    5  A    between atoms: C_3  and  C_4
REMARK    6  A    between atoms: C_4  and  C_5
REMARK    7  A    between atoms: C_5  and  N_6
REMARK                            x       y       z     vdW  Elec       q    Type
REMARK                         _______ _______ _______ _____ _____    ______ ____
ROOT
ATOM      1  C   UNL     1      -9.172   6.132 131.673  0.00  0.00    +0.000 C 
ENDROOT
BRANCH   1   2
ATOM      2  C   UNL     1      -9.205   4.588 131.647  0.00  0.00    +0.000 A 
ATOM      3  C   UNL     1      -9.256   3.877 130.429  0.00  0.00    +0.000 A 
ATOM      4  C   UNL     1      -9.440   2.495 130.390  0.00  0.00    +0.000 A 
ATOM      5  C   UNL     1      -9.519   1.777 131.566  0.00  0.00    +0.000 A 
ATOM      6  C   UNL     1      -9.425   2.436 132.788  0.00  0.00    +0.000 A 
ATOM      7  C   UNL     1      -9.283   3.825 132.821  0.00  0.00    +0.000 A 
ENDBRANCH   1   2
BRANCH   1   8
ATOM      8  C   UNL     1     -10.413   6.781 131.021  0.00  0.00    +0.000 A 
ATOM      9  C   UNL     1     -11.664   6.692 131.661  0.00  0.00    +0.000 A 
ATOM     10  C   UNL     1     -12.829   7.131 131.033  0.00  0.00    +0.000 A 
ATOM     11  C   UNL     1     -12.748   7.836 129.841  0.00  0.00    +0.000 A 
ATOM     12  C   UNL     1     -11.513   8.031 129.233  0.00  0.00    +0.000 A 
ATOM     13  C   UNL     1     -10.371   7.447 129.783  0.00  0.00    +0.000 A 
ENDBRANCH   1   8
BRANCH   1  14
ATOM     14  O   UNL     1      -9.170   6.511 133.063  0.00  0.00    +0.000 OA
ATOM     15  H   UNL     1      -8.806   7.409 133.111  0.00  0.00    +0.000 HD
ENDBRANCH   1  14
BRANCH   1  16
ATOM     16  C   UNL     1      -7.840   6.670 131.086  0.00  0.00    +0.000 C 
BRANCH  16  17
ATOM     17  C   UNL     1      -6.629   6.292 131.924  0.00  0.00    +0.000 C 
BRANCH  17  18
ATOM     18  C   UNL     1      -5.695   5.398 131.127  0.00  0.00    +0.000 C 
BRANCH  18  19
ATOM     19  N   UNL     1      -5.129   6.133 129.994  0.00  0.00    +0.000 NA
ATOM     20  C   UNL     1      -4.295   7.230 130.496  0.00  0.00    +0.000 C 
ATOM     21  C   UNL     1      -3.762   8.064 129.337  0.00  0.00    +0.000 C 
ATOM     22  C   UNL     1      -2.984   7.204 128.346  0.00  0.00    +0.000 C 
ATOM     23  C   UNL     1      -3.818   6.015 127.902  0.00  0.00    +0.000 C 
ATOM     24  C   UNL     1      -4.350   5.252 129.105  0.00  0.00    +0.000 C 
ENDBRANCH  18  19
ENDBRANCH  17  18
ENDBRANCH  16  17
ENDBRANCH   1  16
TORSDOF 7
ENDMDL
MODEL 9
REMARK VINA RESULT:      -7.2      2.336      3.474
REMARK  Name = Diphenidol
REMARK  7 active torsions:
REMARK  status: ('A' for Active; 'I' for Inactive)
REMARK    1  A    between atoms: O_1  and  C_2
REMARK    2  A    between atoms: C_2  and  C_3
REMARK    3  A    between atoms: C_2  and  C_12
REMARK    4  A    between atoms: C_2  and  C_18
REMARK    5  A    between atoms: C_3  and  C_4
REMARK    6  A    between atoms: C_4  and  C_5
REMARK    7  A    between atoms: C_5  and  N_6
REMARK                            x       y       z     vdW  Elec       q    Type
REMARK                         _______ _______ _______ _____ _____    ______ ____
ROOT
ATOM      1  C   UNL     1      -6.716  -1.483 127.508  0.00  0.00    +0.000 C 
ENDROOT
BRANCH   1   2
ATOM      2  C   UNL     1      -6.066  -2.402 128.566  0.00  0.00    +0.000 A 
ATOM      3  C   UNL     1      -4.668  -2.590 128.614  0.00  0.00    +0.000 A 
ATOM      4  C   UNL     1      -4.081  -3.531 129.459  0.00  0.00    +0.000 A 
ATOM      5  C   UNL     1      -4.865  -4.266 130.323  0.00  0.00    +0.000 A 
ATOM      6  C   UNL     1      -6.243  -4.075 130.341  0.00  0.00    +0.000 A 
ATOM      7  C   UNL     1      -6.831  -3.162 129.462  0.00  0.00    +0.000 A 
ENDBRANCH   1   2
BRANCH   1   8
ATOM      8  C   UNL     1      -7.457  -2.260 126.397  0.00  0.00    +0.000 A 
ATOM      9  C   UNL     1      -6.724  -2.856 125.354  0.00  0.00    +0.000 A 
ATOM     10  C   UNL     1      -7.364  -3.432 124.258  0.00  0.00    +0.000 A 
ATOM     11  C   UNL     1      -8.742  -3.595 124.270  0.00  0.00    +0.000 A 
ATOM     12  C   UNL     1      -9.489  -3.109 125.337  0.00  0.00    +0.000 A 
ATOM     13  C   UNL     1      -8.857  -2.387 126.351  0.00  0.00    +0.000 A 
ENDBRANCH   1   8
BRANCH   1  14
ATOM     14  O   UNL     1      -7.697  -0.694 128.208  0.00  0.00    +0.000 OA
ATOM     15  H   UNL     1      -8.563  -1.092 128.025  0.00  0.00    +0.000 HD
ENDBRANCH   1  14
BRANCH   1  16
ATOM     16  C   UNL     1      -5.684  -0.471 126.941  0.00  0.00    +0.000 C 
BRANCH  16  17
ATOM     17  C   UNL     1      -6.269   0.917 126.735  0.00  0.00    +0.000 C 
BRANCH  17  18
ATOM     18  C   UNL     1      -6.416   1.212 125.252  0.00  0.00    +0.000 C 
BRANCH  18  19
ATOM     19  N   UNL     1      -7.744   0.813 124.782  0.00  0.00    +0.000 NA
ATOM     20  C   UNL     1      -8.627   1.985 124.778  0.00  0.00    +0.000 C 
ATOM     21  C   UNL     1     -10.041   1.580 124.374  0.00  0.00    +0.000 C 
ATOM     22  C   UNL     1     -10.053   0.890 123.015  0.00  0.00    +0.000 C 
ATOM     23  C   UNL     1      -9.065  -0.263 122.992  0.00  0.00    +0.000 C 
ATOM     24  C   UNL     1      -7.689   0.199 123.443  0.00  0.00    +0.000 C 
ENDBRANCH  18  19
ENDBRANCH  17  18
ENDBRANCH  16  17
ENDBRANCH   1  16
TORSDOF 7
ENDMDL
