MODEL 1
REMARK VINA RESULT:      -7.9      0.000      0.000
REMARK  Name = Diphemanil
REMARK  4 active torsions:
REMARK  status: ('A' for Active; 'I' for Inactive)
REMARK    1  A    between atoms: C_1  and  N_2
REMARK    2  A    between atoms: N_2  and  C_3
REMARK    3  A    between atoms: C_9  and  C_10
REMARK    4  A    between atoms: C_9  and  C_16
REMARK                            x       y       z     vdW  Elec       q    Type
REMARK                         _______ _______ _______ _____ _____    ______ ____
ROOT
ATOM      1  C   UNL     1      -3.050   3.018 126.692  0.00  0.00    +0.000 C 
ATOM      2  N   UNL     1      -4.576   3.086 126.573  0.00  0.00    +0.000 N 
ATOM      3  C   UNL     1      -5.082   3.694 127.876  0.00  0.00    +0.000 C 
ATOM      4  C   UNL     1      -4.954   3.974 125.357  0.00  0.00    +0.000 C 
ATOM      5  C   UNL     1      -6.454   3.897 125.029  0.00  0.00    +0.000 C 
ATOM      6  C   UNL     1      -6.830   2.453 124.754  0.00  0.00    +0.000 C 
ATOM      7  C   UNL     1      -6.609   1.640 126.018  0.00  0.00    +0.000 C 
ATOM      8  C   UNL     1      -5.119   1.648 126.372  0.00  0.00    +0.000 C 
ATOM      9  C   UNL     1      -7.225   1.952 123.548  0.00  0.00    +0.000 C 
ENDROOT
BRANCH   9  10
ATOM     10  C   UNL     1      -7.574   0.508 123.397  0.00  0.00    +0.000 A 
ATOM     11  C   UNL     1      -6.573  -0.438 123.116  0.00  0.00    +0.000 A 
ATOM     12  C   UNL     1      -6.916  -1.741 122.749  0.00  0.00    +0.000 A 
ATOM     13  C   UNL     1      -8.254  -2.131 122.729  0.00  0.00    +0.000 A 
ATOM     14  C   UNL     1      -9.252  -1.214 123.052  0.00  0.00    +0.000 A 
ATOM     15  C   UNL     1      -8.915   0.103 123.358  0.00  0.00    +0.000 A 
ENDBRANCH   9  10
BRANCH   9  16
ATOM     16  C   UNL     1      -7.308   2.823 122.336  0.00  0.00    +0.000 A 
ATOM     17  C   UNL     1      -8.568   3.199 121.845  0.00  0.00    +0.000 A 
ATOM     18  C   UNL     1      -8.689   3.818 120.599  0.00  0.00    +0.000 A 
ATOM     19  C   UNL     1      -7.549   4.132 119.863  0.00  0.00    +0.000 A 
ATOM     20  C   UNL     1      -6.290   3.805 120.358  0.00  0.00    +0.000 A 
ATOM     21  C   UNL     1      -6.173   3.129 121.572  0.00  0.00    +0.000 A 
ENDBRANCH   9  16
TORSDOF 2
ENDMDL
MODEL 2
REMARK VINA RESULT:      -7.3      0.957      4.400
REMARK  Name = Diphemanil
REMARK  4 active torsions:
REMARK  status: ('A' for Active; 'I' for Inactive)
REMARK    1  A    between atoms: C_1  and  N_2
REMARK    2  A    between atoms: N_2  and  C_3
REMARK    3  A    between atoms: C_9  and  C_10
REMARK    4  A    between atoms: C_9  and  C_16
REMARK                            x       y       z     vdW  Elec       q    Type
REMARK                         _______ _______ _______ _____ _____    ______ ____
ROOT
ATOM      1  C   UNL     1      -7.891   3.986 128.261  0.00  0.00    +0.000 C 
ATOM      2  N   UNL     1      -6.803   3.503 127.296  0.00  0.00    +0.000 N 
ATOM      3  C   UNL     1      -5.471   3.734 128.000  0.00  0.00    +0.000 C 
ATOM      4  C   UNL     1      -7.022   1.996 126.993  0.00  0.00    +0.000 C 
ATOM      5  C   UNL     1      -6.119   1.498 125.853  0.00  0.00    +0.000 C 
ATOM      6  C   UNL     1      -6.390   2.321 124.608  0.00  0.00    +0.000 C 
ATOM      7  C   UNL     1      -6.004   3.764 124.882  0.00  0.00    +0.000 C 
ATOM      8  C   UNL     1      -6.902   4.328 125.988  0.00  0.00    +0.000 C 
ATOM      9  C   UNL     1      -6.961   1.857 123.459  0.00  0.00    +0.000 C 
ENDROOT
BRANCH   9  10
ATOM     10  C   UNL     1      -7.176   2.764 122.293  0.00  0.00    +0.000 A 
ATOM     11  C   UNL     1      -8.478   3.141 121.918  0.00  0.00    +0.000 A 
ATOM     12  C   UNL     1      -8.701   3.794 120.703  0.00  0.00    +0.000 A 
ATOM     13  C   UNL     1      -7.626   4.140 119.888  0.00  0.00    +0.000 A 
ATOM     14  C   UNL     1      -6.327   3.813 120.273  0.00  0.00    +0.000 A 
ATOM     15  C   UNL     1      -6.107   3.106 121.454  0.00  0.00    +0.000 A 
ENDBRANCH   9  10
BRANCH   9  16
ATOM     16  C   UNL     1      -7.402   0.435 123.331  0.00  0.00    +0.000 A 
ATOM     17  C   UNL     1      -8.683   0.069 123.774  0.00  0.00    +0.000 A 
ATOM     18  C   UNL     1      -9.042  -1.276 123.876  0.00  0.00    +0.000 A 
ATOM     19  C   UNL     1      -8.153  -2.269 123.471  0.00  0.00    +0.000 A 
ATOM     20  C   UNL     1      -6.895  -1.919 122.987  0.00  0.00    +0.000 A 
ATOM     21  C   UNL     1      -6.512  -0.578 122.945  0.00  0.00    +0.000 A 
ENDBRANCH   9  16
TORSDOF 2
ENDMDL
MODEL 3
REMARK VINA RESULT:      -7.0      3.807      5.985
REMARK  Name = Diphemanil
REMARK  4 active torsions:
REMARK  status: ('A' for Active; 'I' for Inactive)
REMARK    1  A    between atoms: C_1  and  N_2
REMARK    2  A    between atoms: N_2  and  C_3
REMARK    3  A    between atoms: C_9  and  C_10
REMARK    4  A    between atoms: C_9  and  C_16
REMARK                            x       y       z     vdW  Elec       q    Type
REMARK                         _______ _______ _______ _____ _____    ______ ____
ROOT
ATOM      1  C   UNL     1      -5.524   3.533 127.607  0.00  0.00    +0.000 C 
ATOM      2  N   UNL     1      -6.636   2.583 128.064  0.00  0.00    +0.000 N 
ATOM      3  C   UNL     1      -7.614   3.426 128.875  0.00  0.00    +0.000 C 
ATOM      4  C   UNL     1      -7.327   1.968 126.817  0.00  0.00    +0.000 C 
ATOM      5  C   UNL     1      -8.289   0.829 127.192  0.00  0.00    +0.000 C 
ATOM      6  C   UNL     1      -7.522  -0.244 127.941  0.00  0.00    +0.000 C 
ATOM      7  C   UNL     1      -7.002   0.344 129.241  0.00  0.00    +0.000 C 
ATOM      8  C   UNL     1      -6.003   1.462 128.929  0.00  0.00    +0.000 C 
ATOM      9  C   UNL     1      -7.273  -1.505 127.485  0.00  0.00    +0.000 C 
ENDROOT
BRANCH   9  10
ATOM     10  C   UNL     1      -6.505  -2.480 128.316  0.00  0.00    +0.000 A 
ATOM     11  C   UNL     1      -7.162  -3.254 129.288  0.00  0.00    +0.000 A 
ATOM     12  C   UNL     1      -6.426  -3.993 130.218  0.00  0.00    +0.000 A 
ATOM     13  C   UNL     1      -5.035  -4.024 130.141  0.00  0.00    +0.000 A 
ATOM     14  C   UNL     1      -4.376  -3.298 129.151  0.00  0.00    +0.000 A 
ATOM     15  C   UNL     1      -5.106  -2.510 128.262  0.00  0.00    +0.000 A 
ENDBRANCH   9  10
BRANCH   9  16
ATOM     16  C   UNL     1      -7.743  -1.950 126.138  0.00  0.00    +0.000 A 
ATOM     17  C   UNL     1      -9.004  -2.555 126.015  0.00  0.00    +0.000 A 
ATOM     18  C   UNL     1      -9.379  -3.180 124.824  0.00  0.00    +0.000 A 
ATOM     19  C   UNL     1      -8.529  -3.147 123.721  0.00  0.00    +0.000 A 
ATOM     20  C   UNL     1      -7.294  -2.511 123.814  0.00  0.00    +0.000 A 
ATOM     21  C   UNL     1      -6.892  -1.943 125.023  0.00  0.00    +0.000 A 
ENDBRANCH   9  16
TORSDOF 2
ENDMDL
MODEL 4
REMARK VINA RESULT:      -7.0      4.412      7.055
REMARK  Name = Diphemanil
REMARK  4 active torsions:
REMARK  status: ('A' for Active; 'I' for Inactive)
REMARK    1  A    between atoms: C_1  and  N_2
REMARK    2  A    between atoms: N_2  and  C_3
REMARK    3  A    between atoms: C_9  and  C_10
REMARK    4  A    between atoms: C_9  and  C_16
REMARK                            x       y       z     vdW  Elec       q    Type
REMARK                         _______ _______ _______ _____ _____    ______ ____
ROOT
ATOM      1  C   UNL     1      -9.200   2.747 129.738  0.00  0.00    +0.000 C 
ATOM      2  N   UNL     1      -7.978   2.295 128.932  0.00  0.00    +0.000 N 
ATOM      3  C   UNL     1      -7.195   3.558 128.593  0.00  0.00    +0.000 C 
ATOM      4  C   UNL     1      -7.128   1.324 129.795  0.00  0.00    +0.000 C 
ATOM      5  C   UNL     1      -6.019   0.643 128.977  0.00  0.00    +0.000 C 
ATOM      6  C   UNL     1      -6.646  -0.108 127.818  0.00  0.00    +0.000 C 
ATOM      7  C   UNL     1      -7.326   0.890 126.898  0.00  0.00    +0.000 C 
ATOM      8  C   UNL     1      -8.471   1.574 127.651  0.00  0.00    +0.000 C 
ATOM      9  C   UNL     1      -6.664  -1.464 127.668  0.00  0.00    +0.000 C 
ENDROOT
BRANCH   9  10
ATOM     10  C   UNL     1      -7.311  -2.094 126.478  0.00  0.00    +0.000 A 
ATOM     11  C   UNL     1      -8.687  -2.380 126.489  0.00  0.00    +0.000 A 
ATOM     12  C   UNL     1      -9.251  -3.170 125.483  0.00  0.00    +0.000 A 
ATOM     13  C   UNL     1      -8.464  -3.619 124.425  0.00  0.00    +0.000 A 
ATOM     14  C   UNL     1      -7.109  -3.301 124.380  0.00  0.00    +0.000 A 
ATOM     15  C   UNL     1      -6.531  -2.566 125.415  0.00  0.00    +0.000 A 
ENDBRANCH   9  10
BRANCH   9  16
ATOM     16  C   UNL     1      -6.052  -2.366 128.691  0.00  0.00    +0.000 A 
ATOM     17  C   UNL     1      -4.684  -2.669 128.612  0.00  0.00    +0.000 A 
ATOM     18  C   UNL     1      -4.132  -3.674 129.408  0.00  0.00    +0.000 A 
ATOM     19  C   UNL     1      -4.923  -4.339 130.342  0.00  0.00    +0.000 A 
ATOM     20  C   UNL     1      -6.272  -4.018 130.463  0.00  0.00    +0.000 A 
ATOM     21  C   UNL     1      -6.839  -3.059 129.623  0.00  0.00    +0.000 A 
ENDBRANCH   9  16
TORSDOF 2
ENDMDL
MODEL 5
REMARK VINA RESULT:      -6.9      7.428      9.979
REMARK  Name = Diphemanil
REMARK  4 active torsions:
REMARK  status: ('A' for Active; 'I' for Inactive)
REMARK    1  A    between atoms: C_1  and  N_2
REMARK    2  A    between atoms: N_2  and  C_3
REMARK    3  A    between atoms: C_9  and  C_10
REMARK    4  A    between atoms: C_9  and  C_16
REMARK                            x       y       z     vdW  Elec       q    Type
REMARK                         _______ _______ _______ _____ _____    ______ ____
ROOT
ATOM      1  C   UNL     1     -12.518   7.146 127.002  0.00  0.00    +0.000 C 
ATOM      2  N   UNL     1     -11.964   7.475 128.392  0.00  0.00    +0.000 N 
ATOM      3  C   UNL     1     -12.706   8.720 128.867  0.00  0.00    +0.000 C 
ATOM      4  C   UNL     1     -12.221   6.274 129.342  0.00  0.00    +0.000 C 
ATOM      5  C   UNL     1     -11.486   6.430 130.683  0.00  0.00    +0.000 C 
ATOM      6  C   UNL     1      -9.999   6.575 130.421  0.00  0.00    +0.000 C 
ATOM      7  C   UNL     1      -9.762   7.852 129.634  0.00  0.00    +0.000 C 
ATOM      8  C   UNL     1     -10.442   7.738 128.266  0.00  0.00    +0.000 C 
ATOM      9  C   UNL     1      -9.041   5.667 130.766  0.00  0.00    +0.000 C 
ENDROOT
BRANCH   9  10
ATOM     10  C   UNL     1      -7.602   5.921 130.458  0.00  0.00    +0.000 A 
ATOM     11  C   UNL     1      -6.875   5.013 129.668  0.00  0.00    +0.000 A 
ATOM     12  C   UNL     1      -5.486   5.120 129.567  0.00  0.00    +0.000 A 
ATOM     13  C   UNL     1      -4.819   6.171 130.193  0.00  0.00    +0.000 A 
ATOM     14  C   UNL     1      -5.535   7.104 130.939  0.00  0.00    +0.000 A 
ATOM     15  C   UNL     1      -6.914   6.963 131.093  0.00  0.00    +0.000 A 
ENDBRANCH   9  10
BRANCH   9  16
ATOM     16  C   UNL     1      -9.396   4.386 131.449  0.00  0.00    +0.000 A 
ATOM     17  C   UNL     1      -9.044   4.203 132.796  0.00  0.00    +0.000 A 
ATOM     18  C   UNL     1      -9.157   2.948 133.396  0.00  0.00    +0.000 A 
ATOM     19  C   UNL     1      -9.690   1.878 132.680  0.00  0.00    +0.000 A 
ATOM     20  C   UNL     1     -10.085   2.055 131.357  0.00  0.00    +0.000 A 
ATOM     21  C   UNL     1      -9.912   3.293 130.738  0.00  0.00    +0.000 A 
ENDBRANCH   9  16
TORSDOF 2
ENDMDL
MODEL 6
REMARK VINA RESULT:      -6.7      4.438      6.139
REMARK  Name = Diphemanil
REMARK  4 active torsions:
REMARK  status: ('A' for Active; 'I' for Inactive)
REMARK    1  A    between atoms: C_1  and  N_2
REMARK    2  A    between atoms: N_2  and  C_3
REMARK    3  A    between atoms: C_9  and  C_10
REMARK    4  A    between atoms: C_9  and  C_16
REMARK                            x       y       z     vdW  Elec       q    Type
REMARK                         _______ _______ _______ _____ _____    ______ ____
ROOT
ATOM      1  C   UNL     1      -4.786  -3.391 131.552  0.00  0.00    +0.000 C 
ATOM      2  N   UNL     1      -6.193  -2.954 131.129  0.00  0.00    +0.000 N 
ATOM      3  C   UNL     1      -7.107  -3.241 132.314  0.00  0.00    +0.000 C 
ATOM      4  C   UNL     1      -6.175  -1.439 130.788  0.00  0.00    +0.000 C 
ATOM      5  C   UNL     1      -7.486  -0.980 130.128  0.00  0.00    +0.000 C 
ATOM      6  C   UNL     1      -7.721  -1.792 128.869  0.00  0.00    +0.000 C 
ATOM      7  C   UNL     1      -7.904  -3.250 129.253  0.00  0.00    +0.000 C 
ATOM      8  C   UNL     1      -6.610  -3.775 129.881  0.00  0.00    +0.000 C 
ATOM      9  C   UNL     1      -7.692  -1.305 127.595  0.00  0.00    +0.000 C 
ENDROOT
BRANCH   9  10
ATOM     10  C   UNL     1      -7.941  -2.203 126.427  0.00  0.00    +0.000 A 
ATOM     11  C   UNL     1      -6.865  -2.703 125.675  0.00  0.00    +0.000 A 
ATOM     12  C   UNL     1      -7.094  -3.349 124.457  0.00  0.00    +0.000 A 
ATOM     13  C   UNL     1      -8.398  -3.563 124.016  0.00  0.00    +0.000 A 
ATOM     14  C   UNL     1      -9.474  -3.112 124.777  0.00  0.00    +0.000 A 
ATOM     15  C   UNL     1      -9.246  -2.413 125.961  0.00  0.00    +0.000 A 
ENDBRANCH   9  10
BRANCH   9  16
ATOM     16  C   UNL     1      -7.397   0.134 127.320  0.00  0.00    +0.000 A 
ATOM     17  C   UNL     1      -6.063   0.551 127.192  0.00  0.00    +0.000 A 
ATOM     18  C   UNL     1      -5.743   1.910 127.160  0.00  0.00    +0.000 A 
ATOM     19  C   UNL     1      -6.756   2.866 127.183  0.00  0.00    +0.000 A 
ATOM     20  C   UNL     1      -8.087   2.466 127.264  0.00  0.00    +0.000 A 
ATOM     21  C   UNL     1      -8.403   1.111 127.362  0.00  0.00    +0.000 A 
ENDBRANCH   9  16
TORSDOF 2
ENDMDL
MODEL 7
REMARK VINA RESULT:      -6.6      3.833      5.847
REMARK  Name = Diphemanil
REMARK  4 active torsions:
REMARK  status: ('A' for Active; 'I' for Inactive)
REMARK    1  A    between atoms: C_1  and  N_2
REMARK    2  A    between atoms: N_2  and  C_3
REMARK    3  A    between atoms: C_9  and  C_10
REMARK    4  A    between atoms: C_9  and  C_16
REMARK                            x       y       z     vdW  Elec       q    Type
REMARK                         _______ _______ _______ _____ _____    ______ ____
ROOT
ATOM      1  C   UNL     1      -2.922   3.088 127.360  0.00  0.00    +0.000 C 
ATOM      2  N   UNL     1      -4.329   2.562 127.664  0.00  0.00    +0.000 N 
ATOM      3  C   UNL     1      -5.151   3.767 128.108  0.00  0.00    +0.000 C 
ATOM      4  C   UNL     1      -4.923   1.921 126.381  0.00  0.00    +0.000 C 
ATOM      5  C   UNL     1      -6.229   1.161 126.666  0.00  0.00    +0.000 C 
ATOM      6  C   UNL     1      -5.965   0.090 127.707  0.00  0.00    +0.000 C 
ATOM      7  C   UNL     1      -5.549   0.759 129.004  0.00  0.00    +0.000 C 
ATOM      8  C   UNL     1      -4.226   1.502 128.791  0.00  0.00    +0.000 C 
ATOM      9  C   UNL     1      -6.014  -1.256 127.489  0.00  0.00    +0.000 C 
ENDROOT
BRANCH   9  10
ATOM     10  C   UNL     1      -5.737  -2.220 128.596  0.00  0.00    +0.000 A 
ATOM     11  C   UNL     1      -4.444  -2.744 128.772  0.00  0.00    +0.000 A 
ATOM     12  C   UNL     1      -4.228  -3.809 129.650  0.00  0.00    +0.000 A 
ATOM     13  C   UNL     1      -5.282  -4.313 130.409  0.00  0.00    +0.000 A 
ATOM     14  C   UNL     1      -6.558  -3.770 130.277  0.00  0.00    +0.000 A 
ATOM     15  C   UNL     1      -6.788  -2.748 129.356  0.00  0.00    +0.000 A 
ENDBRANCH   9  10
BRANCH   9  16
ATOM     16  C   UNL     1      -6.334  -1.813 126.139  0.00  0.00    +0.000 A 
ATOM     17  C   UNL     1      -7.622  -2.311 125.887  0.00  0.00    +0.000 A 
ATOM     18  C   UNL     1      -7.888  -3.036 124.724  0.00  0.00    +0.000 A 
ATOM     19  C   UNL     1      -6.891  -3.211 123.767  0.00  0.00    +0.000 A 
ATOM     20  C   UNL     1      -5.620  -2.684 123.983  0.00  0.00    +0.000 A 
ATOM     21  C   UNL     1      -5.337  -2.015 125.174  0.00  0.00    +0.000 A 
ENDBRANCH   9  16
TORSDOF 2
ENDMDL
MODEL 8
REMARK VINA RESULT:      -6.6      6.250      8.994
REMARK  Name = Diphemanil
REMARK  4 active torsions:
REMARK  status: ('A' for Active; 'I' for Inactive)
REMARK    1  A    between atoms: C_1  and  N_2
REMARK    2  A    between atoms: N_2  and  C_3
REMARK    3  A    between atoms: C_9  and  C_10
REMARK    4  A    between atoms: C_9  and  C_16
REMARK                            x       y       z     vdW  Elec       q    Type
REMARK                         _______ _______ _______ _____ _____    ______ ____
ROOT
ATOM      1  C   UNL     1      -9.166   2.330 132.518  0.00  0.00    +0.000 C 
ATOM      2  N   UNL     1      -7.973   1.758 131.746  0.00  0.00    +0.000 N 
ATOM      3  C   UNL     1      -6.989   2.907 131.562  0.00  0.00    +0.000 C 
ATOM      4  C   UNL     1      -7.339   0.603 132.568  0.00  0.00    +0.000 C 
ATOM      5  C   UNL     1      -6.291  -0.176 131.756  0.00  0.00    +0.000 C 
ATOM      6  C   UNL     1      -6.941  -0.729 130.503  0.00  0.00    +0.000 C 
ATOM      7  C   UNL     1      -7.400   0.431 129.637  0.00  0.00    +0.000 C 
ATOM      8  C   UNL     1      -8.479   1.224 130.381  0.00  0.00    +0.000 C 
ATOM      9  C   UNL     1      -7.152  -2.050 130.235  0.00  0.00    +0.000 C 
ENDROOT
BRANCH   9  10
ATOM     10  C   UNL     1      -7.803  -2.477 128.960  0.00  0.00    +0.000 A 
ATOM     11  C   UNL     1      -8.729  -3.534 128.957  0.00  0.00    +0.000 A 
ATOM     12  C   UNL     1      -9.164  -4.087 127.750  0.00  0.00    +0.000 A 
ATOM     13  C   UNL     1      -8.737  -3.546 126.540  0.00  0.00    +0.000 A 
ATOM     14  C   UNL     1      -7.855  -2.468 126.532  0.00  0.00    +0.000 A 
ATOM     15  C   UNL     1      -7.370  -1.955 127.734  0.00  0.00    +0.000 A 
ENDBRANCH   9  10
BRANCH   9  16
ATOM     16  C   UNL     1      -6.754  -3.112 131.208  0.00  0.00    +0.000 A 
ATOM     17  C   UNL     1      -7.297  -3.099 132.502  0.00  0.00    +0.000 A 
ATOM     18  C   UNL     1      -6.784  -3.933 133.497  0.00  0.00    +0.000 A 
ATOM     19  C   UNL     1      -5.771  -4.840 133.193  0.00  0.00    +0.000 A 
ATOM     20  C   UNL     1      -5.253  -4.895 131.902  0.00  0.00    +0.000 A 
ATOM     21  C   UNL     1      -5.721  -4.018 130.925  0.00  0.00    +0.000 A 
ENDBRANCH   9  16
TORSDOF 2
ENDMDL
MODEL 9
REMARK VINA RESULT:      -6.5      4.042      7.057
REMARK  Name = Diphemanil
REMARK  4 active torsions:
REMARK  status: ('A' for Active; 'I' for Inactive)
REMARK    1  A    between atoms: C_1  and  N_2
REMARK    2  A    between atoms: N_2  and  C_3
REMARK    3  A    between atoms: C_9  and  C_10
REMARK    4  A    between atoms: C_9  and  C_16
REMARK                            x       y       z     vdW  Elec       q    Type
REMARK                         _______ _______ _______ _____ _____    ______ ____
ROOT
ATOM      1  C   UNL     1      -8.992  -2.263 123.221  0.00  0.00    +0.000 C 
ATOM      2  N   UNL     1      -7.599  -1.889 123.738  0.00  0.00    +0.000 N 
ATOM      3  C   UNL     1      -6.697  -1.794 122.513  0.00  0.00    +0.000 C 
ATOM      4  C   UNL     1      -7.679  -0.529 124.483  0.00  0.00    +0.000 C 
ATOM      5  C   UNL     1      -6.377  -0.204 125.233  0.00  0.00    +0.000 C 
ATOM      6  C   UNL     1      -6.080  -1.318 126.219  0.00  0.00    +0.000 C 
ATOM      7  C   UNL     1      -5.838  -2.603 125.447  0.00  0.00    +0.000 C 
ATOM      8  C   UNL     1      -7.119  -3.000 124.708  0.00  0.00    +0.000 C 
ATOM      9  C   UNL     1      -6.104  -1.202 127.578  0.00  0.00    +0.000 C 
ENDROOT
BRANCH   9  10
ATOM     10  C   UNL     1      -5.790  -2.372 128.451  0.00  0.00    +0.000 A 
ATOM     11  C   UNL     1      -6.824  -3.079 129.089  0.00  0.00    +0.000 A 
ATOM     12  C   UNL     1      -6.529  -4.020 130.079  0.00  0.00    +0.000 A 
ATOM     13  C   UNL     1      -5.203  -4.314 130.390  0.00  0.00    +0.000 A 
ATOM     14  C   UNL     1      -4.170  -3.653 129.731  0.00  0.00    +0.000 A 
ATOM     15  C   UNL     1      -4.462  -2.669 128.787  0.00  0.00    +0.000 A 
ENDBRANCH   9  10
BRANCH   9  16
ATOM     16  C   UNL     1      -6.459   0.090 128.240  0.00  0.00    +0.000 A 
ATOM     17  C   UNL     1      -7.811   0.432 128.402  0.00  0.00    +0.000 A 
ATOM     18  C   UNL     1      -8.175   1.717 128.809  0.00  0.00    +0.000 A 
ATOM     19  C   UNL     1      -7.193   2.653 129.126  0.00  0.00    +0.000 A 
ATOM     20  C   UNL     1      -5.848   2.314 129.013  0.00  0.00    +0.000 A 
ATOM     21  C   UNL     1      -5.484   1.051 128.546  0.00  0.00    +0.000 A 
ENDBRANCH   9  16
TORSDOF 2
ENDMDL
