MODEL 1
REMARK VINA RESULT:      -6.9      0.000      0.000
REMARK  Name = Diphenhydramine
REMARK  8 active torsions:
REMARK  status: ('A' for Active; 'I' for Inactive)
REMARK    1  A    between atoms: C_1  and  N_2
REMARK    2  A    between atoms: N_2  and  C_3
REMARK    3  A    between atoms: N_2  and  C_4
REMARK    4  A    between atoms: C_4  and  C_5
REMARK    5  A    between atoms: C_5  and  O_6
REMARK    6  A    between atoms: O_6  and  C_7
REMARK    7  A    between atoms: C_7  and  C_8
REMARK    8  A    between atoms: C_7  and  C_14
REMARK                            x       y       z     vdW  Elec       q    Type
REMARK                         _______ _______ _______ _____ _____    ______ ____
ROOT
ATOM      1  C   UNL     1     -11.501   5.891 130.747  0.00  0.00    +0.000 C 
ENDROOT
BRANCH   1   2
ATOM      2  C   UNL     1     -10.110   6.285 131.361  0.00  0.00    +0.000 A 
ATOM      3  C   UNL     1      -9.050   6.877 130.668  0.00  0.00    +0.000 A 
ATOM      4  C   UNL     1      -7.713   6.715 131.010  0.00  0.00    +0.000 A 
ATOM      5  C   UNL     1      -7.408   6.210 132.255  0.00  0.00    +0.000 A 
ATOM      6  C   UNL     1      -8.447   5.864 133.109  0.00  0.00    +0.000 A 
ATOM      7  C   UNL     1      -9.783   5.924 132.678  0.00  0.00    +0.000 A 
ENDBRANCH   1   2
BRANCH   1   8
ATOM      8  C   UNL     1     -12.275   6.930 129.908  0.00  0.00    +0.000 A 
ATOM      9  C   UNL     1     -12.914   6.575 128.703  0.00  0.00    +0.000 A 
ATOM     10  C   UNL     1     -13.459   7.570 127.867  0.00  0.00    +0.000 A 
ATOM     11  C   UNL     1     -13.512   8.905 128.259  0.00  0.00    +0.000 A 
ATOM     12  C   UNL     1     -12.928   9.271 129.455  0.00  0.00    +0.000 A 
ATOM     13  C   UNL     1     -12.240   8.303 130.162  0.00  0.00    +0.000 A 
ENDBRANCH   1   8
BRANCH   1  14
ATOM     14  O   UNL     1     -11.405   4.747 129.830  0.00  0.00    +0.000 OA
BRANCH  14  15
ATOM     15  C   UNL     1     -10.903   3.563 130.440  0.00  0.00    +0.000 C 
BRANCH  15  16
ATOM     16  C   UNL     1      -9.482   3.153 130.054  0.00  0.00    +0.000 C 
BRANCH  16  18
ATOM     17  C   UNL     1      -7.523   2.577 131.331  0.00  0.00    +0.000 C 
ATOM     18  N   UNL     1      -8.910   2.209 131.052  0.00  0.00    +0.000 NA
ATOM     19  C   UNL     1      -9.660   2.189 132.318  0.00  0.00    +0.000 C 
ENDBRANCH  16  18
ENDBRANCH  15  16
ENDBRANCH  14  15
ENDBRANCH   1  14
TORSDOF 6
ENDMDL
MODEL 2
REMARK VINA RESULT:      -6.6      7.859     11.026
REMARK  Name = Diphenhydramine
REMARK  8 active torsions:
REMARK  status: ('A' for Active; 'I' for Inactive)
REMARK    1  A    between atoms: C_1  and  N_2
REMARK    2  A    between atoms: N_2  and  C_3
REMARK    3  A    between atoms: N_2  and  C_4
REMARK    4  A    between atoms: C_4  and  C_5
REMARK    5  A    between atoms: C_5  and  O_6
REMARK    6  A    between atoms: O_6  and  C_7
REMARK    7  A    between atoms: C_7  and  C_8
REMARK    8  A    between atoms: C_7  and  C_14
REMARK                            x       y       z     vdW  Elec       q    Type
REMARK                         _______ _______ _______ _____ _____    ______ ____
ROOT
ATOM      1  C   UNL     1      -8.386  -1.842 125.237  0.00  0.00    +0.000 C 
ENDROOT
BRANCH   1   2
ATOM      2  C   UNL     1      -7.317  -2.441 124.254  0.00  0.00    +0.000 A 
ATOM      3  C   UNL     1      -6.500  -3.546 124.513  0.00  0.00    +0.000 A 
ATOM      4  C   UNL     1      -5.242  -3.727 123.949  0.00  0.00    +0.000 A 
ATOM      5  C   UNL     1      -4.893  -2.965 122.857  0.00  0.00    +0.000 A 
ATOM      6  C   UNL     1      -5.801  -2.030 122.376  0.00  0.00    +0.000 A 
ATOM      7  C   UNL     1      -7.009  -1.788 123.049  0.00  0.00    +0.000 A 
ENDBRANCH   1   2
BRANCH   1   8
ATOM      8  C   UNL     1      -8.431  -2.342 126.697  0.00  0.00    +0.000 A 
ATOM      9  C   UNL     1      -7.706  -1.697 127.719  0.00  0.00    +0.000 A 
ATOM     10  C   UNL     1      -7.620  -2.274 129.002  0.00  0.00    +0.000 A 
ATOM     11  C   UNL     1      -8.351  -3.408 129.343  0.00  0.00    +0.000 A 
ATOM     12  C   UNL     1      -9.102  -4.035 128.368  0.00  0.00    +0.000 A 
ATOM     13  C   UNL     1      -9.017  -3.551 127.077  0.00  0.00    +0.000 A 
ENDBRANCH   1   8
BRANCH   1  14
ATOM     14  O   UNL     1      -8.244  -0.388 125.401  0.00  0.00    +0.000 OA
BRANCH  14  15
ATOM     15  C   UNL     1      -9.443   0.337 125.155  0.00  0.00    +0.000 C 
BRANCH  15  16
ATOM     16  C   UNL     1      -9.276   1.792 124.717  0.00  0.00    +0.000 C 
BRANCH  16  18
ATOM     17  C   UNL     1      -8.670   2.657 122.553  0.00  0.00    +0.000 C 
ATOM     18  N   UNL     1      -9.722   1.980 123.310  0.00  0.00    +0.000 NA
ATOM     19  C   UNL     1     -10.050   0.713 122.638  0.00  0.00    +0.000 C 
ENDBRANCH  16  18
ENDBRANCH  15  16
ENDBRANCH  14  15
ENDBRANCH   1  14
TORSDOF 6
ENDMDL
MODEL 3
REMARK VINA RESULT:      -6.5      8.107      9.840
REMARK  Name = Diphenhydramine
REMARK  8 active torsions:
REMARK  status: ('A' for Active; 'I' for Inactive)
REMARK    1  A    between atoms: C_1  and  N_2
REMARK    2  A    between atoms: N_2  and  C_3
REMARK    3  A    between atoms: N_2  and  C_4
REMARK    4  A    between atoms: C_4  and  C_5
REMARK    5  A    between atoms: C_5  and  O_6
REMARK    6  A    between atoms: O_6  and  C_7
REMARK    7  A    between atoms: C_7  and  C_8
REMARK    8  A    between atoms: C_7  and  C_14
REMARK                            x       y       z     vdW  Elec       q    Type
REMARK                         _______ _______ _______ _____ _____    ______ ____
ROOT
ATOM      1  C   UNL     1      -7.026   2.923 122.527  0.00  0.00    +0.000 C 
ENDROOT
BRANCH   1   2
ATOM      2  C   UNL     1      -6.418   3.608 121.250  0.00  0.00    +0.000 A 
ATOM      3  C   UNL     1      -5.141   4.168 121.154  0.00  0.00    +0.000 A 
ATOM      4  C   UNL     1      -4.815   5.214 120.298  0.00  0.00    +0.000 A 
ATOM      5  C   UNL     1      -5.684   5.523 119.275  0.00  0.00    +0.000 A 
ATOM      6  C   UNL     1      -6.860   4.793 119.153  0.00  0.00    +0.000 A 
ATOM      7  C   UNL     1      -7.212   3.830 120.112  0.00  0.00    +0.000 A 
ENDBRANCH   1   2
BRANCH   1   8
ATOM      8  C   UNL     1      -6.426   3.245 123.912  0.00  0.00    +0.000 A 
ATOM      9  C   UNL     1      -6.180   2.233 124.861  0.00  0.00    +0.000 A 
ATOM     10  C   UNL     1      -5.801   2.569 126.176  0.00  0.00    +0.000 A 
ATOM     11  C   UNL     1      -5.524   3.883 126.544  0.00  0.00    +0.000 A 
ATOM     12  C   UNL     1      -5.720   4.888 125.618  0.00  0.00    +0.000 A 
ATOM     13  C   UNL     1      -6.268   4.546 124.397  0.00  0.00    +0.000 A 
ENDBRANCH   1   8
BRANCH   1  14
ATOM     14  O   UNL     1      -8.448   3.244 122.711  0.00  0.00    +0.000 OA
BRANCH  14  15
ATOM     15  C   UNL     1      -9.291   2.100 122.775  0.00  0.00    +0.000 C 
BRANCH  15  16
ATOM     16  C   UNL     1      -9.850   1.746 124.153  0.00  0.00    +0.000 C 
BRANCH  16  18
ATOM     17  C   UNL     1      -8.898  -0.328 123.382  0.00  0.00    +0.000 C 
ATOM     18  N   UNL     1      -9.722   0.288 124.421  0.00  0.00    +0.000 NA
ATOM     19  C   UNL     1      -9.126  -0.003 125.734  0.00  0.00    +0.000 C 
ENDBRANCH  16  18
ENDBRANCH  15  16
ENDBRANCH  14  15
ENDBRANCH   1  14
TORSDOF 6
ENDMDL
MODEL 4
REMARK VINA RESULT:      -6.4      7.801     10.626
REMARK  Name = Diphenhydramine
REMARK  8 active torsions:
REMARK  status: ('A' for Active; 'I' for Inactive)
REMARK    1  A    between atoms: C_1  and  N_2
REMARK    2  A    between atoms: N_2  and  C_3
REMARK    3  A    between atoms: N_2  and  C_4
REMARK    4  A    between atoms: C_4  and  C_5
REMARK    5  A    between atoms: C_5  and  O_6
REMARK    6  A    between atoms: O_6  and  C_7
REMARK    7  A    between atoms: C_7  and  C_8
REMARK    8  A    between atoms: C_7  and  C_14
REMARK                            x       y       z     vdW  Elec       q    Type
REMARK                         _______ _______ _______ _____ _____    ______ ____
ROOT
ATOM      1  C   UNL     1      -7.714  -0.937 125.662  0.00  0.00    +0.000 C 
ENDROOT
BRANCH   1   2
ATOM      2  C   UNL     1      -8.170  -1.748 126.928  0.00  0.00    +0.000 A 
ATOM      3  C   UNL     1      -7.809  -1.469 128.249  0.00  0.00    +0.000 A 
ATOM      4  C   UNL     1      -7.725  -2.431 129.249  0.00  0.00    +0.000 A 
ATOM      5  C   UNL     1      -8.311  -3.659 129.033  0.00  0.00    +0.000 A 
ATOM      6  C   UNL     1      -8.944  -3.893 127.819  0.00  0.00    +0.000 A 
ATOM      7  C   UNL     1      -8.897  -2.942 126.787  0.00  0.00    +0.000 A 
ENDBRANCH   1   2
BRANCH   1   8
ATOM      8  C   UNL     1      -6.735  -1.589 124.663  0.00  0.00    +0.000 A 
ATOM      9  C   UNL     1      -6.836  -1.360 123.276  0.00  0.00    +0.000 A 
ATOM     10  C   UNL     1      -6.048  -2.102 122.374  0.00  0.00    +0.000 A 
ATOM     11  C   UNL     1      -5.056  -2.974 122.815  0.00  0.00    +0.000 A 
ATOM     12  C   UNL     1      -4.911  -3.184 124.172  0.00  0.00    +0.000 A 
ATOM     13  C   UNL     1      -5.821  -2.583 125.021  0.00  0.00    +0.000 A 
ENDBRANCH   1   8
BRANCH   1  14
ATOM     14  O   UNL     1      -8.844  -0.559 124.801  0.00  0.00    +0.000 OA
BRANCH  14  15
ATOM     15  C   UNL     1      -9.326   0.759 125.033  0.00  0.00    +0.000 C 
BRANCH  15  16
ATOM     16  C   UNL     1      -9.792   1.537 123.803  0.00  0.00    +0.000 C 
BRANCH  16  18
ATOM     17  C   UNL     1      -7.850   2.764 124.526  0.00  0.00    +0.000 C 
ATOM     18  N   UNL     1      -9.012   2.793 123.639  0.00  0.00    +0.000 NA
ATOM     19  C   UNL     1      -8.550   3.005 122.259  0.00  0.00    +0.000 C 
ENDBRANCH  16  18
ENDBRANCH  15  16
ENDBRANCH  14  15
ENDBRANCH   1  14
TORSDOF 6
ENDMDL
MODEL 5
REMARK VINA RESULT:      -6.2      7.377     10.692
REMARK  Name = Diphenhydramine
REMARK  8 active torsions:
REMARK  status: ('A' for Active; 'I' for Inactive)
REMARK    1  A    between atoms: C_1  and  N_2
REMARK    2  A    between atoms: N_2  and  C_3
REMARK    3  A    between atoms: N_2  and  C_4
REMARK    4  A    between atoms: C_4  and  C_5
REMARK    5  A    between atoms: C_5  and  O_6
REMARK    6  A    between atoms: O_6  and  C_7
REMARK    7  A    between atoms: C_7  and  C_8
REMARK    8  A    between atoms: C_7  and  C_14
REMARK                            x       y       z     vdW  Elec       q    Type
REMARK                         _______ _______ _______ _____ _____    ______ ____
ROOT
ATOM      1  C   UNL     1      -8.423  -1.805 125.558  0.00  0.00    +0.000 C 
ENDROOT
BRANCH   1   2
ATOM      2  C   UNL     1      -7.455  -2.331 124.439  0.00  0.00    +0.000 A 
ATOM      3  C   UNL     1      -6.567  -3.403 124.566  0.00  0.00    +0.000 A 
ATOM      4  C   UNL     1      -5.379  -3.514 123.852  0.00  0.00    +0.000 A 
ATOM      5  C   UNL     1      -5.196  -2.711 122.748  0.00  0.00    +0.000 A 
ATOM      6  C   UNL     1      -6.194  -1.807 122.406  0.00  0.00    +0.000 A 
ATOM      7  C   UNL     1      -7.322  -1.636 123.225  0.00  0.00    +0.000 A 
ENDBRANCH   1   2
BRANCH   1   8
ATOM      8  C   UNL     1      -8.255  -2.320 127.003  0.00  0.00    +0.000 A 
ATOM      9  C   UNL     1      -8.863  -3.517 127.433  0.00  0.00    +0.000 A 
ATOM     10  C   UNL     1      -8.843  -3.874 128.797  0.00  0.00    +0.000 A 
ATOM     11  C   UNL     1      -8.115  -3.144 129.733  0.00  0.00    +0.000 A 
ATOM     12  C   UNL     1      -7.477  -1.989 129.326  0.00  0.00    +0.000 A 
ATOM     13  C   UNL     1      -7.669  -1.568 128.024  0.00  0.00    +0.000 A 
ENDBRANCH   1   8
BRANCH   1  14
ATOM     14  O   UNL     1      -8.344  -0.347 125.728  0.00  0.00    +0.000 OA
BRANCH  14  15
ATOM     15  C   UNL     1      -9.588   0.320 125.554  0.00  0.00    +0.000 C 
BRANCH  15  16
ATOM     16  C   UNL     1      -9.605   1.472 124.550  0.00  0.00    +0.000 C 
BRANCH  16  18
ATOM     17  C   UNL     1      -7.799   2.091 123.082  0.00  0.00    +0.000 C 
ATOM     18  N   UNL     1      -8.271   2.126 124.465  0.00  0.00    +0.000 NA
ATOM     19  C   UNL     1      -8.287   3.522 124.927  0.00  0.00    +0.000 C 
ENDBRANCH  16  18
ENDBRANCH  15  16
ENDBRANCH  14  15
ENDBRANCH   1  14
TORSDOF 6
ENDMDL
MODEL 6
REMARK VINA RESULT:      -6.1      7.962      9.153
REMARK  Name = Diphenhydramine
REMARK  8 active torsions:
REMARK  status: ('A' for Active; 'I' for Inactive)
REMARK    1  A    between atoms: C_1  and  N_2
REMARK    2  A    between atoms: N_2  and  C_3
REMARK    3  A    between atoms: N_2  and  C_4
REMARK    4  A    between atoms: C_4  and  C_5
REMARK    5  A    between atoms: C_5  and  O_6
REMARK    6  A    between atoms: O_6  and  C_7
REMARK    7  A    between atoms: C_7  and  C_8
REMARK    8  A    between atoms: C_7  and  C_14
REMARK                            x       y       z     vdW  Elec       q    Type
REMARK                         _______ _______ _______ _____ _____    ______ ____
ROOT
ATOM      1  C   UNL     1      -7.412   2.260 123.606  0.00  0.00    +0.000 C 
ENDROOT
BRANCH   1   2
ATOM      2  C   UNL     1      -6.537   2.793 124.797  0.00  0.00    +0.000 A 
ATOM      3  C   UNL     1      -6.390   4.133 125.166  0.00  0.00    +0.000 A 
ATOM      4  C   UNL     1      -5.260   4.645 125.792  0.00  0.00    +0.000 A 
ATOM      5  C   UNL     1      -4.365   3.766 126.359  0.00  0.00    +0.000 A 
ATOM      6  C   UNL     1      -4.616   2.403 126.265  0.00  0.00    +0.000 A 
ATOM      7  C   UNL     1      -5.702   1.921 125.516  0.00  0.00    +0.000 A 
ENDBRANCH   1   2
BRANCH   1   8
ATOM      8  C   UNL     1      -7.407   3.027 122.267  0.00  0.00    +0.000 A 
ATOM      9  C   UNL     1      -8.606   3.357 121.604  0.00  0.00    +0.000 A 
ATOM     10  C   UNL     1      -8.573   3.896 120.302  0.00  0.00    +0.000 A 
ATOM     11  C   UNL     1      -7.374   4.248 119.687  0.00  0.00    +0.000 A 
ATOM     12  C   UNL     1      -6.187   3.971 120.335  0.00  0.00    +0.000 A 
ATOM     13  C   UNL     1      -6.249   3.274 121.527  0.00  0.00    +0.000 A 
ENDBRANCH   1   8
BRANCH   1  14
ATOM     14  O   UNL     1      -7.033   0.900 123.198  0.00  0.00    +0.000 OA
BRANCH  14  15
ATOM     15  C   UNL     1      -8.039  -0.075 123.445  0.00  0.00    +0.000 C 
BRANCH  15  16
ATOM     16  C   UNL     1      -7.665  -1.526 123.143  0.00  0.00    +0.000 C 
BRANCH  16  18
ATOM     17  C   UNL     1      -8.854  -1.704 125.230  0.00  0.00    +0.000 C 
ATOM     18  N   UNL     1      -8.337  -2.458 124.089  0.00  0.00    +0.000 NA
ATOM     19  C   UNL     1      -9.445  -3.202 123.470  0.00  0.00    +0.000 C 
ENDBRANCH  16  18
ENDBRANCH  15  16
ENDBRANCH  14  15
ENDBRANCH   1  14
TORSDOF 6
ENDMDL
MODEL 7
REMARK VINA RESULT:      -6.1      8.245      9.847
REMARK  Name = Diphenhydramine
REMARK  8 active torsions:
REMARK  status: ('A' for Active; 'I' for Inactive)
REMARK    1  A    between atoms: C_1  and  N_2
REMARK    2  A    between atoms: N_2  and  C_3
REMARK    3  A    between atoms: N_2  and  C_4
REMARK    4  A    between atoms: C_4  and  C_5
REMARK    5  A    between atoms: C_5  and  O_6
REMARK    6  A    between atoms: O_6  and  C_7
REMARK    7  A    between atoms: C_7  and  C_8
REMARK    8  A    between atoms: C_7  and  C_14
REMARK                            x       y       z     vdW  Elec       q    Type
REMARK                         _______ _______ _______ _____ _____    ______ ____
ROOT
ATOM      1  C   UNL     1      -6.303   3.093 122.887  0.00  0.00    +0.000 C 
ENDROOT
BRANCH   1   2
ATOM      2  C   UNL     1      -7.402   2.035 123.264  0.00  0.00    +0.000 A 
ATOM      3  C   UNL     1      -7.195   0.661 123.410  0.00  0.00    +0.000 A 
ATOM      4  C   UNL     1      -8.177  -0.298 123.185  0.00  0.00    +0.000 A 
ATOM      5  C   UNL     1      -9.491   0.107 123.118  0.00  0.00    +0.000 A 
ATOM      6  C   UNL     1      -9.781   1.459 123.253  0.00  0.00    +0.000 A 
ATOM      7  C   UNL     1      -8.753   2.410 123.351  0.00  0.00    +0.000 A 
ENDBRANCH   1   2
BRANCH   1   8
ATOM      8  C   UNL     1      -6.400   3.829 121.534  0.00  0.00    +0.000 A 
ATOM      9  C   UNL     1      -7.544   3.724 120.719  0.00  0.00    +0.000 A 
ATOM     10  C   UNL     1      -7.539   4.257 119.414  0.00  0.00    +0.000 A 
ATOM     11  C   UNL     1      -6.474   5.018 118.940  0.00  0.00    +0.000 A 
ATOM     12  C   UNL     1      -5.357   5.170 119.738  0.00  0.00    +0.000 A 
ATOM     13  C   UNL     1      -5.319   4.480 120.935  0.00  0.00    +0.000 A 
ENDBRANCH   1   8
BRANCH   1  14
ATOM     14  O   UNL     1      -6.236   4.200 123.850  0.00  0.00    +0.000 OA
BRANCH  14  15
ATOM     15  C   UNL     1      -5.090   4.160 124.693  0.00  0.00    +0.000 C 
BRANCH  15  16
ATOM     16  C   UNL     1      -5.354   4.209 126.198  0.00  0.00    +0.000 C 
BRANCH  16  18
ATOM     17  C   UNL     1      -4.941   1.839 126.303  0.00  0.00    +0.000 C 
ATOM     18  N   UNL     1      -4.612   3.130 126.905  0.00  0.00    +0.000 NA
ATOM     19  C   UNL     1      -3.153   3.316 126.864  0.00  0.00    +0.000 C 
ENDBRANCH  16  18
ENDBRANCH  15  16
ENDBRANCH  14  15
ENDBRANCH   1  14
TORSDOF 6
ENDMDL
MODEL 8
REMARK VINA RESULT:      -6.1      2.017      5.259
REMARK  Name = Diphenhydramine
REMARK  8 active torsions:
REMARK  status: ('A' for Active; 'I' for Inactive)
REMARK    1  A    between atoms: C_1  and  N_2
REMARK    2  A    between atoms: N_2  and  C_3
REMARK    3  A    between atoms: N_2  and  C_4
REMARK    4  A    between atoms: C_4  and  C_5
REMARK    5  A    between atoms: C_5  and  O_6
REMARK    6  A    between atoms: O_6  and  C_7
REMARK    7  A    between atoms: C_7  and  C_8
REMARK    8  A    between atoms: C_7  and  C_14
REMARK                            x       y       z     vdW  Elec       q    Type
REMARK                         _______ _______ _______ _____ _____    ______ ____
ROOT
ATOM      1  C   UNL     1      -9.287   6.563 131.109  0.00  0.00    +0.000 C 
ENDROOT
BRANCH   1   2
ATOM      2  C   UNL     1     -10.449   7.104 130.201  0.00  0.00    +0.000 A 
ATOM      3  C   UNL     1     -10.300   7.644 128.920  0.00  0.00    +0.000 A 
ATOM      4  C   UNL     1     -11.159   8.590 128.373  0.00  0.00    +0.000 A 
ATOM      5  C   UNL     1     -12.383   8.792 128.970  0.00  0.00    +0.000 A 
ATOM      6  C   UNL     1     -12.702   8.060 130.107  0.00  0.00    +0.000 A 
ATOM      7  C   UNL     1     -11.758   7.208 130.702  0.00  0.00    +0.000 A 
ENDBRANCH   1   2
BRANCH   1   8
ATOM      8  C   UNL     1      -9.417   5.162 131.743  0.00  0.00    +0.000 A 
ATOM      9  C   UNL     1      -9.278   4.965 133.131  0.00  0.00    +0.000 A 
ATOM     10  C   UNL     1      -9.223   3.661 133.663  0.00  0.00    +0.000 A 
ATOM     11  C   UNL     1      -9.440   2.538 132.869  0.00  0.00    +0.000 A 
ATOM     12  C   UNL     1      -9.619   2.709 131.510  0.00  0.00    +0.000 A 
ATOM     13  C   UNL     1      -9.483   3.984 130.995  0.00  0.00    +0.000 A 
ENDBRANCH   1   8
BRANCH   1  14
ATOM     14  O   UNL     1      -8.009   6.472 130.389  0.00  0.00    +0.000 OA
BRANCH  14  15
ATOM     15  C   UNL     1      -6.885   6.876 131.161  0.00  0.00    +0.000 C 
BRANCH  15  16
ATOM     16  C   UNL     1      -5.585   6.111 130.916  0.00  0.00    +0.000 C 
BRANCH  16  18
ATOM     17  C   UNL     1      -5.711   5.870 133.309  0.00  0.00    +0.000 C 
ATOM     18  N   UNL     1      -5.255   5.235 132.073  0.00  0.00    +0.000 NA
ATOM     19  C   UNL     1      -5.862   3.900 131.973  0.00  0.00    +0.000 C 
ENDBRANCH  16  18
ENDBRANCH  15  16
ENDBRANCH  14  15
ENDBRANCH   1  14
TORSDOF 6
ENDMDL
MODEL 9
REMARK VINA RESULT:      -6.0      7.121     10.906
REMARK  Name = Diphenhydramine
REMARK  8 active torsions:
REMARK  status: ('A' for Active; 'I' for Inactive)
REMARK    1  A    between atoms: C_1  and  N_2
REMARK    2  A    between atoms: N_2  and  C_3
REMARK    3  A    between atoms: N_2  and  C_4
REMARK    4  A    between atoms: C_4  and  C_5
REMARK    5  A    between atoms: C_5  and  O_6
REMARK    6  A    between atoms: O_6  and  C_7
REMARK    7  A    between atoms: C_7  and  C_8
REMARK    8  A    between atoms: C_7  and  C_14
REMARK                            x       y       z     vdW  Elec       q    Type
REMARK                         _______ _______ _______ _____ _____    ______ ____
ROOT
ATOM      1  C   UNL     1      -7.793  -1.967 127.412  0.00  0.00    +0.000 C 
ENDROOT
BRANCH   1   2
ATOM      2  C   UNL     1      -7.919  -2.556 125.961  0.00  0.00    +0.000 A 
ATOM      3  C   UNL     1      -6.949  -2.469 124.958  0.00  0.00    +0.000 A 
ATOM      4  C   UNL     1      -7.238  -2.465 123.599  0.00  0.00    +0.000 A 
ATOM      5  C   UNL     1      -8.489  -2.872 123.190  0.00  0.00    +0.000 A 
ATOM      6  C   UNL     1      -9.418  -3.247 124.152  0.00  0.00    +0.000 A 
ATOM      7  C   UNL     1      -9.130  -3.116 125.520  0.00  0.00    +0.000 A 
ENDBRANCH   1   2
BRANCH   1   8
ATOM      8  C   UNL     1      -6.785  -2.596 128.396  0.00  0.00    +0.000 A 
ATOM      9  C   UNL     1      -5.396  -2.407 128.248  0.00  0.00    +0.000 A 
ATOM     10  C   UNL     1      -4.490  -3.133 129.047  0.00  0.00    +0.000 A 
ATOM     11  C   UNL     1      -4.925  -3.946 130.090  0.00  0.00    +0.000 A 
ATOM     12  C   UNL     1      -6.283  -4.115 130.280  0.00  0.00    +0.000 A 
ATOM     13  C   UNL     1      -7.141  -3.536 129.365  0.00  0.00    +0.000 A 
ENDBRANCH   1   8
BRANCH   1  14
ATOM     14  O   UNL     1      -7.398  -0.551 127.410  0.00  0.00    +0.000 OA
BRANCH  14  15
ATOM     15  C   UNL     1      -8.377   0.318 126.854  0.00  0.00    +0.000 C 
BRANCH  15  16
ATOM     16  C   UNL     1      -7.880   1.324 125.816  0.00  0.00    +0.000 C 
BRANCH  16  18
ATOM     17  C   UNL     1      -8.419   3.416 124.752  0.00  0.00    +0.000 C 
ATOM     18  N   UNL     1      -8.983   2.215 125.365  0.00  0.00    +0.000 NA
ATOM     19  C   UNL     1      -9.884   1.567 124.399  0.00  0.00    +0.000 C 
ENDBRANCH  16  18
ENDBRANCH  15  16
ENDBRANCH  14  15
ENDBRANCH   1  14
TORSDOF 6
ENDMDL
