MODEL 1
REMARK VINA RESULT:      -7.3      0.000      0.000
REMARK  Name = Diphenylguanidine
REMARK  2 active torsions:
REMARK  status: ('A' for Active; 'I' for Inactive)
REMARK    1  A    between atoms: N_3  and  C_4
REMARK    2  A    between atoms: N_10  and  C_11
REMARK                            x       y       z     vdW  Elec       q    Type
REMARK                         _______ _______ _______ _____ _____    ______ ____
ROOT
ATOM      1  N   UNL     1      -9.858   1.884 124.595  0.00  0.00    +0.000 NA
ATOM      2  C   UNL     1      -8.977   1.892 123.639  0.00  0.00    +0.000 C 
ATOM      3  N   UNL     1      -8.238   0.825 123.224  0.00  0.00    +0.000 N 
ATOM      4  N   UNL     1      -8.691   3.107 123.092  0.00  0.00    +0.000 N 
ATOM      5  H   UNL     1      -9.885   0.942 124.989  0.00  0.00    +0.000 HD
ATOM      6  H   UNL     1      -7.440   1.030 122.636  0.00  0.00    +0.000 HD
ATOM      7  H   UNL     1      -9.227   3.863 123.501  0.00  0.00    +0.000 HD
ENDROOT
BRANCH   3   8
ATOM      8  C   UNL     1      -8.333  -0.522 123.605  0.00  0.00    +0.000 A 
ATOM      9  C   UNL     1      -9.202  -1.368 122.901  0.00  0.00    +0.000 A 
ATOM     10  C   UNL     1      -9.280  -2.728 123.206  0.00  0.00    +0.000 A 
ATOM     11  C   UNL     1      -8.446  -3.269 124.182  0.00  0.00    +0.000 A 
ATOM     12  C   UNL     1      -7.575  -2.442 124.887  0.00  0.00    +0.000 A 
ATOM     13  C   UNL     1      -7.533  -1.076 124.609  0.00  0.00    +0.000 A 
ENDBRANCH   3   8
BRANCH   4  14
ATOM     14  C   UNL     1      -7.956   3.442 121.947  0.00  0.00    +0.000 A 
ATOM     15  C   UNL     1      -8.630   3.766 120.760  0.00  0.00    +0.000 A 
ATOM     16  C   UNL     1      -7.918   4.146 119.618  0.00  0.00    +0.000 A 
ATOM     17  C   UNL     1      -6.531   4.263 119.668  0.00  0.00    +0.000 A 
ATOM     18  C   UNL     1      -5.851   3.953 120.841  0.00  0.00    +0.000 A 
ATOM     19  C   UNL     1      -6.560   3.526 121.962  0.00  0.00    +0.000 A 
ENDBRANCH   4  14
TORSDOF 2
ENDMDL
MODEL 2
REMARK VINA RESULT:      -7.0      1.210      6.179
REMARK  Name = Diphenylguanidine
REMARK  2 active torsions:
REMARK  status: ('A' for Active; 'I' for Inactive)
REMARK    1  A    between atoms: N_3  and  C_4
REMARK    2  A    between atoms: N_10  and  C_11
REMARK                            x       y       z     vdW  Elec       q    Type
REMARK                         _______ _______ _______ _____ _____    ______ ____
ROOT
ATOM      1  N   UNL     1      -8.158   3.875 123.977  0.00  0.00    +0.000 NA
ATOM      2  C   UNL     1      -7.853   2.736 123.427  0.00  0.00    +0.000 C 
ATOM      3  N   UNL     1      -7.236   2.570 122.223  0.00  0.00    +0.000 N 
ATOM      4  N   UNL     1      -8.302   1.619 124.064  0.00  0.00    +0.000 N 
ATOM      5  H   UNL     1      -7.867   4.618 123.340  0.00  0.00    +0.000 HD
ATOM      6  H   UNL     1      -7.271   1.640 121.823  0.00  0.00    +0.000 HD
ATOM      7  H   UNL     1      -8.813   1.825 124.914  0.00  0.00    +0.000 HD
ENDROOT
BRANCH   3   8
ATOM      8  C   UNL     1      -6.672   3.534 121.375  0.00  0.00    +0.000 A 
ATOM      9  C   UNL     1      -5.412   4.063 121.690  0.00  0.00    +0.000 A 
ATOM     10  C   UNL     1      -4.786   4.976 120.840  0.00  0.00    +0.000 A 
ATOM     11  C   UNL     1      -5.389   5.329 119.635  0.00  0.00    +0.000 A 
ATOM     12  C   UNL     1      -6.639   4.809 119.306  0.00  0.00    +0.000 A 
ATOM     13  C   UNL     1      -7.280   3.930 120.179  0.00  0.00    +0.000 A 
ENDBRANCH   3   8
BRANCH   4  14
ATOM     14  C   UNL     1      -7.998   0.267 123.858  0.00  0.00    +0.000 A 
ATOM     15  C   UNL     1      -8.898  -0.547 123.153  0.00  0.00    +0.000 A 
ATOM     16  C   UNL     1      -8.596  -1.888 122.898  0.00  0.00    +0.000 A 
ATOM     17  C   UNL     1      -7.367  -2.413 123.291  0.00  0.00    +0.000 A 
ATOM     18  C   UNL     1      -6.462  -1.614 123.982  0.00  0.00    +0.000 A 
ATOM     19  C   UNL     1      -6.788  -0.293 124.280  0.00  0.00    +0.000 A 
ENDBRANCH   4  14
TORSDOF 2
ENDMDL
MODEL 3
REMARK VINA RESULT:      -6.9      8.910     10.358
REMARK  Name = Diphenylguanidine
REMARK  2 active torsions:
REMARK  status: ('A' for Active; 'I' for Inactive)
REMARK    1  A    between atoms: N_3  and  C_4
REMARK    2  A    between atoms: N_10  and  C_11
REMARK                            x       y       z     vdW  Elec       q    Type
REMARK                         _______ _______ _______ _____ _____    ______ ____
ROOT
ATOM      1  N   UNL     1     -10.514   5.708 132.740  0.00  0.00    +0.000 NA
ATOM      2  C   UNL     1     -10.704   6.309 131.602  0.00  0.00    +0.000 C 
ATOM      3  N   UNL     1      -9.746   6.577 130.670  0.00  0.00    +0.000 N 
ATOM      4  N   UNL     1     -11.951   6.814 131.387  0.00  0.00    +0.000 N 
ATOM      5  H   UNL     1      -9.519   5.489 132.816  0.00  0.00    +0.000 HD
ATOM      6  H   UNL     1      -9.993   7.244 129.949  0.00  0.00    +0.000 HD
ATOM      7  H   UNL     1     -12.588   6.638 132.155  0.00  0.00    +0.000 HD
ENDROOT
BRANCH   3   8
ATOM      8  C   UNL     1      -8.404   6.171 130.635  0.00  0.00    +0.000 A 
ATOM      9  C   UNL     1      -8.069   4.988 129.960  0.00  0.00    +0.000 A 
ATOM     10  C   UNL     1      -6.739   4.582 129.846  0.00  0.00    +0.000 A 
ATOM     11  C   UNL     1      -5.721   5.383 130.358  0.00  0.00    +0.000 A 
ATOM     12  C   UNL     1      -6.038   6.563 131.028  0.00  0.00    +0.000 A 
ATOM     13  C   UNL     1      -7.372   6.943 131.177  0.00  0.00    +0.000 A 
ENDBRANCH   3   8
BRANCH   4  14
ATOM     14  C   UNL     1     -12.537   7.335 130.226  0.00  0.00    +0.000 A 
ATOM     15  C   UNL     1     -12.623   8.724 130.055  0.00  0.00    +0.000 A 
ATOM     16  C   UNL     1     -13.164   9.266 128.885  0.00  0.00    +0.000 A 
ATOM     17  C   UNL     1     -13.569   8.426 127.851  0.00  0.00    +0.000 A 
ATOM     18  C   UNL     1     -13.480   7.046 128.003  0.00  0.00    +0.000 A 
ATOM     19  C   UNL     1     -12.988   6.509 129.191  0.00  0.00    +0.000 A 
ENDBRANCH   4  14
TORSDOF 2
ENDMDL
MODEL 4
REMARK VINA RESULT:      -6.9      0.902      1.934
REMARK  Name = Diphenylguanidine
REMARK  2 active torsions:
REMARK  status: ('A' for Active; 'I' for Inactive)
REMARK    1  A    between atoms: N_3  and  C_4
REMARK    2  A    between atoms: N_10  and  C_11
REMARK                            x       y       z     vdW  Elec       q    Type
REMARK                         _______ _______ _______ _____ _____    ______ ____
ROOT
ATOM      1  N   UNL     1     -10.339   1.746 124.352  0.00  0.00    +0.000 NA
ATOM      2  C   UNL     1      -9.153   1.799 123.821  0.00  0.00    +0.000 C 
ATOM      3  N   UNL     1      -8.299   0.748 123.668  0.00  0.00    +0.000 N 
ATOM      4  N   UNL     1      -8.690   3.039 123.502  0.00  0.00    +0.000 N 
ATOM      5  H   UNL     1     -10.508   0.783 124.648  0.00  0.00    +0.000 HD
ATOM      6  H   UNL     1      -7.337   0.977 123.453  0.00  0.00    +0.000 HD
ATOM      7  H   UNL     1      -9.352   3.777 123.710  0.00  0.00    +0.000 HD
ENDROOT
BRANCH   3   8
ATOM      8  C   UNL     1      -8.521  -0.617 123.902  0.00  0.00    +0.000 A 
ATOM      9  C   UNL     1      -8.407  -1.109 125.211  0.00  0.00    +0.000 A 
ATOM     10  C   UNL     1      -8.684  -2.447 125.499  0.00  0.00    +0.000 A 
ATOM     11  C   UNL     1      -9.132  -3.296 124.490  0.00  0.00    +0.000 A 
ATOM     12  C   UNL     1      -9.253  -2.821 123.186  0.00  0.00    +0.000 A 
ATOM     13  C   UNL     1      -8.934  -1.495 122.895  0.00  0.00    +0.000 A 
ENDBRANCH   3   8
BRANCH   4  14
ATOM     14  C   UNL     1      -7.568   3.431 122.759  0.00  0.00    +0.000 A 
ATOM     15  C   UNL     1      -6.391   3.805 123.424  0.00  0.00    +0.000 A 
ATOM     16  C   UNL     1      -5.246   4.157 122.703  0.00  0.00    +0.000 A 
ATOM     17  C   UNL     1      -5.248   4.081 121.312  0.00  0.00    +0.000 A 
ATOM     18  C   UNL     1      -6.405   3.702 120.640  0.00  0.00    +0.000 A 
ATOM     19  C   UNL     1      -7.559   3.401 121.360  0.00  0.00    +0.000 A 
ENDBRANCH   4  14
TORSDOF 2
ENDMDL
MODEL 5
REMARK VINA RESULT:      -6.7      8.720     11.176
REMARK  Name = Diphenylguanidine
REMARK  2 active torsions:
REMARK  status: ('A' for Active; 'I' for Inactive)
REMARK    1  A    between atoms: N_3  and  C_4
REMARK    2  A    between atoms: N_10  and  C_11
REMARK                            x       y       z     vdW  Elec       q    Type
REMARK                         _______ _______ _______ _____ _____    ______ ____
ROOT
ATOM      1  N   UNL     1      -9.110   5.571 128.233  0.00  0.00    +0.000 NA
ATOM      2  C   UNL     1      -9.345   5.636 129.511  0.00  0.00    +0.000 C 
ATOM      3  N   UNL     1     -10.376   6.303 130.101  0.00  0.00    +0.000 N 
ATOM      4  N   UNL     1      -8.404   5.083 130.325  0.00  0.00    +0.000 N 
ATOM      5  H   UNL     1      -9.825   6.122 127.755  0.00  0.00    +0.000 HD
ATOM      6  H   UNL     1     -10.301   6.455 131.099  0.00  0.00    +0.000 HD
ATOM      7  H   UNL     1      -7.631   4.669 129.817  0.00  0.00    +0.000 HD
ENDROOT
BRANCH   3   8
ATOM      8  C   UNL     1     -11.474   6.943 129.508  0.00  0.00    +0.000 A 
ATOM      9  C   UNL     1     -11.397   8.317 129.238  0.00  0.00    +0.000 A 
ATOM     10  C   UNL     1     -12.440   8.979 128.590  0.00  0.00    +0.000 A 
ATOM     11  C   UNL     1     -13.551   8.262 128.152  0.00  0.00    +0.000 A 
ATOM     12  C   UNL     1     -13.641   6.896 128.408  0.00  0.00    +0.000 A 
ATOM     13  C   UNL     1     -12.615   6.247 129.095  0.00  0.00    +0.000 A 
ENDBRANCH   3   8
BRANCH   4  14
ATOM     14  C   UNL     1      -8.431   4.813 131.700  0.00  0.00    +0.000 A 
ATOM     15  C   UNL     1      -7.901   5.747 132.601  0.00  0.00    +0.000 A 
ATOM     16  C   UNL     1      -7.958   5.519 133.980  0.00  0.00    +0.000 A 
ATOM     17  C   UNL     1      -8.597   4.384 134.473  0.00  0.00    +0.000 A 
ATOM     18  C   UNL     1      -9.136   3.454 133.590  0.00  0.00    +0.000 A 
ATOM     19  C   UNL     1      -9.032   3.660 132.216  0.00  0.00    +0.000 A 
ENDBRANCH   4  14
TORSDOF 2
ENDMDL
MODEL 6
REMARK VINA RESULT:      -6.6      8.395     10.866
REMARK  Name = Diphenylguanidine
REMARK  2 active torsions:
REMARK  status: ('A' for Active; 'I' for Inactive)
REMARK    1  A    between atoms: N_3  and  C_4
REMARK    2  A    between atoms: N_10  and  C_11
REMARK                            x       y       z     vdW  Elec       q    Type
REMARK                         _______ _______ _______ _____ _____    ______ ____
ROOT
ATOM      1  N   UNL     1     -10.219   6.463 132.960  0.00  0.00    +0.000 NA
ATOM      2  C   UNL     1     -10.138   5.480 132.112  0.00  0.00    +0.000 C 
ATOM      3  N   UNL     1     -10.586   5.496 130.825  0.00  0.00    +0.000 N 
ATOM      4  N   UNL     1      -9.671   4.298 132.602  0.00  0.00    +0.000 N 
ATOM      5  H   UNL     1     -10.691   7.241 132.495  0.00  0.00    +0.000 HD
ATOM      6  H   UNL     1     -10.663   4.598 130.364  0.00  0.00    +0.000 HD
ATOM      7  H   UNL     1      -9.426   4.344 133.584  0.00  0.00    +0.000 HD
ENDROOT
BRANCH   3   8
ATOM      8  C   UNL     1     -11.095   6.567 130.077  0.00  0.00    +0.000 A 
ATOM      9  C   UNL     1     -10.224   7.296 129.254  0.00  0.00    +0.000 A 
ATOM     10  C   UNL     1     -10.700   8.328 128.444  0.00  0.00    +0.000 A 
ATOM     11  C   UNL     1     -12.065   8.606 128.404  0.00  0.00    +0.000 A 
ATOM     12  C   UNL     1     -12.943   7.888 129.212  0.00  0.00    +0.000 A 
ATOM     13  C   UNL     1     -12.456   6.887 130.053  0.00  0.00    +0.000 A 
ENDBRANCH   3   8
BRANCH   4  14
ATOM     14  C   UNL     1      -9.285   3.125 131.940  0.00  0.00    +0.000 A 
ATOM     15  C   UNL     1      -8.258   3.172 130.986  0.00  0.00    +0.000 A 
ATOM     16  C   UNL     1      -7.827   2.007 130.346  0.00  0.00    +0.000 A 
ATOM     17  C   UNL     1      -8.376   0.775 130.695  0.00  0.00    +0.000 A 
ATOM     18  C   UNL     1      -9.389   0.713 131.646  0.00  0.00    +0.000 A 
ATOM     19  C   UNL     1      -9.851   1.883 132.245  0.00  0.00    +0.000 A 
ENDBRANCH   4  14
TORSDOF 2
ENDMDL
MODEL 7
REMARK VINA RESULT:      -6.6      1.347      6.223
REMARK  Name = Diphenylguanidine
REMARK  2 active torsions:
REMARK  status: ('A' for Active; 'I' for Inactive)
REMARK    1  A    between atoms: N_3  and  C_4
REMARK    2  A    between atoms: N_10  and  C_11
REMARK                            x       y       z     vdW  Elec       q    Type
REMARK                         _______ _______ _______ _____ _____    ______ ____
ROOT
ATOM      1  N   UNL     1      -9.472   2.855 124.337  0.00  0.00    +0.000 NA
ATOM      2  C   UNL     1      -8.856   1.751 124.032  0.00  0.00    +0.000 C 
ATOM      3  N   UNL     1      -7.683   1.653 123.346  0.00  0.00    +0.000 N 
ATOM      4  N   UNL     1      -9.511   0.594 124.327  0.00  0.00    +0.000 N 
ATOM      5  H   UNL     1      -8.930   3.632 123.956  0.00  0.00    +0.000 HD
ATOM      6  H   UNL     1      -7.446   0.737 122.987  0.00  0.00    +0.000 HD
ATOM      7  H   UNL     1     -10.409   0.747 124.771  0.00  0.00    +0.000 HD
ENDROOT
BRANCH   3   8
ATOM      8  C   UNL     1      -6.809   2.671 122.935  0.00  0.00    +0.000 A 
ATOM      9  C   UNL     1      -6.169   3.451 123.908  0.00  0.00    +0.000 A 
ATOM     10  C   UNL     1      -5.243   4.430 123.544  0.00  0.00    +0.000 A 
ATOM     11  C   UNL     1      -4.904   4.603 122.204  0.00  0.00    +0.000 A 
ATOM     12  C   UNL     1      -5.529   3.832 121.226  0.00  0.00    +0.000 A 
ATOM     13  C   UNL     1      -6.485   2.885 121.591  0.00  0.00    +0.000 A 
ENDBRANCH   3   8
BRANCH   4  14
ATOM     14  C   UNL     1      -9.068  -0.735 124.312  0.00  0.00    +0.000 A 
ATOM     15  C   UNL     1      -8.490  -1.287 125.465  0.00  0.00    +0.000 A 
ATOM     16  C   UNL     1      -8.080  -2.624 125.486  0.00  0.00    +0.000 A 
ATOM     17  C   UNL     1      -8.298  -3.438 124.377  0.00  0.00    +0.000 A 
ATOM     18  C   UNL     1      -8.879  -2.906 123.231  0.00  0.00    +0.000 A 
ATOM     19  C   UNL     1      -9.239  -1.560 123.195  0.00  0.00    +0.000 A 
ENDBRANCH   4  14
TORSDOF 2
ENDMDL
MODEL 8
REMARK VINA RESULT:      -6.3      8.389      9.642
REMARK  Name = Diphenylguanidine
REMARK  2 active torsions:
REMARK  status: ('A' for Active; 'I' for Inactive)
REMARK    1  A    between atoms: N_3  and  C_4
REMARK    2  A    between atoms: N_10  and  C_11
REMARK                            x       y       z     vdW  Elec       q    Type
REMARK                         _______ _______ _______ _____ _____    ______ ____
ROOT
ATOM      1  N   UNL     1     -10.712   5.662 132.679  0.00  0.00    +0.000 NA
ATOM      2  C   UNL     1     -10.938   5.995 131.442  0.00  0.00    +0.000 C 
ATOM      3  N   UNL     1     -10.274   5.518 130.351  0.00  0.00    +0.000 N 
ATOM      4  N   UNL     1     -11.838   6.998 131.242  0.00  0.00    +0.000 N 
ATOM      5  H   UNL     1      -9.940   4.993 132.688  0.00  0.00    +0.000 HD
ATOM      6  H   UNL     1     -10.399   6.031 129.488  0.00  0.00    +0.000 HD
ATOM      7  H   UNL     1     -12.236   7.352 132.104  0.00  0.00    +0.000 HD
ENDROOT
BRANCH   3   8
ATOM      8  C   UNL     1      -9.321   4.492 130.273  0.00  0.00    +0.000 A 
ATOM      9  C   UNL     1      -7.961   4.818 130.378  0.00  0.00    +0.000 A 
ATOM     10  C   UNL     1      -6.983   3.821 130.371  0.00  0.00    +0.000 A 
ATOM     11  C   UNL     1      -7.358   2.481 130.314  0.00  0.00    +0.000 A 
ATOM     12  C   UNL     1      -8.705   2.141 130.213  0.00  0.00    +0.000 A 
ATOM     13  C   UNL     1      -9.676   3.143 130.177  0.00  0.00    +0.000 A 
ENDBRANCH   3   8
BRANCH   4  14
ATOM     14  C   UNL     1     -12.443   7.460 130.066  0.00  0.00    +0.000 A 
ATOM     15  C   UNL     1     -13.015   6.542 129.173  0.00  0.00    +0.000 A 
ATOM     16  C   UNL     1     -13.662   6.984 128.015  0.00  0.00    +0.000 A 
ATOM     17  C   UNL     1     -13.796   8.348 127.768  0.00  0.00    +0.000 A 
ATOM     18  C   UNL     1     -13.241   9.269 128.650  0.00  0.00    +0.000 A 
ATOM     19  C   UNL     1     -12.552   8.824 129.777  0.00  0.00    +0.000 A 
ENDBRANCH   4  14
TORSDOF 2
ENDMDL
MODEL 9
REMARK VINA RESULT:      -6.3      8.960      9.870
REMARK  Name = Diphenylguanidine
REMARK  2 active torsions:
REMARK  status: ('A' for Active; 'I' for Inactive)
REMARK    1  A    between atoms: N_3  and  C_4
REMARK    2  A    between atoms: N_10  and  C_11
REMARK                            x       y       z     vdW  Elec       q    Type
REMARK                         _______ _______ _______ _____ _____    ______ ____
ROOT
ATOM      1  N   UNL     1      -9.585   4.168 134.121  0.00  0.00    +0.000 NA
ATOM      2  C   UNL     1      -9.791   4.573 132.902  0.00  0.00    +0.000 C 
ATOM      3  N   UNL     1      -9.444   3.902 131.767  0.00  0.00    +0.000 N 
ATOM      4  N   UNL     1     -10.292   5.832 132.762  0.00  0.00    +0.000 N 
ATOM      5  H   UNL     1      -9.103   3.268 134.075  0.00  0.00    +0.000 HD
ATOM      6  H   UNL     1      -9.459   4.435 130.907  0.00  0.00    +0.000 HD
ATOM      7  H   UNL     1     -10.457   6.295 133.648  0.00  0.00    +0.000 HD
ENDROOT
BRANCH   3   8
ATOM      8  C   UNL     1      -8.929   2.606 131.626  0.00  0.00    +0.000 A 
ATOM      9  C   UNL     1      -7.561   2.443 131.360  0.00  0.00    +0.000 A 
ATOM     10  C   UNL     1      -6.995   1.170 131.276  0.00  0.00    +0.000 A 
ATOM     11  C   UNL     1      -7.780   0.044 131.515  0.00  0.00    +0.000 A 
ATOM     12  C   UNL     1      -9.138   0.189 131.785  0.00  0.00    +0.000 A 
ATOM     13  C   UNL     1      -9.709   1.462 131.824  0.00  0.00    +0.000 A 
ENDBRANCH   3   8
BRANCH   4  14
ATOM     14  C   UNL     1     -10.800   6.492 131.635  0.00  0.00    +0.000 A 
ATOM     15  C   UNL     1     -12.174   6.760 131.548  0.00  0.00    +0.000 A 
ATOM     16  C   UNL     1     -12.696   7.456 130.454  0.00  0.00    +0.000 A 
ATOM     17  C   UNL     1     -11.843   7.942 129.465  0.00  0.00    +0.000 A 
ATOM     18  C   UNL     1     -10.477   7.690 129.543  0.00  0.00    +0.000 A 
ATOM     19  C   UNL     1      -9.967   6.953 130.609  0.00  0.00    +0.000 A 
ENDBRANCH   4  14
TORSDOF 2
ENDMDL
