MODEL 1
REMARK VINA RESULT:      -6.4      0.000      0.000
REMARK  Name = Dipivefrin
REMARK  17 active torsions:
REMARK  status: ('A' for Active; 'I' for Inactive)
REMARK    1  A    between atoms: C_1  and  N_2
REMARK    2  A    between atoms: N_2  and  C_3
REMARK    3  A    between atoms: C_3  and  C_4
REMARK    4  A    between atoms: C_4  and  O_5
REMARK    5  A    between atoms: C_4  and  C_6
REMARK    6  A    between atoms: C_8  and  O_9
REMARK    7  A    between atoms: O_9  and  C_10
REMARK    8  A    between atoms: C_10  and  C_12
REMARK    9  A    between atoms: C_12  and  C_13
REMARK   10  A    between atoms: C_12  and  C_14
REMARK   11  A    between atoms: C_12  and  C_15
REMARK   12  A    between atoms: C_16  and  O_17
REMARK   13  A    between atoms: O_17  and  C_18
REMARK   14  A    between atoms: C_18  and  C_20
REMARK   15  A    between atoms: C_20  and  C_21
REMARK   16  A    between atoms: C_20  and  C_22
REMARK   17  A    between atoms: C_20  and  C_23
REMARK                            x       y       z     vdW  Elec       q    Type
REMARK                         _______ _______ _______ _____ _____    ______ ____
ROOT
ATOM      1  C   UNL     1      -7.651   0.143 129.134  0.00  0.00    +0.000 A 
ATOM      2  C   UNL     1      -7.638  -0.663 127.969  0.00  0.00    +0.000 A 
ATOM      3  C   UNL     1      -8.062  -0.137 126.732  0.00  0.00    +0.000 A 
ATOM      4  C   UNL     1      -8.636   1.149 126.711  0.00  0.00    +0.000 A 
ATOM      5  C   UNL     1      -8.591   1.949 127.850  0.00  0.00    +0.000 A 
ATOM      6  C   UNL     1      -8.118   1.453 129.048  0.00  0.00    +0.000 A 
ENDROOT
BRANCH   1   7
ATOM      7  C   UNL     1      -7.202  -0.314 130.503  0.00  0.00    +0.000 C 
BRANCH   7   8
ATOM      8  O   UNL     1      -8.117  -1.274 131.030  0.00  0.00    +0.000 OA
ATOM      9  H   UNL     1      -9.008  -0.914 130.922  0.00  0.00    +0.000 HD
ENDBRANCH   7   8
BRANCH   7  10
ATOM     10  C   UNL     1      -7.043   0.888 131.451  0.00  0.00    +0.000 C 
BRANCH  10  12
ATOM     11  C   UNL     1      -8.816   1.968 132.649  0.00  0.00    +0.000 C 
ATOM     12  N   UNL     1      -7.981   0.783 132.573  0.00  0.00    +0.000 NA
ATOM     13  H   UNL     1      -8.547  -0.059 132.448  0.00  0.00    +0.000 HD
ENDBRANCH  10  12
ENDBRANCH   7  10
ENDBRANCH   1   7
BRANCH   3  14
ATOM     14  O   UNL     1      -7.857  -0.959 125.576  0.00  0.00    +0.000 OA
BRANCH  14  15
ATOM     15  C   UNL     1      -8.814  -1.914 125.235  0.00  0.00    +0.000 C 
ATOM     16  O   UNL     1      -9.962  -1.945 125.678  0.00  0.00    +0.000 OA
BRANCH  15  17
ATOM     17  C   UNL     1      -8.443  -2.891 124.134  0.00  0.00    +0.000 C 
ATOM     18  C   UNL     1      -7.867  -4.133 124.820  0.00  0.00    +0.000 C 
ATOM     19  C   UNL     1      -9.603  -3.227 123.207  0.00  0.00    +0.000 C 
ATOM     20  C   UNL     1      -7.318  -2.226 123.298  0.00  0.00    +0.000 C 
ENDBRANCH  15  17
ENDBRANCH  14  15
ENDBRANCH   3  14
BRANCH   4  21
ATOM     21  O   UNL     1      -9.344   1.586 125.555  0.00  0.00    +0.000 OA
BRANCH  21  22
ATOM     22  C   UNL     1      -8.884   2.573 124.687  0.00  0.00    +0.000 C 
ATOM     23  O   UNL     1      -8.804   3.768 124.956  0.00  0.00    +0.000 OA
BRANCH  22  24
ATOM     24  C   UNL     1      -8.513   2.036 123.300  0.00  0.00    +0.000 C 
ATOM     25  C   UNL     1      -8.681   3.057 122.170  0.00  0.00    +0.000 C 
ATOM     26  C   UNL     1      -7.098   1.456 123.280  0.00  0.00    +0.000 C 
ATOM     27  C   UNL     1      -9.529   0.908 123.036  0.00  0.00    +0.000 C 
ENDBRANCH  22  24
ENDBRANCH  21  22
ENDBRANCH   4  21
TORSDOF 10
ENDMDL
MODEL 2
REMARK VINA RESULT:      -6.4      2.774      5.664
REMARK  Name = Dipivefrin
REMARK  17 active torsions:
REMARK  status: ('A' for Active; 'I' for Inactive)
REMARK    1  A    between atoms: C_1  and  N_2
REMARK    2  A    between atoms: N_2  and  C_3
REMARK    3  A    between atoms: C_3  and  C_4
REMARK    4  A    between atoms: C_4  and  O_5
REMARK    5  A    between atoms: C_4  and  C_6
REMARK    6  A    between atoms: C_8  and  O_9
REMARK    7  A    between atoms: O_9  and  C_10
REMARK    8  A    between atoms: C_10  and  C_12
REMARK    9  A    between atoms: C_12  and  C_13
REMARK   10  A    between atoms: C_12  and  C_14
REMARK   11  A    between atoms: C_12  and  C_15
REMARK   12  A    between atoms: C_16  and  O_17
REMARK   13  A    between atoms: O_17  and  C_18
REMARK   14  A    between atoms: C_18  and  C_20
REMARK   15  A    between atoms: C_20  and  C_21
REMARK   16  A    between atoms: C_20  and  C_22
REMARK   17  A    between atoms: C_20  and  C_23
REMARK                            x       y       z     vdW  Elec       q    Type
REMARK                         _______ _______ _______ _____ _____    ______ ____
ROOT
ATOM      1  C   UNL     1      -7.810   2.779 126.552  0.00  0.00    +0.000 A 
ATOM      2  C   UNL     1      -7.571   1.735 125.625  0.00  0.00    +0.000 A 
ATOM      3  C   UNL     1      -7.699   0.388 126.020  0.00  0.00    +0.000 A 
ATOM      4  C   UNL     1      -7.919   0.104 127.381  0.00  0.00    +0.000 A 
ATOM      5  C   UNL     1      -8.207   1.139 128.268  0.00  0.00    +0.000 A 
ATOM      6  C   UNL     1      -8.143   2.458 127.867  0.00  0.00    +0.000 A 
ENDROOT
BRANCH   1   7
ATOM      7  C   UNL     1      -7.719   4.253 126.231  0.00  0.00    +0.000 C 
BRANCH   7   8
ATOM      8  O   UNL     1      -8.677   4.604 125.233  0.00  0.00    +0.000 OA
ATOM      9  H   UNL     1      -9.123   3.789 124.962  0.00  0.00    +0.000 HD
ENDBRANCH   7   8
BRANCH   7  10
ATOM     10  C   UNL     1      -6.291   4.626 125.793  0.00  0.00    +0.000 C 
BRANCH  10  12
ATOM     11  C   UNL     1      -5.581   4.347 123.520  0.00  0.00    +0.000 C 
ATOM     12  N   UNL     1      -6.303   5.202 124.444  0.00  0.00    +0.000 NA
ATOM     13  H   UNL     1      -7.275   5.325 124.150  0.00  0.00    +0.000 HD
ENDBRANCH  10  12
ENDBRANCH   7  10
ENDBRANCH   1   7
BRANCH   3  14
ATOM     14  O   UNL     1      -7.609  -0.600 124.984  0.00  0.00    +0.000 OA
BRANCH  14  15
ATOM     15  C   UNL     1      -8.777  -1.168 124.474  0.00  0.00    +0.000 C 
ATOM     16  O   UNL     1      -9.648  -0.549 123.865  0.00  0.00    +0.000 OA
BRANCH  15  17
ATOM     17  C   UNL     1      -8.898  -2.678 124.563  0.00  0.00    +0.000 C 
ATOM     18  C   UNL     1      -9.689  -2.985 125.838  0.00  0.00    +0.000 C 
ATOM     19  C   UNL     1      -9.524  -3.309 123.329  0.00  0.00    +0.000 C 
ATOM     20  C   UNL     1      -7.461  -3.239 124.731  0.00  0.00    +0.000 C 
ENDBRANCH  15  17
ENDBRANCH  14  15
ENDBRANCH   3  14
BRANCH   4  21
ATOM     21  O   UNL     1      -7.751  -1.226 127.861  0.00  0.00    +0.000 OA
BRANCH  21  22
ATOM     22  C   UNL     1      -6.699  -1.633 128.677  0.00  0.00    +0.000 C 
ATOM     23  O   UNL     1      -5.536  -1.255 128.568  0.00  0.00    +0.000 OA
BRANCH  22  24
ATOM     24  C   UNL     1      -7.114  -2.663 129.734  0.00  0.00    +0.000 C 
ATOM     25  C   UNL     1      -6.066  -3.752 129.989  0.00  0.00    +0.000 C 
ATOM     26  C   UNL     1      -7.505  -1.991 131.051  0.00  0.00    +0.000 C 
ATOM     27  C   UNL     1      -8.348  -3.362 129.132  0.00  0.00    +0.000 C 
ENDBRANCH  22  24
ENDBRANCH  21  22
ENDBRANCH   4  21
TORSDOF 10
ENDMDL
MODEL 3
REMARK VINA RESULT:      -6.4      2.678      5.767
REMARK  Name = Dipivefrin
REMARK  17 active torsions:
REMARK  status: ('A' for Active; 'I' for Inactive)
REMARK    1  A    between atoms: C_1  and  N_2
REMARK    2  A    between atoms: N_2  and  C_3
REMARK    3  A    between atoms: C_3  and  C_4
REMARK    4  A    between atoms: C_4  and  O_5
REMARK    5  A    between atoms: C_4  and  C_6
REMARK    6  A    between atoms: C_8  and  O_9
REMARK    7  A    between atoms: O_9  and  C_10
REMARK    8  A    between atoms: C_10  and  C_12
REMARK    9  A    between atoms: C_12  and  C_13
REMARK   10  A    between atoms: C_12  and  C_14
REMARK   11  A    between atoms: C_12  and  C_15
REMARK   12  A    between atoms: C_16  and  O_17
REMARK   13  A    between atoms: O_17  and  C_18
REMARK   14  A    between atoms: C_18  and  C_20
REMARK   15  A    between atoms: C_20  and  C_21
REMARK   16  A    between atoms: C_20  and  C_22
REMARK   17  A    between atoms: C_20  and  C_23
REMARK                            x       y       z     vdW  Elec       q    Type
REMARK                         _______ _______ _______ _____ _____    ______ ____
ROOT
ATOM      1  C   UNL     1      -7.445   2.460 125.740  0.00  0.00    +0.000 A 
ATOM      2  C   UNL     1      -7.239   1.103 125.389  0.00  0.00    +0.000 A 
ATOM      3  C   UNL     1      -7.531   0.076 126.309  0.00  0.00    +0.000 A 
ATOM      4  C   UNL     1      -7.884   0.433 127.625  0.00  0.00    +0.000 A 
ATOM      5  C   UNL     1      -8.136   1.766 127.938  0.00  0.00    +0.000 A 
ATOM      6  C   UNL     1      -7.909   2.769 127.017  0.00  0.00    +0.000 A 
ENDROOT
BRANCH   1   7
ATOM      7  C   UNL     1      -7.182   3.636 124.827  0.00  0.00    +0.000 C 
BRANCH   7   8
ATOM      8  O   UNL     1      -8.191   4.631 124.997  0.00  0.00    +0.000 OA
ATOM      9  H   UNL     1      -9.038   4.228 124.760  0.00  0.00    +0.000 HD
ENDBRANCH   7   8
BRANCH   7  10
ATOM     10  C   UNL     1      -7.092   3.175 123.361  0.00  0.00    +0.000 C 
BRANCH  10  12
ATOM     11  C   UNL     1      -9.134   2.319 122.443  0.00  0.00    +0.000 C 
ATOM     12  N   UNL     1      -8.325   3.508 122.642  0.00  0.00    +0.000 NA
ATOM     13  H   UNL     1      -8.835   4.215 123.177  0.00  0.00    +0.000 HD
ENDBRANCH  10  12
ENDBRANCH   7  10
ENDBRANCH   1   7
BRANCH   3  14
ATOM     14  O   UNL     1      -7.460  -1.269 125.819  0.00  0.00    +0.000 OA
BRANCH  14  15
ATOM     15  C   UNL     1      -8.583  -1.844 125.225  0.00  0.00    +0.000 C 
ATOM     16  O   UNL     1      -9.746  -1.605 125.548  0.00  0.00    +0.000 OA
BRANCH  15  17
ATOM     17  C   UNL     1      -8.342  -2.713 124.004  0.00  0.00    +0.000 C 
ATOM     18  C   UNL     1      -7.286  -3.749 124.399  0.00  0.00    +0.000 C 
ATOM     19  C   UNL     1      -9.609  -3.357 123.460  0.00  0.00    +0.000 C 
ATOM     20  C   UNL     1      -7.741  -1.795 122.906  0.00  0.00    +0.000 C 
ENDBRANCH  15  17
ENDBRANCH  14  15
ENDBRANCH   3  14
BRANCH   4  21
ATOM     21  O   UNL     1      -7.887  -0.558 128.648  0.00  0.00    +0.000 OA
BRANCH  21  22
ATOM     22  C   UNL     1      -6.738  -1.162 129.150  0.00  0.00    +0.000 C 
ATOM     23  O   UNL     1      -5.643  -0.618 129.255  0.00  0.00    +0.000 OA
BRANCH  22  24
ATOM     24  C   UNL     1      -6.945  -2.632 129.534  0.00  0.00    +0.000 C 
ATOM     25  C   UNL     1      -7.979  -3.363 128.671  0.00  0.00    +0.000 C 
ATOM     26  C   UNL     1      -5.624  -3.404 129.539  0.00  0.00    +0.000 C 
ATOM     27  C   UNL     1      -7.512  -2.584 130.966  0.00  0.00    +0.000 C 
ENDBRANCH  22  24
ENDBRANCH  21  22
ENDBRANCH   4  21
TORSDOF 10
ENDMDL
MODEL 4
REMARK VINA RESULT:      -6.1      2.872      5.386
REMARK  Name = Dipivefrin
REMARK  17 active torsions:
REMARK  status: ('A' for Active; 'I' for Inactive)
REMARK    1  A    between atoms: C_1  and  N_2
REMARK    2  A    between atoms: N_2  and  C_3
REMARK    3  A    between atoms: C_3  and  C_4
REMARK    4  A    between atoms: C_4  and  O_5
REMARK    5  A    between atoms: C_4  and  C_6
REMARK    6  A    between atoms: C_8  and  O_9
REMARK    7  A    between atoms: O_9  and  C_10
REMARK    8  A    between atoms: C_10  and  C_12
REMARK    9  A    between atoms: C_12  and  C_13
REMARK   10  A    between atoms: C_12  and  C_14
REMARK   11  A    between atoms: C_12  and  C_15
REMARK   12  A    between atoms: C_16  and  O_17
REMARK   13  A    between atoms: O_17  and  C_18
REMARK   14  A    between atoms: C_18  and  C_20
REMARK   15  A    between atoms: C_20  and  C_21
REMARK   16  A    between atoms: C_20  and  C_22
REMARK   17  A    between atoms: C_20  and  C_23
REMARK                            x       y       z     vdW  Elec       q    Type
REMARK                         _______ _______ _______ _____ _____    ______ ____
ROOT
ATOM      1  C   UNL     1      -6.326   3.159 125.205  0.00  0.00    +0.000 A 
ATOM      2  C   UNL     1      -6.168   2.013 126.023  0.00  0.00    +0.000 A 
ATOM      3  C   UNL     1      -6.430   0.728 125.508  0.00  0.00    +0.000 A 
ATOM      4  C   UNL     1      -6.992   0.621 124.221  0.00  0.00    +0.000 A 
ATOM      5  C   UNL     1      -7.088   1.749 123.410  0.00  0.00    +0.000 A 
ATOM      6  C   UNL     1      -6.773   3.002 123.894  0.00  0.00    +0.000 A 
ENDROOT
BRANCH   1   7
ATOM      7  C   UNL     1      -6.057   4.578 125.649  0.00  0.00    +0.000 C 
BRANCH   7   8
ATOM      8  O   UNL     1      -6.141   5.470 124.538  0.00  0.00    +0.000 OA
ATOM      9  H   UNL     1      -6.192   4.930 123.737  0.00  0.00    +0.000 HD
ENDBRANCH   7   8
BRANCH   7  10
ATOM     10  C   UNL     1      -4.688   4.679 126.346  0.00  0.00    +0.000 C 
BRANCH  10  12
ATOM     11  C   UNL     1      -4.391   5.285 128.646  0.00  0.00    +0.000 C 
ATOM     12  N   UNL     1      -4.685   5.780 127.314  0.00  0.00    +0.000 NA
ATOM     13  H   UNL     1      -3.994   6.473 127.018  0.00  0.00    +0.000 HD
ENDBRANCH  10  12
ENDBRANCH   7  10
ENDBRANCH   1   7
BRANCH   3  14
ATOM     14  O   UNL     1      -6.083  -0.385 126.343  0.00  0.00    +0.000 OA
BRANCH  14  15
ATOM     15  C   UNL     1      -6.867  -0.676 127.459  0.00  0.00    +0.000 C 
ATOM     16  O   UNL     1      -8.042  -0.338 127.598  0.00  0.00    +0.000 OA
BRANCH  15  17
ATOM     17  C   UNL     1      -6.257  -1.595 128.502  0.00  0.00    +0.000 C 
ATOM     18  C   UNL     1      -7.418  -2.329 129.180  0.00  0.00    +0.000 C 
ATOM     19  C   UNL     1      -5.220  -2.552 127.934  0.00  0.00    +0.000 C 
ATOM     20  C   UNL     1      -5.568  -0.688 129.557  0.00  0.00    +0.000 C 
ENDBRANCH  15  17
ENDBRANCH  14  15
ENDBRANCH   3  14
BRANCH   4  21
ATOM     21  O   UNL     1      -7.546  -0.620 123.794  0.00  0.00    +0.000 OA
BRANCH  21  22
ATOM     22  C   UNL     1      -8.765  -1.123 124.240  0.00  0.00    +0.000 C 
ATOM     23  O   UNL     1      -9.782  -0.458 124.411  0.00  0.00    +0.000 OA
BRANCH  22  24
ATOM     24  C   UNL     1      -8.723  -2.623 124.556  0.00  0.00    +0.000 C 
ATOM     25  C   UNL     1      -7.314  -3.225 124.539  0.00  0.00    +0.000 C 
ATOM     26  C   UNL     1      -9.414  -2.938 125.883  0.00  0.00    +0.000 C 
ATOM     27  C   UNL     1      -9.504  -3.284 123.404  0.00  0.00    +0.000 C 
ENDBRANCH  22  24
ENDBRANCH  21  22
ENDBRANCH   4  21
TORSDOF 10
ENDMDL
MODEL 5
REMARK VINA RESULT:      -6.1      5.336      8.238
REMARK  Name = Dipivefrin
REMARK  17 active torsions:
REMARK  status: ('A' for Active; 'I' for Inactive)
REMARK    1  A    between atoms: C_1  and  N_2
REMARK    2  A    between atoms: N_2  and  C_3
REMARK    3  A    between atoms: C_3  and  C_4
REMARK    4  A    between atoms: C_4  and  O_5
REMARK    5  A    between atoms: C_4  and  C_6
REMARK    6  A    between atoms: C_8  and  O_9
REMARK    7  A    between atoms: O_9  and  C_10
REMARK    8  A    between atoms: C_10  and  C_12
REMARK    9  A    between atoms: C_12  and  C_13
REMARK   10  A    between atoms: C_12  and  C_14
REMARK   11  A    between atoms: C_12  and  C_15
REMARK   12  A    between atoms: C_16  and  O_17
REMARK   13  A    between atoms: O_17  and  C_18
REMARK   14  A    between atoms: C_18  and  C_20
REMARK   15  A    between atoms: C_20  and  C_21
REMARK   16  A    between atoms: C_20  and  C_22
REMARK   17  A    between atoms: C_20  and  C_23
REMARK                            x       y       z     vdW  Elec       q    Type
REMARK                         _______ _______ _______ _____ _____    ______ ____
ROOT
ATOM      1  C   UNL     1      -8.798   2.964 130.048  0.00  0.00    +0.000 A 
ATOM      2  C   UNL     1      -7.908   4.048 129.842  0.00  0.00    +0.000 A 
ATOM      3  C   UNL     1      -8.285   5.358 130.200  0.00  0.00    +0.000 A 
ATOM      4  C   UNL     1      -9.609   5.585 130.623  0.00  0.00    +0.000 A 
ATOM      5  C   UNL     1     -10.452   4.505 130.873  0.00  0.00    +0.000 A 
ATOM      6  C   UNL     1     -10.061   3.214 130.580  0.00  0.00    +0.000 A 
ENDROOT
BRANCH   1   7
ATOM      7  C   UNL     1      -8.490   1.522 129.717  0.00  0.00    +0.000 C 
BRANCH   7   8
ATOM      8  O   UNL     1      -7.632   0.958 130.709  0.00  0.00    +0.000 OA
ATOM      9  H   UNL     1      -6.780   1.411 130.645  0.00  0.00    +0.000 HD
ENDBRANCH   7   8
BRANCH   7  10
ATOM     10  C   UNL     1      -7.873   1.407 128.312  0.00  0.00    +0.000 C 
BRANCH  10  12
ATOM     11  C   UNL     1      -8.245   2.254 126.101  0.00  0.00    +0.000 C 
ATOM     12  N   UNL     1      -8.877   1.704 127.286  0.00  0.00    +0.000 NA
ATOM     13  H   UNL     1      -9.385   0.844 127.067  0.00  0.00    +0.000 HD
ENDBRANCH  10  12
ENDBRANCH   7  10
ENDBRANCH   1   7
BRANCH   3  14
ATOM     14  O   UNL     1      -7.269   6.366 130.120  0.00  0.00    +0.000 OA
BRANCH  14  15
ATOM     15  C   UNL     1      -6.278   6.422 131.100  0.00  0.00    +0.000 C 
ATOM     16  O   UNL     1      -6.485   6.353 132.311  0.00  0.00    +0.000 OA
BRANCH  15  17
ATOM     17  C   UNL     1      -4.839   6.426 130.617  0.00  0.00    +0.000 C 
ATOM     18  C   UNL     1      -3.973   5.990 131.803  0.00  0.00    +0.000 C 
ATOM     19  C   UNL     1      -4.611   5.562 129.386  0.00  0.00    +0.000 C 
ATOM     20  C   UNL     1      -4.483   7.895 130.264  0.00  0.00    +0.000 C 
ENDBRANCH  15  17
ENDBRANCH  14  15
ENDBRANCH   3  14
BRANCH   4  21
ATOM     21  O   UNL     1     -10.107   6.917 130.699  0.00  0.00    +0.000 OA
BRANCH  21  22
ATOM     22  C   UNL     1     -10.650   7.608 129.619  0.00  0.00    +0.000 C 
ATOM     23  O   UNL     1     -10.000   8.171 128.743  0.00  0.00    +0.000 OA
BRANCH  22  24
ATOM     24  C   UNL     1     -12.182   7.649 129.634  0.00  0.00    +0.000 C 
ATOM     25  C   UNL     1     -12.843   6.644 128.685  0.00  0.00    +0.000 C 
ATOM     26  C   UNL     1     -12.736   7.478 131.050  0.00  0.00    +0.000 C 
ATOM     27  C   UNL     1     -12.539   9.055 129.114  0.00  0.00    +0.000 C 
ENDBRANCH  22  24
ENDBRANCH  21  22
ENDBRANCH   4  21
TORSDOF 10
ENDMDL
MODEL 6
REMARK VINA RESULT:      -6.1      5.812      7.990
REMARK  Name = Dipivefrin
REMARK  17 active torsions:
REMARK  status: ('A' for Active; 'I' for Inactive)
REMARK    1  A    between atoms: C_1  and  N_2
REMARK    2  A    between atoms: N_2  and  C_3
REMARK    3  A    between atoms: C_3  and  C_4
REMARK    4  A    between atoms: C_4  and  O_5
REMARK    5  A    between atoms: C_4  and  C_6
REMARK    6  A    between atoms: C_8  and  O_9
REMARK    7  A    between atoms: O_9  and  C_10
REMARK    8  A    between atoms: C_10  and  C_12
REMARK    9  A    between atoms: C_12  and  C_13
REMARK   10  A    between atoms: C_12  and  C_14
REMARK   11  A    between atoms: C_12  and  C_15
REMARK   12  A    between atoms: C_16  and  O_17
REMARK   13  A    between atoms: O_17  and  C_18
REMARK   14  A    between atoms: C_18  and  C_20
REMARK   15  A    between atoms: C_20  and  C_21
REMARK   16  A    between atoms: C_20  and  C_22
REMARK   17  A    between atoms: C_20  and  C_23
REMARK                            x       y       z     vdW  Elec       q    Type
REMARK                         _______ _______ _______ _____ _____    ______ ____
ROOT
ATOM      1  C   UNL     1      -9.147   2.788 130.770  0.00  0.00    +0.000 A 
ATOM      2  C   UNL     1      -8.159   3.765 130.493  0.00  0.00    +0.000 A 
ATOM      3  C   UNL     1      -8.524   5.111 130.292  0.00  0.00    +0.000 A 
ATOM      4  C   UNL     1      -9.894   5.433 130.223  0.00  0.00    +0.000 A 
ATOM      5  C   UNL     1     -10.849   4.475 130.552  0.00  0.00    +0.000 A 
ATOM      6  C   UNL     1     -10.487   3.168 130.810  0.00  0.00    +0.000 A 
ENDROOT
BRANCH   1   7
ATOM      7  C   UNL     1      -8.865   1.324 131.018  0.00  0.00    +0.000 C 
BRANCH   7   8
ATOM      8  O   UNL     1      -9.923   0.736 131.775  0.00  0.00    +0.000 OA
ATOM      9  H   UNL     1      -9.861  -0.223 131.663  0.00  0.00    +0.000 HD
ENDBRANCH   7   8
BRANCH   7  10
ATOM     10  C   UNL     1      -7.507   1.144 131.721  0.00  0.00    +0.000 C 
BRANCH  10  12
ATOM     11  C   UNL     1      -6.648   2.095 133.746  0.00  0.00    +0.000 C 
ATOM     12  N   UNL     1      -7.667   1.234 133.176  0.00  0.00    +0.000 NA
ATOM     13  H   UNL     1      -8.605   1.587 133.380  0.00  0.00    +0.000 HD
ENDBRANCH  10  12
ENDBRANCH   7  10
ENDBRANCH   1   7
BRANCH   3  14
ATOM     14  O   UNL     1      -7.456   6.061 130.188  0.00  0.00    +0.000 OA
BRANCH  14  15
ATOM     15  C   UNL     1      -6.654   6.316 131.301  0.00  0.00    +0.000 C 
ATOM     16  O   UNL     1      -7.053   6.326 132.465  0.00  0.00    +0.000 OA
BRANCH  15  17
ATOM     17  C   UNL     1      -5.162   6.450 131.052  0.00  0.00    +0.000 C 
ATOM     18  C   UNL     1      -4.734   5.216 130.253  0.00  0.00    +0.000 C 
ATOM     19  C   UNL     1      -4.779   7.749 130.360  0.00  0.00    +0.000 C 
ATOM     20  C   UNL     1      -4.466   6.402 132.438  0.00  0.00    +0.000 C 
ENDBRANCH  15  17
ENDBRANCH  14  15
ENDBRANCH   3  14
BRANCH   4  21
ATOM     21  O   UNL     1     -10.295   6.706 129.725  0.00  0.00    +0.000 OA
BRANCH  21  22
ATOM     22  C   UNL     1     -11.252   6.886 128.730  0.00  0.00    +0.000 C 
ATOM     23  O   UNL     1     -11.122   6.552 127.556  0.00  0.00    +0.000 OA
BRANCH  22  24
ATOM     24  C   UNL     1     -12.514   7.602 129.226  0.00  0.00    +0.000 C 
ATOM     25  C   UNL     1     -12.799   7.402 130.719  0.00  0.00    +0.000 C 
ATOM     26  C   UNL     1     -12.482   9.094 128.891  0.00  0.00    +0.000 C 
ATOM     27  C   UNL     1     -13.669   6.932 128.458  0.00  0.00    +0.000 C 
ENDBRANCH  22  24
ENDBRANCH  21  22
ENDBRANCH   4  21
TORSDOF 10
ENDMDL
MODEL 7
REMARK VINA RESULT:      -6.0      5.483      7.608
REMARK  Name = Dipivefrin
REMARK  17 active torsions:
REMARK  status: ('A' for Active; 'I' for Inactive)
REMARK    1  A    between atoms: C_1  and  N_2
REMARK    2  A    between atoms: N_2  and  C_3
REMARK    3  A    between atoms: C_3  and  C_4
REMARK    4  A    between atoms: C_4  and  O_5
REMARK    5  A    between atoms: C_4  and  C_6
REMARK    6  A    between atoms: C_8  and  O_9
REMARK    7  A    between atoms: O_9  and  C_10
REMARK    8  A    between atoms: C_10  and  C_12
REMARK    9  A    between atoms: C_12  and  C_13
REMARK   10  A    between atoms: C_12  and  C_14
REMARK   11  A    between atoms: C_12  and  C_15
REMARK   12  A    between atoms: C_16  and  O_17
REMARK   13  A    between atoms: O_17  and  C_18
REMARK   14  A    between atoms: C_18  and  C_20
REMARK   15  A    between atoms: C_20  and  C_21
REMARK   16  A    between atoms: C_20  and  C_22
REMARK   17  A    between atoms: C_20  and  C_23
REMARK                            x       y       z     vdW  Elec       q    Type
REMARK                         _______ _______ _______ _____ _____    ______ ____
ROOT
ATOM      1  C   UNL     1      -9.139   5.803 131.152  0.00  0.00    +0.000 A 
ATOM      2  C   UNL     1      -8.690   4.475 130.942  0.00  0.00    +0.000 A 
ATOM      3  C   UNL     1      -7.314   4.200 130.811  0.00  0.00    +0.000 A 
ATOM      4  C   UNL     1      -6.415   5.282 130.741  0.00  0.00    +0.000 A 
ATOM      5  C   UNL     1      -6.864   6.574 131.005  0.00  0.00    +0.000 A 
ATOM      6  C   UNL     1      -8.205   6.837 131.195  0.00  0.00    +0.000 A 
ENDROOT
BRANCH   1   7
ATOM      7  C   UNL     1     -10.585   6.206 131.323  0.00  0.00    +0.000 C 
BRANCH   7   8
ATOM      8  O   UNL     1     -10.980   6.069 132.688  0.00  0.00    +0.000 OA
ATOM      9  H   UNL     1     -10.181   5.887 133.203  0.00  0.00    +0.000 HD
ENDBRANCH   7   8
BRANCH   7  10
ATOM     10  C   UNL     1     -11.492   5.382 130.392  0.00  0.00    +0.000 C 
BRANCH  10  12
ATOM     11  C   UNL     1     -12.940   6.724 129.032  0.00  0.00    +0.000 C 
ATOM     12  N   UNL     1     -11.652   6.059 129.101  0.00  0.00    +0.000 NA
ATOM     13  H   UNL     1     -10.886   6.727 128.985  0.00  0.00    +0.000 HD
ENDBRANCH  10  12
ENDBRANCH   7  10
ENDBRANCH   1   7
BRANCH   3  14
ATOM     14  O   UNL     1      -6.932   2.819 130.773  0.00  0.00    +0.000 OA
BRANCH  14  15
ATOM     15  C   UNL     1      -7.874   1.857 130.406  0.00  0.00    +0.000 C 
ATOM     16  O   UNL     1      -8.292   1.686 129.261  0.00  0.00    +0.000 OA
BRANCH  15  17
ATOM     17  C   UNL     1      -8.296   0.869 131.478  0.00  0.00    +0.000 C 
ATOM     18  C   UNL     1      -9.716   1.255 131.902  0.00  0.00    +0.000 C 
ATOM     19  C   UNL     1      -8.199  -0.583 131.035  0.00  0.00    +0.000 C 
ATOM     20  C   UNL     1      -7.348   1.081 132.689  0.00  0.00    +0.000 C 
ENDBRANCH  15  17
ENDBRANCH  14  15
ENDBRANCH   3  14
BRANCH   4  21
ATOM     21  O   UNL     1      -5.077   5.061 130.309  0.00  0.00    +0.000 OA
BRANCH  21  22
ATOM     22  C   UNL     1      -4.512   5.663 129.187  0.00  0.00    +0.000 C 
ATOM     23  O   UNL     1      -4.832   5.430 128.026  0.00  0.00    +0.000 OA
BRANCH  22  24
ATOM     24  C   UNL     1      -3.383   6.643 129.529  0.00  0.00    +0.000 C 
ATOM     25  C   UNL     1      -3.825   8.110 129.579  0.00  0.00    +0.000 C 
ATOM     26  C   UNL     1      -2.680   6.260 130.832  0.00  0.00    +0.000 C 
ATOM     27  C   UNL     1      -2.391   6.517 128.357  0.00  0.00    +0.000 C 
ENDBRANCH  22  24
ENDBRANCH  21  22
ENDBRANCH   4  21
TORSDOF 10
ENDMDL
MODEL 8
REMARK VINA RESULT:      -6.0      5.765      8.070
REMARK  Name = Dipivefrin
REMARK  17 active torsions:
REMARK  status: ('A' for Active; 'I' for Inactive)
REMARK    1  A    between atoms: C_1  and  N_2
REMARK    2  A    between atoms: N_2  and  C_3
REMARK    3  A    between atoms: C_3  and  C_4
REMARK    4  A    between atoms: C_4  and  O_5
REMARK    5  A    between atoms: C_4  and  C_6
REMARK    6  A    between atoms: C_8  and  O_9
REMARK    7  A    between atoms: O_9  and  C_10
REMARK    8  A    between atoms: C_10  and  C_12
REMARK    9  A    between atoms: C_12  and  C_13
REMARK   10  A    between atoms: C_12  and  C_14
REMARK   11  A    between atoms: C_12  and  C_15
REMARK   12  A    between atoms: C_16  and  O_17
REMARK   13  A    between atoms: O_17  and  C_18
REMARK   14  A    between atoms: C_18  and  C_20
REMARK   15  A    between atoms: C_20  and  C_21
REMARK   16  A    between atoms: C_20  and  C_22
REMARK   17  A    between atoms: C_20  and  C_23
REMARK                            x       y       z     vdW  Elec       q    Type
REMARK                         _______ _______ _______ _____ _____    ______ ____
ROOT
ATOM      1  C   UNL     1      -9.324   6.084 129.925  0.00  0.00    +0.000 A 
ATOM      2  C   UNL     1      -8.559   5.068 129.300  0.00  0.00    +0.000 A 
ATOM      3  C   UNL     1      -7.233   4.822 129.708  0.00  0.00    +0.000 A 
ATOM      4  C   UNL     1      -6.641   5.699 130.636  0.00  0.00    +0.000 A 
ATOM      5  C   UNL     1      -7.421   6.656 131.282  0.00  0.00    +0.000 A 
ATOM      6  C   UNL     1      -8.739   6.857 130.926  0.00  0.00    +0.000 A 
ENDROOT
BRANCH   1   7
ATOM      7  C   UNL     1     -10.757   6.420 129.579  0.00  0.00    +0.000 C 
BRANCH   7   8
ATOM      8  O   UNL     1     -11.555   5.237 129.568  0.00  0.00    +0.000 OA
ATOM      9  H   UNL     1     -11.043   4.547 129.123  0.00  0.00    +0.000 HD
ENDBRANCH   7   8
BRANCH   7  10
ATOM     10  C   UNL     1     -10.831   7.158 128.230  0.00  0.00    +0.000 C 
BRANCH  10  12
ATOM     11  C   UNL     1     -12.542   8.793 128.611  0.00  0.00    +0.000 C 
ATOM     12  N   UNL     1     -11.117   8.581 128.440  0.00  0.00    +0.000 NA
ATOM     13  H   UNL     1     -10.595   8.902 129.259  0.00  0.00    +0.000 HD
ENDBRANCH  10  12
ENDBRANCH   7  10
ENDBRANCH   1   7
BRANCH   3  14
ATOM     14  O   UNL     1      -6.589   3.670 129.147  0.00  0.00    +0.000 OA
BRANCH  14  15
ATOM     15  C   UNL     1      -5.715   3.829 128.071  0.00  0.00    +0.000 C 
ATOM     16  O   UNL     1      -5.716   4.790 127.303  0.00  0.00    +0.000 OA
BRANCH  15  17
ATOM     17  C   UNL     1      -4.602   2.805 127.938  0.00  0.00    +0.000 C 
ATOM     18  C   UNL     1      -4.397   2.190 129.325  0.00  0.00    +0.000 C 
ATOM     19  C   UNL     1      -4.873   1.752 126.873  0.00  0.00    +0.000 C 
ATOM     20  C   UNL     1      -3.315   3.582 127.551  0.00  0.00    +0.000 C 
ENDBRANCH  15  17
ENDBRANCH  14  15
ENDBRANCH   3  14
BRANCH   4  21
ATOM     21  O   UNL     1      -5.232   5.666 130.839  0.00  0.00    +0.000 OA
BRANCH  21  22
ATOM     22  C   UNL     1      -4.329   6.483 130.163  0.00  0.00    +0.000 C 
ATOM     23  O   UNL     1      -4.628   7.300 129.298  0.00  0.00    +0.000 OA
BRANCH  22  24
ATOM     24  C   UNL     1      -2.870   6.239 130.568  0.00  0.00    +0.000 C 
ATOM     25  C   UNL     1      -2.624   4.876 131.222  0.00  0.00    +0.000 C 
ATOM     26  C   UNL     1      -1.918   6.437 129.387  0.00  0.00    +0.000 C 
ATOM     27  C   UNL     1      -2.581   7.307 131.640  0.00  0.00    +0.000 C 
ENDBRANCH  22  24
ENDBRANCH  21  22
ENDBRANCH   4  21
TORSDOF 10
ENDMDL
MODEL 9
REMARK VINA RESULT:      -6.0      3.324      5.903
REMARK  Name = Dipivefrin
REMARK  17 active torsions:
REMARK  status: ('A' for Active; 'I' for Inactive)
REMARK    1  A    between atoms: C_1  and  N_2
REMARK    2  A    between atoms: N_2  and  C_3
REMARK    3  A    between atoms: C_3  and  C_4
REMARK    4  A    between atoms: C_4  and  O_5
REMARK    5  A    between atoms: C_4  and  C_6
REMARK    6  A    between atoms: C_8  and  O_9
REMARK    7  A    between atoms: O_9  and  C_10
REMARK    8  A    between atoms: C_10  and  C_12
REMARK    9  A    between atoms: C_12  and  C_13
REMARK   10  A    between atoms: C_12  and  C_14
REMARK   11  A    between atoms: C_12  and  C_15
REMARK   12  A    between atoms: C_16  and  O_17
REMARK   13  A    between atoms: O_17  and  C_18
REMARK   14  A    between atoms: C_18  and  C_20
REMARK   15  A    between atoms: C_20  and  C_21
REMARK   16  A    between atoms: C_20  and  C_22
REMARK   17  A    between atoms: C_20  and  C_23
REMARK                            x       y       z     vdW  Elec       q    Type
REMARK                         _______ _______ _______ _____ _____    ______ ____
ROOT
ATOM      1  C   UNL     1      -5.807   1.837 126.384  0.00  0.00    +0.000 A 
ATOM      2  C   UNL     1      -5.986   0.822 125.411  0.00  0.00    +0.000 A 
ATOM      3  C   UNL     1      -6.372  -0.477 125.799  0.00  0.00    +0.000 A 
ATOM      4  C   UNL     1      -6.427  -0.780 127.173  0.00  0.00    +0.000 A 
ATOM      5  C   UNL     1      -6.303   0.240 128.114  0.00  0.00    +0.000 A 
ATOM      6  C   UNL     1      -5.986   1.527 127.731  0.00  0.00    +0.000 A 
ENDROOT
BRANCH   1   7
ATOM      7  C   UNL     1      -5.413   3.264 126.078  0.00  0.00    +0.000 C 
BRANCH   7   8
ATOM      8  O   UNL     1      -5.382   3.478 124.667  0.00  0.00    +0.000 OA
ATOM      9  H   UNL     1      -5.221   4.420 124.521  0.00  0.00    +0.000 HD
ENDBRANCH   7   8
BRANCH   7  10
ATOM     10  C   UNL     1      -4.059   3.604 126.725  0.00  0.00    +0.000 C 
BRANCH  10  12
ATOM     11  C   UNL     1      -1.734   3.025 126.769  0.00  0.00    +0.000 C 
ATOM     12  N   UNL     1      -3.065   2.574 126.408  0.00  0.00    +0.000 NA
ATOM     13  H   UNL     1      -3.312   1.717 126.907  0.00  0.00    +0.000 HD
ENDBRANCH  10  12
ENDBRANCH   7  10
ENDBRANCH   1   7
BRANCH   3  14
ATOM     14  O   UNL     1      -6.698  -1.395 124.747  0.00  0.00    +0.000 OA
BRANCH  14  15
ATOM     15  C   UNL     1      -8.032  -1.565 124.374  0.00  0.00    +0.000 C 
ATOM     16  O   UNL     1      -8.715  -0.714 123.806  0.00  0.00    +0.000 OA
BRANCH  15  17
ATOM     17  C   UNL     1      -8.623  -2.950 124.564  0.00  0.00    +0.000 C 
ATOM     18  C   UNL     1      -9.581  -3.187 123.394  0.00  0.00    +0.000 C 
ATOM     19  C   UNL     1      -7.572  -4.045 124.682  0.00  0.00    +0.000 C 
ATOM     20  C   UNL     1      -9.451  -2.914 125.876  0.00  0.00    +0.000 C 
ENDBRANCH  15  17
ENDBRANCH  14  15
ENDBRANCH   3  14
BRANCH   4  21
ATOM     21  O   UNL     1      -6.511  -2.138 127.593  0.00  0.00    +0.000 OA
BRANCH  21  22
ATOM     22  C   UNL     1      -5.758  -2.680 128.631  0.00  0.00    +0.000 C 
ATOM     23  O   UNL     1      -4.536  -2.790 128.634  0.00  0.00    +0.000 OA
BRANCH  22  24
ATOM     24  C   UNL     1      -6.613  -3.190 129.798  0.00  0.00    +0.000 C 
ATOM     25  C   UNL     1      -8.105  -3.312 129.472  0.00  0.00    +0.000 C 
ATOM     26  C   UNL     1      -6.084  -4.516 130.347  0.00  0.00    +0.000 C 
ATOM     27  C   UNL     1      -6.481  -2.102 130.881  0.00  0.00    +0.000 C 
ENDBRANCH  22  24
ENDBRANCH  21  22
ENDBRANCH   4  21
TORSDOF 10
ENDMDL
