MODEL 1
REMARK VINA RESULT:      -6.4      0.000      0.000
REMARK  Name = Dipyrithione
REMARK  3 active torsions:
REMARK  status: ('A' for Active; 'I' for Inactive)
REMARK    1  A    between atoms: C_7  and  S_8
REMARK    2  A    between atoms: S_8  and  S_9
REMARK    3  A    between atoms: S_9  and  C_10
REMARK                            x       y       z     vdW  Elec       q    Type
REMARK                         _______ _______ _______ _____ _____    ______ ____
ROOT
ATOM      1  S   UNL     1      -8.664   2.560 122.946  0.00  0.00    +0.000 S 
ENDROOT
BRANCH   1   8
ATOM      2  O   UNL     1      -9.141   3.878 120.069  0.00  0.00    +0.000 OA
ATOM      3  N   UNL     1      -7.954   3.867 120.514  0.00  0.00    +0.000 N 
ATOM      4  C   UNL     1      -6.989   4.434 119.690  0.00  0.00    +0.000 A 
ATOM      5  C   UNL     1      -5.649   4.499 120.043  0.00  0.00    +0.000 A 
ATOM      6  C   UNL     1      -5.248   3.973 121.259  0.00  0.00    +0.000 A 
ATOM      7  C   UNL     1      -6.191   3.393 122.108  0.00  0.00    +0.000 A 
ATOM      8  C   UNL     1      -7.559   3.334 121.747  0.00  0.00    +0.000 A 
ENDBRANCH   1   8
BRANCH   1   9
ATOM      9  S   UNL     1      -7.502   1.615 124.349  0.00  0.00    +0.000 S 
BRANCH   9  10
ATOM     10  C   UNL     1      -7.640  -0.143 124.124  0.00  0.00    +0.000 A 
ATOM     11  C   UNL     1      -6.659  -0.906 123.466  0.00  0.00    +0.000 A 
ATOM     12  C   UNL     1      -6.809  -2.281 123.304  0.00  0.00    +0.000 A 
ATOM     13  C   UNL     1      -7.933  -2.916 123.797  0.00  0.00    +0.000 A 
ATOM     14  C   UNL     1      -8.903  -2.167 124.456  0.00  0.00    +0.000 A 
ATOM     15  N   UNL     1      -8.779  -0.793 124.630  0.00  0.00    +0.000 N 
ATOM     16  O   UNL     1      -9.718  -0.187 125.247  0.00  0.00    +0.000 OA
ENDBRANCH   9  10
ENDBRANCH   1   9
TORSDOF 3
ENDMDL
MODEL 2
REMARK VINA RESULT:      -6.1      9.744     10.613
REMARK  Name = Dipyrithione
REMARK  3 active torsions:
REMARK  status: ('A' for Active; 'I' for Inactive)
REMARK    1  A    between atoms: C_7  and  S_8
REMARK    2  A    between atoms: S_8  and  S_9
REMARK    3  A    between atoms: S_9  and  C_10
REMARK                            x       y       z     vdW  Elec       q    Type
REMARK                         _______ _______ _______ _____ _____    ______ ____
ROOT
ATOM      1  S   UNL     1     -10.798   5.139 130.664  0.00  0.00    +0.000 S 
ENDROOT
BRANCH   1   8
ATOM      2  O   UNL     1      -9.798   6.370 127.885  0.00  0.00    +0.000 OA
ATOM      3  N   UNL     1     -10.714   6.993 128.501  0.00  0.00    +0.000 N 
ATOM      4  C   UNL     1     -11.181   8.151 127.890  0.00  0.00    +0.000 A 
ATOM      5  C   UNL     1     -12.183   8.936 128.442  0.00  0.00    +0.000 A 
ATOM      6  C   UNL     1     -12.739   8.561 129.653  0.00  0.00    +0.000 A 
ATOM      7  C   UNL     1     -12.291   7.407 130.294  0.00  0.00    +0.000 A 
ATOM      8  C   UNL     1     -11.273   6.605 129.726  0.00  0.00    +0.000 A 
ENDBRANCH   1   8
BRANCH   1   9
ATOM      9  S   UNL     1     -10.025   5.769 132.458  0.00  0.00    +0.000 S 
BRANCH   9  10
ATOM     10  C   UNL     1      -8.280   6.052 132.268  0.00  0.00    +0.000 A 
ATOM     11  C   UNL     1      -7.736   6.743 131.171  0.00  0.00    +0.000 A 
ATOM     12  C   UNL     1      -6.362   6.936 131.055  0.00  0.00    +0.000 A 
ATOM     13  C   UNL     1      -5.511   6.450 132.030  0.00  0.00    +0.000 A 
ATOM     14  C   UNL     1      -6.045   5.772 133.121  0.00  0.00    +0.000 A 
ATOM     15  N   UNL     1      -7.413   5.563 133.260  0.00  0.00    +0.000 N 
ATOM     16  O   UNL     1      -7.813   4.931 134.295  0.00  0.00    +0.000 OA
ENDBRANCH   9  10
ENDBRANCH   1   9
TORSDOF 3
ENDMDL
MODEL 3
REMARK VINA RESULT:      -6.1      9.659     11.000
REMARK  Name = Dipyrithione
REMARK  3 active torsions:
REMARK  status: ('A' for Active; 'I' for Inactive)
REMARK    1  A    between atoms: C_7  and  S_8
REMARK    2  A    between atoms: S_8  and  S_9
REMARK    3  A    between atoms: S_9  and  C_10
REMARK                            x       y       z     vdW  Elec       q    Type
REMARK                         _______ _______ _______ _____ _____    ______ ____
ROOT
ATOM      1  S   UNL     1      -9.720   5.880 132.380  0.00  0.00    +0.000 S 
ENDROOT
BRANCH   1   8
ATOM      2  O   UNL     1      -7.985   7.600 130.314  0.00  0.00    +0.000 OA
ATOM      3  N   UNL     1      -7.355   6.915 131.175  0.00  0.00    +0.000 N 
ATOM      4  C   UNL     1      -5.968   6.992 131.118  0.00  0.00    +0.000 A 
ATOM      5  C   UNL     1      -5.144   6.303 131.996  0.00  0.00    +0.000 A 
ATOM      6  C   UNL     1      -5.718   5.498 132.964  0.00  0.00    +0.000 A 
ATOM      7  C   UNL     1      -7.107   5.396 133.046  0.00  0.00    +0.000 A 
ATOM      8  C   UNL     1      -7.945   6.105 132.153  0.00  0.00    +0.000 A 
ENDBRANCH   1   8
BRANCH   1   9
ATOM      9  S   UNL     1     -10.509   5.275 130.585  0.00  0.00    +0.000 S 
BRANCH   9  10
ATOM     10  C   UNL     1     -11.233   6.679 129.769  0.00  0.00    +0.000 A 
ATOM     11  C   UNL     1     -12.228   7.475 130.364  0.00  0.00    +0.000 A 
ATOM     12  C   UNL     1     -12.775   8.562 129.687  0.00  0.00    +0.000 A 
ATOM     13  C   UNL     1     -12.339   8.875 128.414  0.00  0.00    +0.000 A 
ATOM     14  C   UNL     1     -11.348   8.095 127.824  0.00  0.00    +0.000 A 
ATOM     15  N   UNL     1     -10.786   7.003 128.477  0.00  0.00    +0.000 N 
ATOM     16  O   UNL     1      -9.884   6.344 127.859  0.00  0.00    +0.000 OA
ENDBRANCH   9  10
ENDBRANCH   1   9
TORSDOF 3
ENDMDL
MODEL 4
REMARK VINA RESULT:      -6.0      1.319      6.436
REMARK  Name = Dipyrithione
REMARK  3 active torsions:
REMARK  status: ('A' for Active; 'I' for Inactive)
REMARK    1  A    between atoms: C_7  and  S_8
REMARK    2  A    between atoms: S_8  and  S_9
REMARK    3  A    between atoms: S_9  and  C_10
REMARK                            x       y       z     vdW  Elec       q    Type
REMARK                         _______ _______ _______ _____ _____    ______ ____
ROOT
ATOM      1  S   UNL     1      -7.418   1.207 124.579  0.00  0.00    +0.000 S 
ENDROOT
BRANCH   1   8
ATOM      2  O   UNL     1      -6.746  -1.247 122.637  0.00  0.00    +0.000 OA
ATOM      3  N   UNL     1      -7.549  -1.464 123.593  0.00  0.00    +0.000 N 
ATOM      4  C   UNL     1      -8.048  -2.758 123.687  0.00  0.00    +0.000 A 
ATOM      5  C   UNL     1      -8.932  -3.149 124.682  0.00  0.00    +0.000 A 
ATOM      6  C   UNL     1      -9.343  -2.216 125.619  0.00  0.00    +0.000 A 
ATOM      7  C   UNL     1      -8.863  -0.909 125.552  0.00  0.00    +0.000 A 
ATOM      8  C   UNL     1      -7.958  -0.515 124.538  0.00  0.00    +0.000 A 
ENDBRANCH   1   8
BRANCH   1   9
ATOM      9  S   UNL     1      -8.552   2.249 123.222  0.00  0.00    +0.000 S 
BRANCH   9  10
ATOM     10  C   UNL     1      -7.469   3.100 122.097  0.00  0.00    +0.000 A 
ATOM     11  C   UNL     1      -6.106   3.313 122.368  0.00  0.00    +0.000 A 
ATOM     12  C   UNL     1      -5.294   3.992 121.463  0.00  0.00    +0.000 A 
ATOM     13  C   UNL     1      -5.823   4.463 120.276  0.00  0.00    +0.000 A 
ATOM     14  C   UNL     1      -7.170   4.247 120.000  0.00  0.00    +0.000 A 
ATOM     15  N   UNL     1      -8.004   3.574 120.887  0.00  0.00    +0.000 N 
ATOM     16  O   UNL     1      -9.226   3.422 120.551  0.00  0.00    +0.000 OA
ENDBRANCH   9  10
ENDBRANCH   1   9
TORSDOF 3
ENDMDL
MODEL 5
REMARK VINA RESULT:      -6.0     10.258     10.979
REMARK  Name = Dipyrithione
REMARK  3 active torsions:
REMARK  status: ('A' for Active; 'I' for Inactive)
REMARK    1  A    between atoms: C_7  and  S_8
REMARK    2  A    between atoms: S_8  and  S_9
REMARK    3  A    between atoms: S_9  and  C_10
REMARK                            x       y       z     vdW  Elec       q    Type
REMARK                         _______ _______ _______ _____ _____    ______ ____
ROOT
ATOM      1  S   UNL     1     -10.502   5.217 130.743  0.00  0.00    +0.000 S 
ENDROOT
BRANCH   1   8
ATOM      2  O   UNL     1     -12.991   7.064 131.541  0.00  0.00    +0.000 OA
ATOM      3  N   UNL     1     -12.312   7.408 130.527  0.00  0.00    +0.000 N 
ATOM      4  C   UNL     1     -12.734   8.560 129.874  0.00  0.00    +0.000 A 
ATOM      5  C   UNL     1     -12.090   9.063 128.753  0.00  0.00    +0.000 A 
ATOM      6  C   UNL     1     -10.986   8.392 128.256  0.00  0.00    +0.000 A 
ATOM      7  C   UNL     1     -10.539   7.231 128.886  0.00  0.00    +0.000 A 
ATOM      8  C   UNL     1     -11.195   6.723 130.032  0.00  0.00    +0.000 A 
ENDBRANCH   1   8
BRANCH   1   9
ATOM      9  S   UNL     1      -9.649   5.710 132.543  0.00  0.00    +0.000 S 
BRANCH   9  10
ATOM     10  C   UNL     1      -7.922   6.049 132.290  0.00  0.00    +0.000 A 
ATOM     11  C   UNL     1      -7.441   6.758 131.174  0.00  0.00    +0.000 A 
ATOM     12  C   UNL     1      -6.079   6.995 131.009  0.00  0.00    +0.000 A 
ATOM     13  C   UNL     1      -5.177   6.537 131.952  0.00  0.00    +0.000 A 
ATOM     14  C   UNL     1      -5.649   5.842 133.061  0.00  0.00    +0.000 A 
ATOM     15  N   UNL     1      -7.004   5.589 133.250  0.00  0.00    +0.000 N 
ATOM     16  O   UNL     1      -7.346   4.945 134.298  0.00  0.00    +0.000 OA
ENDBRANCH   9  10
ENDBRANCH   1   9
TORSDOF 3
ENDMDL
MODEL 6
REMARK VINA RESULT:      -5.9      3.199      4.290
REMARK  Name = Dipyrithione
REMARK  3 active torsions:
REMARK  status: ('A' for Active; 'I' for Inactive)
REMARK    1  A    between atoms: C_7  and  S_8
REMARK    2  A    between atoms: S_8  and  S_9
REMARK    3  A    between atoms: S_9  and  C_10
REMARK                            x       y       z     vdW  Elec       q    Type
REMARK                         _______ _______ _______ _____ _____    ______ ____
ROOT
ATOM      1  S   UNL     1      -8.521  -1.851 123.462  0.00  0.00    +0.000 S 
ENDROOT
BRANCH   1   8
ATOM      2  O   UNL     1     -10.747   0.283 122.605  0.00  0.00    +0.000 OA
ATOM      3  N   UNL     1      -9.583   0.722 122.850  0.00  0.00    +0.000 N 
ATOM      4  C   UNL     1      -9.410   2.095 122.716  0.00  0.00    +0.000 A 
ATOM      5  C   UNL     1      -8.196   2.722 122.954  0.00  0.00    +0.000 A 
ATOM      6  C   UNL     1      -7.107   1.956 123.334  0.00  0.00    +0.000 A 
ATOM      7  C   UNL     1      -7.247   0.575 123.475  0.00  0.00    +0.000 A 
ATOM      8  C   UNL     1      -8.488  -0.061 123.236  0.00  0.00    +0.000 A 
ENDBRANCH   1   8
BRANCH   1   9
ATOM      9  S   UNL     1      -6.910  -2.363 124.626  0.00  0.00    +0.000 S 
BRANCH   9  10
ATOM     10  C   UNL     1      -7.484  -2.780 126.257  0.00  0.00    +0.000 A 
ATOM     11  C   UNL     1      -8.653  -3.529 126.483  0.00  0.00    +0.000 A 
ATOM     12  C   UNL     1      -9.073  -3.827 127.777  0.00  0.00    +0.000 A 
ATOM     13  C   UNL     1      -8.336  -3.391 128.861  0.00  0.00    +0.000 A 
ATOM     14  C   UNL     1      -7.175  -2.656 128.642  0.00  0.00    +0.000 A 
ATOM     15  N   UNL     1      -6.734  -2.342 127.361  0.00  0.00    +0.000 N 
ATOM     16  O   UNL     1      -5.657  -1.664 127.255  0.00  0.00    +0.000 OA
ENDBRANCH   9  10
ENDBRANCH   1   9
TORSDOF 3
ENDMDL
MODEL 7
REMARK VINA RESULT:      -5.8      4.823      6.500
REMARK  Name = Dipyrithione
REMARK  3 active torsions:
REMARK  status: ('A' for Active; 'I' for Inactive)
REMARK    1  A    between atoms: C_7  and  S_8
REMARK    2  A    between atoms: S_8  and  S_9
REMARK    3  A    between atoms: S_9  and  C_10
REMARK                            x       y       z     vdW  Elec       q    Type
REMARK                         _______ _______ _______ _____ _____    ______ ____
ROOT
ATOM      1  S   UNL     1      -8.420  -2.872 126.479  0.00  0.00    +0.000 S 
ENDROOT
BRANCH   1   8
ATOM      2  O   UNL     1      -9.543  -1.833 123.668  0.00  0.00    +0.000 OA
ATOM      3  N   UNL     1      -8.303  -2.082 123.743  0.00  0.00    +0.000 N 
ATOM      4  C   UNL     1      -7.568  -1.872 122.582  0.00  0.00    +0.000 A 
ATOM      5  C   UNL     1      -6.201  -2.096 122.511  0.00  0.00    +0.000 A 
ATOM      6  C   UNL     1      -5.536  -2.554 123.636  0.00  0.00    +0.000 A 
ATOM      7  C   UNL     1      -6.244  -2.777 124.816  0.00  0.00    +0.000 A 
ATOM      8  C   UNL     1      -7.638  -2.543 124.887  0.00  0.00    +0.000 A 
ENDBRANCH   1   8
BRANCH   1   9
ATOM      9  S   UNL     1      -7.548  -1.640 127.870  0.00  0.00    +0.000 S 
BRANCH   9  10
ATOM     10  C   UNL     1      -6.291  -2.549 128.739  0.00  0.00    +0.000 A 
ATOM     11  C   UNL     1      -4.941  -2.548 128.344  0.00  0.00    +0.000 A 
ATOM     12  C   UNL     1      -3.989  -3.280 129.048  0.00  0.00    +0.000 A 
ATOM     13  C   UNL     1      -4.363  -4.018 130.155  0.00  0.00    +0.000 A 
ATOM     14  C   UNL     1      -5.696  -4.015 130.554  0.00  0.00    +0.000 A 
ATOM     15  N   UNL     1      -6.668  -3.295 129.868  0.00  0.00    +0.000 N 
ATOM     16  O   UNL     1      -7.866  -3.351 130.307  0.00  0.00    +0.000 OA
ENDBRANCH   9  10
ENDBRANCH   1   9
TORSDOF 3
ENDMDL
MODEL 8
REMARK VINA RESULT:      -5.7      9.103     10.218
REMARK  Name = Dipyrithione
REMARK  3 active torsions:
REMARK  status: ('A' for Active; 'I' for Inactive)
REMARK    1  A    between atoms: C_7  and  S_8
REMARK    2  A    between atoms: S_8  and  S_9
REMARK    3  A    between atoms: S_9  and  C_10
REMARK                            x       y       z     vdW  Elec       q    Type
REMARK                         _______ _______ _______ _____ _____    ______ ____
ROOT
ATOM      1  S   UNL     1     -10.187   6.005 131.731  0.00  0.00    +0.000 S 
ENDROOT
BRANCH   1   8
ATOM      2  O   UNL     1     -13.150   7.186 131.474  0.00  0.00    +0.000 OA
ATOM      3  N   UNL     1     -12.319   7.496 130.568  0.00  0.00    +0.000 N 
ATOM      4  C   UNL     1     -12.799   8.322 129.559  0.00  0.00    +0.000 A 
ATOM      5  C   UNL     1     -12.008   8.750 128.503  0.00  0.00    +0.000 A 
ATOM      6  C   UNL     1     -10.688   8.336 128.442  0.00  0.00    +0.000 A 
ATOM      7  C   UNL     1     -10.176   7.504 129.437  0.00  0.00    +0.000 A 
ATOM      8  C   UNL     1     -10.985   7.074 130.516  0.00  0.00    +0.000 A 
ENDBRANCH   1   8
BRANCH   1   9
ATOM      9  S   UNL     1      -8.996   4.681 130.712  0.00  0.00    +0.000 S 
BRANCH   9  10
ATOM     10  C   UNL     1      -7.365   5.374 130.553  0.00  0.00    +0.000 A 
ATOM     11  C   UNL     1      -6.991   6.585 131.162  0.00  0.00    +0.000 A 
ATOM     12  C   UNL     1      -5.706   7.097 131.006  0.00  0.00    +0.000 A 
ATOM     13  C   UNL     1      -4.775   6.413 130.247  0.00  0.00    +0.000 A 
ATOM     14  C   UNL     1      -5.139   5.210 129.649  0.00  0.00    +0.000 A 
ATOM     15  N   UNL     1      -6.416   4.677 129.786  0.00  0.00    +0.000 N 
ATOM     16  O   UNL     1      -6.661   3.568 129.202  0.00  0.00    +0.000 OA
ENDBRANCH   9  10
ENDBRANCH   1   9
TORSDOF 3
ENDMDL
MODEL 9
REMARK VINA RESULT:      -5.7      9.774     10.514
REMARK  Name = Dipyrithione
REMARK  3 active torsions:
REMARK  status: ('A' for Active; 'I' for Inactive)
REMARK    1  A    between atoms: C_7  and  S_8
REMARK    2  A    between atoms: S_8  and  S_9
REMARK    3  A    between atoms: S_9  and  C_10
REMARK                            x       y       z     vdW  Elec       q    Type
REMARK                         _______ _______ _______ _____ _____    ______ ____
ROOT
ATOM      1  S   UNL     1     -11.460   5.142 130.158  0.00  0.00    +0.000 S 
ENDROOT
BRANCH   1   8
ATOM      2  O   UNL     1     -11.823   6.516 127.291  0.00  0.00    +0.000 OA
ATOM      3  N   UNL     1     -12.129   7.205 128.310  0.00  0.00    +0.000 N 
ATOM      4  C   UNL     1     -12.592   8.492 128.059  0.00  0.00    +0.000 A 
ATOM      5  C   UNL     1     -12.968   9.362 129.071  0.00  0.00    +0.000 A 
ATOM      6  C   UNL     1     -12.876   8.942 130.387  0.00  0.00    +0.000 A 
ATOM      7  C   UNL     1     -12.413   7.658 130.674  0.00  0.00    +0.000 A 
ATOM      8  C   UNL     1     -12.035   6.771 129.638  0.00  0.00    +0.000 A 
ENDBRANCH   1   8
BRANCH   1   9
ATOM      9  S   UNL     1      -9.413   5.214 130.291  0.00  0.00    +0.000 S 
BRANCH   9  10
ATOM     10  C   UNL     1      -8.932   4.911 131.977  0.00  0.00    +0.000 A 
ATOM     11  C   UNL     1      -8.486   5.932 132.835  0.00  0.00    +0.000 A 
ATOM     12  C   UNL     1      -8.111   5.651 134.146  0.00  0.00    +0.000 A 
ATOM     13  C   UNL     1      -8.178   4.355 134.623  0.00  0.00    +0.000 A 
ATOM     14  C   UNL     1      -8.626   3.343 133.779  0.00  0.00    +0.000 A 
ATOM     15  N   UNL     1      -9.005   3.595 132.465  0.00  0.00    +0.000 N 
ATOM     16  O   UNL     1      -9.404   2.606 131.763  0.00  0.00    +0.000 OA
ENDBRANCH   9  10
ENDBRANCH   1   9
TORSDOF 3
ENDMDL
