MODEL 1
REMARK VINA RESULT:      -7.3      0.000      0.000
REMARK  Name = Dipyridamole
REMARK  12 active torsions:
REMARK  status: ('A' for Active; 'I' for Inactive)
REMARK    1  A    between atoms: O_1  and  C_2
REMARK    2  A    between atoms: C_2  and  C_3
REMARK    3  A    between atoms: C_3  and  N_4
REMARK    4  A    between atoms: N_4  and  C_5
REMARK    5  A    between atoms: C_5  and  C_6
REMARK    6  A    between atoms: C_6  and  O_7
REMARK    7  A    between atoms: N_22  and  C_23
REMARK    8  A    between atoms: N_22  and  C_26
REMARK    9  A    between atoms: C_23  and  C_24
REMARK   10  A    between atoms: C_24  and  O_25
REMARK   11  A    between atoms: C_26  and  C_27
REMARK   12  A    between atoms: C_27  and  O_28
REMARK                            x       y       z     vdW  Elec       q    Type
REMARK                         _______ _______ _______ _____ _____    ______ ____
ROOT
ATOM      1  N   UNL     1      -8.432   2.916 125.014  0.00  0.00    +0.000 N 
ATOM      2  C   UNL     1      -8.252   2.076 126.136  0.00  0.00    +0.000 A 
ATOM      3  N   UNL     1      -7.964   0.786 125.923  0.00  0.00    +0.000 NA
ATOM      4  C   UNL     1      -7.728  -0.048 126.979  0.00  0.00    +0.000 A 
ATOM      5  C   UNL     1      -7.805   0.362 128.324  0.00  0.00    +0.000 A 
ATOM      6  N   UNL     1      -7.599  -0.475 129.389  0.00  0.00    +0.000 NA
ATOM      7  C   UNL     1      -7.330  -1.761 129.178  0.00  0.00    +0.000 A 
ATOM      8  N   UNL     1      -7.261  -2.216 127.910  0.00  0.00    +0.000 NA
ATOM      9  C   UNL     1      -7.420  -1.409 126.829  0.00  0.00    +0.000 A 
ATOM     10  N   UNL     1      -7.227  -2.000 125.569  0.00  0.00    +0.000 N 
ATOM     11  C   UNL     1      -6.242  -1.502 124.612  0.00  0.00    +0.000 C 
ATOM     12  C   UNL     1      -6.939  -1.052 123.327  0.00  0.00    +0.000 C 
ATOM     13  C   UNL     1      -7.843  -2.135 122.742  0.00  0.00    +0.000 C 
ATOM     14  C   UNL     1      -8.772  -2.720 123.813  0.00  0.00    +0.000 C 
ATOM     15  C   UNL     1      -8.011  -3.139 125.089  0.00  0.00    +0.000 C 
ATOM     16  N   UNL     1      -7.091  -2.617 130.255  0.00  0.00    +0.000 N 
ATOM     17  C   UNL     1      -8.144   1.725 128.474  0.00  0.00    +0.000 A 
ATOM     18  N   UNL     1      -8.348   2.559 127.398  0.00  0.00    +0.000 NA
ATOM     19  N   UNL     1      -8.283   2.266 129.768  0.00  0.00    +0.000 N 
ATOM     20  C   UNL     1      -7.196   2.266 130.746  0.00  0.00    +0.000 C 
ATOM     21  C   UNL     1      -7.619   1.550 132.035  0.00  0.00    +0.000 C 
ATOM     22  C   UNL     1      -8.935   2.077 132.598  0.00  0.00    +0.000 C 
ATOM     23  C   UNL     1     -10.011   2.118 131.508  0.00  0.00    +0.000 C 
ATOM     24  C   UNL     1      -9.536   2.851 130.235  0.00  0.00    +0.000 C 
ENDROOT
BRANCH   1  25
ATOM     25  C   UNL     1      -7.715   4.211 125.076  0.00  0.00    +0.000 C 
BRANCH  25  26
ATOM     26  C   UNL     1      -6.257   4.225 124.581  0.00  0.00    +0.000 C 
BRANCH  26  27
ATOM     27  O   UNL     1      -6.013   4.587 123.230  0.00  0.00    +0.000 OA
ATOM     28  H   UNL     1      -5.554   3.806 122.854  0.00  0.00    +0.000 HD
ENDBRANCH  26  27
ENDBRANCH  25  26
ENDBRANCH   1  25
BRANCH   1  29
ATOM     29  C   UNL     1      -9.206   2.346 123.879  0.00  0.00    +0.000 C 
BRANCH  29  30
ATOM     30  C   UNL     1      -8.643   2.447 122.447  0.00  0.00    +0.000 C 
BRANCH  30  31
ATOM     31  O   UNL     1      -8.637   3.766 121.908  0.00  0.00    +0.000 OA
ATOM     32  H   UNL     1      -7.818   3.858 121.392  0.00  0.00    +0.000 HD
ENDBRANCH  30  31
ENDBRANCH  29  30
ENDBRANCH   1  29
BRANCH  16  33
ATOM     33  C   UNL     1      -6.762  -4.038 130.086  0.00  0.00    +0.000 C 
BRANCH  33  34
ATOM     34  C   UNL     1      -5.330  -4.482 130.348  0.00  0.00    +0.000 C 
BRANCH  34  35
ATOM     35  O   UNL     1      -4.395  -3.575 129.769  0.00  0.00    +0.000 OA
ATOM     36  H   UNL     1      -4.667  -3.455 128.845  0.00  0.00    +0.000 HD
ENDBRANCH  34  35
ENDBRANCH  33  34
ENDBRANCH  16  33
BRANCH  16  37
ATOM     37  C   UNL     1      -7.238  -2.116 131.645  0.00  0.00    +0.000 C 
BRANCH  37  38
ATOM     38  C   UNL     1      -5.923  -1.689 132.356  0.00  0.00    +0.000 C 
BRANCH  38  39
ATOM     39  O   UNL     1      -5.029  -0.999 131.482  0.00  0.00    +0.000 OA
ATOM     40  H   UNL     1      -4.309  -0.625 132.019  0.00  0.00    +0.000 HD
ENDBRANCH  38  39
ENDBRANCH  37  38
ENDBRANCH  16  37
TORSDOF 12
ENDMDL
MODEL 2
REMARK VINA RESULT:      -7.1      2.402      6.435
REMARK  Name = Dipyridamole
REMARK  12 active torsions:
REMARK  status: ('A' for Active; 'I' for Inactive)
REMARK    1  A    between atoms: O_1  and  C_2
REMARK    2  A    between atoms: C_2  and  C_3
REMARK    3  A    between atoms: C_3  and  N_4
REMARK    4  A    between atoms: N_4  and  C_5
REMARK    5  A    between atoms: C_5  and  C_6
REMARK    6  A    between atoms: C_6  and  O_7
REMARK    7  A    between atoms: N_22  and  C_23
REMARK    8  A    between atoms: N_22  and  C_26
REMARK    9  A    between atoms: C_23  and  C_24
REMARK   10  A    between atoms: C_24  and  O_25
REMARK   11  A    between atoms: C_26  and  C_27
REMARK   12  A    between atoms: C_27  and  O_28
REMARK                            x       y       z     vdW  Elec       q    Type
REMARK                         _______ _______ _______ _____ _____    ______ ____
ROOT
ATOM      1  N   UNL     1      -8.587   2.251 130.260  0.00  0.00    +0.000 N 
ATOM      2  C   UNL     1      -8.344   1.595 129.031  0.00  0.00    +0.000 A 
ATOM      3  N   UNL     1      -7.773   0.385 129.061  0.00  0.00    +0.000 NA
ATOM      4  C   UNL     1      -7.571  -0.308 127.902  0.00  0.00    +0.000 A 
ATOM      5  C   UNL     1      -7.901   0.197 126.629  0.00  0.00    +0.000 A 
ATOM      6  N   UNL     1      -7.674  -0.479 125.459  0.00  0.00    +0.000 NA
ATOM      7  C   UNL     1      -7.091  -1.675 125.486  0.00  0.00    +0.000 A 
ATOM      8  N   UNL     1      -6.736  -2.202 126.676  0.00  0.00    +0.000 NA
ATOM      9  C   UNL     1      -6.980  -1.581 127.860  0.00  0.00    +0.000 A 
ATOM     10  N   UNL     1      -6.642  -2.290 129.024  0.00  0.00    +0.000 N 
ATOM     11  C   UNL     1      -7.619  -2.597 130.066  0.00  0.00    +0.000 C 
ATOM     12  C   UNL     1      -7.201  -1.947 131.386  0.00  0.00    +0.000 C 
ATOM     13  C   UNL     1      -5.771  -2.306 131.786  0.00  0.00    +0.000 C 
ATOM     14  C   UNL     1      -4.798  -2.089 130.620  0.00  0.00    +0.000 C 
ATOM     15  C   UNL     1      -5.285  -2.754 129.315  0.00  0.00    +0.000 C 
ATOM     16  N   UNL     1      -6.881  -2.384 124.303  0.00  0.00    +0.000 N 
ATOM     17  C   UNL     1      -8.469   1.489 126.671  0.00  0.00    +0.000 A 
ATOM     18  N   UNL     1      -8.694   2.161 127.851  0.00  0.00    +0.000 NA
ATOM     19  N   UNL     1      -8.822   2.130 125.466  0.00  0.00    +0.000 N 
ATOM     20  C   UNL     1      -9.788   1.565 124.524  0.00  0.00    +0.000 C 
ATOM     21  C   UNL     1      -9.160   1.391 123.136  0.00  0.00    +0.000 C 
ATOM     22  C   UNL     1      -8.495   2.666 122.625  0.00  0.00    +0.000 C 
ATOM     23  C   UNL     1      -7.551   3.245 123.683  0.00  0.00    +0.000 C 
ATOM     24  C   UNL     1      -8.233   3.402 125.061  0.00  0.00    +0.000 C 
ENDROOT
BRANCH   1  25
ATOM     25  C   UNL     1      -9.940   2.837 130.403  0.00  0.00    +0.000 C 
BRANCH  25  26
ATOM     26  C   UNL     1     -10.060   4.362 130.231  0.00  0.00    +0.000 C 
BRANCH  26  27
ATOM     27  O   UNL     1      -9.398   4.966 129.130  0.00  0.00    +0.000 OA
ATOM     28  H   UNL     1     -10.063   4.943 128.411  0.00  0.00    +0.000 HD
ENDBRANCH  26  27
ENDBRANCH  25  26
ENDBRANCH   1  25
BRANCH   1  29
ATOM     29  C   UNL     1      -7.510   2.161 131.281  0.00  0.00    +0.000 C 
BRANCH  29  30
ATOM     30  C   UNL     1      -6.483   3.304 131.406  0.00  0.00    +0.000 C 
BRANCH  30  31
ATOM     31  O   UNL     1      -6.609   4.322 130.418  0.00  0.00    +0.000 OA
ATOM     32  H   UNL     1      -6.046   5.063 130.700  0.00  0.00    +0.000 HD
ENDBRANCH  30  31
ENDBRANCH  29  30
ENDBRANCH   1  29
BRANCH  16  33
ATOM     33  C   UNL     1      -6.268  -3.718 124.271  0.00  0.00    +0.000 C 
BRANCH  33  34
ATOM     34  C   UNL     1      -4.883  -3.860 123.654  0.00  0.00    +0.000 C 
BRANCH  34  35
ATOM     35  O   UNL     1      -4.508  -5.231 123.542  0.00  0.00    +0.000 OA
ATOM     36  H   UNL     1      -4.329  -5.539 124.445  0.00  0.00    +0.000 HD
ENDBRANCH  34  35
ENDBRANCH  33  34
ENDBRANCH  16  33
BRANCH  16  37
ATOM     37  C   UNL     1      -7.213  -1.761 122.997  0.00  0.00    +0.000 C 
BRANCH  37  38
ATOM     38  C   UNL     1      -8.592  -2.149 122.392  0.00  0.00    +0.000 C 
BRANCH  38  39
ATOM     39  O   UNL     1      -9.652  -2.064 123.345  0.00  0.00    +0.000 OA
ATOM     40  H   UNL     1     -10.304  -1.421 123.015  0.00  0.00    +0.000 HD
ENDBRANCH  38  39
ENDBRANCH  37  38
ENDBRANCH  16  37
TORSDOF 12
ENDMDL
MODEL 3
REMARK VINA RESULT:      -7.0      2.263      2.726
REMARK  Name = Dipyridamole
REMARK  12 active torsions:
REMARK  status: ('A' for Active; 'I' for Inactive)
REMARK    1  A    between atoms: O_1  and  C_2
REMARK    2  A    between atoms: C_2  and  C_3
REMARK    3  A    between atoms: C_3  and  N_4
REMARK    4  A    between atoms: N_4  and  C_5
REMARK    5  A    between atoms: C_5  and  C_6
REMARK    6  A    between atoms: C_6  and  O_7
REMARK    7  A    between atoms: N_22  and  C_23
REMARK    8  A    between atoms: N_22  and  C_26
REMARK    9  A    between atoms: C_23  and  C_24
REMARK   10  A    between atoms: C_24  and  O_25
REMARK   11  A    between atoms: C_26  and  C_27
REMARK   12  A    between atoms: C_27  and  O_28
REMARK                            x       y       z     vdW  Elec       q    Type
REMARK                         _______ _______ _______ _____ _____    ______ ____
ROOT
ATOM      1  N   UNL     1      -7.998   2.218 123.606  0.00  0.00    +0.000 N 
ATOM      2  C   UNL     1      -7.345   1.674 124.736  0.00  0.00    +0.000 A 
ATOM      3  N   UNL     1      -7.345   0.345 124.889  0.00  0.00    +0.000 NA
ATOM      4  C   UNL     1      -6.678  -0.225 125.936  0.00  0.00    +0.000 A 
ATOM      5  C   UNL     1      -5.998   0.519 126.921  0.00  0.00    +0.000 A 
ATOM      6  N   UNL     1      -5.353  -0.044 127.991  0.00  0.00    +0.000 NA
ATOM      7  C   UNL     1      -5.367  -1.364 128.153  0.00  0.00    +0.000 A 
ATOM      8  N   UNL     1      -6.018  -2.128 127.251  0.00  0.00    +0.000 NA
ATOM      9  C   UNL     1      -6.635  -1.611 126.157  0.00  0.00    +0.000 A 
ATOM     10  N   UNL     1      -7.190  -2.532 125.254  0.00  0.00    +0.000 N 
ATOM     11  C   UNL     1      -6.805  -2.578 123.845  0.00  0.00    +0.000 C 
ATOM     12  C   UNL     1      -8.021  -2.298 122.959  0.00  0.00    +0.000 C 
ATOM     13  C   UNL     1      -9.203  -3.211 123.284  0.00  0.00    +0.000 C 
ATOM     14  C   UNL     1      -9.489  -3.232 124.791  0.00  0.00    +0.000 C 
ATOM     15  C   UNL     1      -8.221  -3.501 125.628  0.00  0.00    +0.000 C 
ATOM     16  N   UNL     1      -4.689  -1.950 129.224  0.00  0.00    +0.000 N 
ATOM     17  C   UNL     1      -6.068   1.914 126.714  0.00  0.00    +0.000 A 
ATOM     18  N   UNL     1      -6.718   2.470 125.635  0.00  0.00    +0.000 NA
ATOM     19  N   UNL     1      -5.454   2.783 127.638  0.00  0.00    +0.000 N 
ATOM     20  C   UNL     1      -4.022   2.739 127.934  0.00  0.00    +0.000 C 
ATOM     21  C   UNL     1      -3.781   2.515 129.432  0.00  0.00    +0.000 C 
ATOM     22  C   UNL     1      -4.547   3.503 130.307  0.00  0.00    +0.000 C 
ATOM     23  C   UNL     1      -6.023   3.553 129.901  0.00  0.00    +0.000 C 
ATOM     24  C   UNL     1      -6.211   3.782 128.385  0.00  0.00    +0.000 C 
ENDROOT
BRANCH   1  25
ATOM     25  C   UNL     1      -7.227   3.244 122.866  0.00  0.00    +0.000 C 
BRANCH  25  26
ATOM     26  C   UNL     1      -7.597   3.462 121.388  0.00  0.00    +0.000 C 
BRANCH  26  27
ATOM     27  O   UNL     1      -8.844   4.072 121.093  0.00  0.00    +0.000 OA
ATOM     28  H   UNL     1      -8.881   4.074 120.113  0.00  0.00    +0.000 HD
ENDBRANCH  26  27
ENDBRANCH  25  26
ENDBRANCH   1  25
BRANCH   1  29
ATOM     29  C   UNL     1      -9.304   1.608 123.241  0.00  0.00    +0.000 C 
BRANCH  29  30
ATOM     30  C   UNL     1     -10.393   1.440 124.320  0.00  0.00    +0.000 C 
BRANCH  30  31
ATOM     31  O   UNL     1     -11.720   1.343 123.809  0.00  0.00    +0.000 OA
ATOM     32  H   UNL     1     -11.815   2.035 123.133  0.00  0.00    +0.000 HD
ENDBRANCH  30  31
ENDBRANCH  29  30
ENDBRANCH   1  29
BRANCH  16  33
ATOM     33  C   UNL     1      -4.645  -3.401 129.441  0.00  0.00    +0.000 C 
BRANCH  33  34
ATOM     34  C   UNL     1      -5.754  -4.042 130.264  0.00  0.00    +0.000 C 
BRANCH  34  35
ATOM     35  O   UNL     1      -7.032  -3.796 129.684  0.00  0.00    +0.000 OA
ATOM     36  H   UNL     1      -7.496  -3.195 130.289  0.00  0.00    +0.000 HD
ENDBRANCH  34  35
ENDBRANCH  33  34
ENDBRANCH  16  33
BRANCH  16  37
ATOM     37  C   UNL     1      -4.037  -1.092 130.245  0.00  0.00    +0.000 C 
BRANCH  37  38
ATOM     38  C   UNL     1      -4.920  -0.695 131.462  0.00  0.00    +0.000 C 
BRANCH  38  39
ATOM     39  O   UNL     1      -5.964   0.212 131.107  0.00  0.00    +0.000 OA
ATOM     40  H   UNL     1      -5.788   0.538 130.207  0.00  0.00    +0.000 HD
ENDBRANCH  38  39
ENDBRANCH  37  38
ENDBRANCH  16  37
TORSDOF 12
ENDMDL
MODEL 4
REMARK VINA RESULT:      -6.9      2.602      5.336
REMARK  Name = Dipyridamole
REMARK  12 active torsions:
REMARK  status: ('A' for Active; 'I' for Inactive)
REMARK    1  A    between atoms: O_1  and  C_2
REMARK    2  A    between atoms: C_2  and  C_3
REMARK    3  A    between atoms: C_3  and  N_4
REMARK    4  A    between atoms: N_4  and  C_5
REMARK    5  A    between atoms: C_5  and  C_6
REMARK    6  A    between atoms: C_6  and  O_7
REMARK    7  A    between atoms: N_22  and  C_23
REMARK    8  A    between atoms: N_22  and  C_26
REMARK    9  A    between atoms: C_23  and  C_24
REMARK   10  A    between atoms: C_24  and  O_25
REMARK   11  A    between atoms: C_26  and  C_27
REMARK   12  A    between atoms: C_27  and  O_28
REMARK                            x       y       z     vdW  Elec       q    Type
REMARK                         _______ _______ _______ _____ _____    ______ ____
ROOT
ATOM      1  N   UNL     1      -6.912   3.187 123.616  0.00  0.00    +0.000 N 
ATOM      2  C   UNL     1      -6.788   2.120 124.535  0.00  0.00    +0.000 A 
ATOM      3  N   UNL     1      -6.061   2.318 125.641  0.00  0.00    +0.000 NA
ATOM      4  C   UNL     1      -5.961   1.333 126.582  0.00  0.00    +0.000 A 
ATOM      5  C   UNL     1      -6.561   0.066 126.446  0.00  0.00    +0.000 A 
ATOM      6  N   UNL     1      -6.440  -0.938 127.371  0.00  0.00    +0.000 NA
ATOM      7  C   UNL     1      -5.703  -0.748 128.462  0.00  0.00    +0.000 A 
ATOM      8  N   UNL     1      -5.089   0.440 128.638  0.00  0.00    +0.000 NA
ATOM      9  C   UNL     1      -5.217   1.472 127.764  0.00  0.00    +0.000 A 
ATOM     10  N   UNL     1      -4.600   2.681 128.124  0.00  0.00    +0.000 N 
ATOM     11  C   UNL     1      -5.341   3.934 128.247  0.00  0.00    +0.000 C 
ATOM     12  C   UNL     1      -4.803   4.963 127.251  0.00  0.00    +0.000 C 
ATOM     13  C   UNL     1      -3.291   5.152 127.365  0.00  0.00    +0.000 C 
ATOM     14  C   UNL     1      -2.563   3.802 127.361  0.00  0.00    +0.000 C 
ATOM     15  C   UNL     1      -3.163   2.805 128.374  0.00  0.00    +0.000 C 
ATOM     16  N   UNL     1      -5.596  -1.754 129.424  0.00  0.00    +0.000 N 
ATOM     17  C   UNL     1      -7.284  -0.083 125.242  0.00  0.00    +0.000 A 
ATOM     18  N   UNL     1      -7.401   0.931 124.319  0.00  0.00    +0.000 NA
ATOM     19  N   UNL     1      -7.915  -1.312 124.960  0.00  0.00    +0.000 N 
ATOM     20  C   UNL     1      -8.936  -1.894 125.830  0.00  0.00    +0.000 C 
ATOM     21  C   UNL     1      -8.527  -3.299 126.289  0.00  0.00    +0.000 C 
ATOM     22  C   UNL     1      -8.135  -4.208 125.128  0.00  0.00    +0.000 C 
ATOM     23  C   UNL     1      -7.117  -3.514 124.218  0.00  0.00    +0.000 C 
ATOM     24  C   UNL     1      -7.578  -2.106 123.782  0.00  0.00    +0.000 C 
ENDROOT
BRANCH   1  25
ATOM     25  C   UNL     1      -8.291   3.449 123.139  0.00  0.00    +0.000 C 
BRANCH  25  26
ATOM     26  C   UNL     1      -8.610   3.059 121.684  0.00  0.00    +0.000 C 
BRANCH  26  27
ATOM     27  O   UNL     1      -8.698   4.094 120.717  0.00  0.00    +0.000 OA
ATOM     28  H   UNL     1      -7.797   4.137 120.333  0.00  0.00    +0.000 HD
ENDBRANCH  26  27
ENDBRANCH  25  26
ENDBRANCH   1  25
BRANCH   1  29
ATOM     29  C   UNL     1      -5.680   3.974 123.347  0.00  0.00    +0.000 C 
BRANCH  29  30
ATOM     30  C   UNL     1      -5.255   4.249 121.891  0.00  0.00    +0.000 C 
BRANCH  30  31
ATOM     31  O   UNL     1      -4.549   5.472 121.702  0.00  0.00    +0.000 OA
ATOM     32  H   UNL     1      -4.942   5.911 120.929  0.00  0.00    +0.000 HD
ENDBRANCH  30  31
ENDBRANCH  29  30
ENDBRANCH   1  29
BRANCH  16  33
ATOM     33  C   UNL     1      -4.822  -1.594 130.661  0.00  0.00    +0.000 C 
BRANCH  33  34
ATOM     34  C   UNL     1      -3.338  -1.935 130.632  0.00  0.00    +0.000 C 
BRANCH  34  35
ATOM     35  O   UNL     1      -3.114  -3.293 131.000  0.00  0.00    +0.000 OA
ATOM     36  H   UNL     1      -2.157  -3.385 131.135  0.00  0.00    +0.000 HD
ENDBRANCH  34  35
ENDBRANCH  33  34
ENDBRANCH  16  33
BRANCH  16  37
ATOM     37  C   UNL     1      -6.221  -3.079 129.182  0.00  0.00    +0.000 C 
BRANCH  37  38
ATOM     38  C   UNL     1      -6.489  -3.944 130.447  0.00  0.00    +0.000 C 
BRANCH  38  39
ATOM     39  O   UNL     1      -5.539  -4.999 130.599  0.00  0.00    +0.000 OA
ATOM     40  H   UNL     1      -5.784  -5.514 131.387  0.00  0.00    +0.000 HD
ENDBRANCH  38  39
ENDBRANCH  37  38
ENDBRANCH  16  37
TORSDOF 12
ENDMDL
MODEL 5
REMARK VINA RESULT:      -6.8      1.811      8.065
REMARK  Name = Dipyridamole
REMARK  12 active torsions:
REMARK  status: ('A' for Active; 'I' for Inactive)
REMARK    1  A    between atoms: O_1  and  C_2
REMARK    2  A    between atoms: C_2  and  C_3
REMARK    3  A    between atoms: C_3  and  N_4
REMARK    4  A    between atoms: N_4  and  C_5
REMARK    5  A    between atoms: C_5  and  C_6
REMARK    6  A    between atoms: C_6  and  O_7
REMARK    7  A    between atoms: N_22  and  C_23
REMARK    8  A    between atoms: N_22  and  C_26
REMARK    9  A    between atoms: C_23  and  C_24
REMARK   10  A    between atoms: C_24  and  O_25
REMARK   11  A    between atoms: C_26  and  C_27
REMARK   12  A    between atoms: C_27  and  O_28
REMARK                            x       y       z     vdW  Elec       q    Type
REMARK                         _______ _______ _______ _____ _____    ______ ____
ROOT
ATOM      1  N   UNL     1      -5.352  -2.753 130.088  0.00  0.00    +0.000 N 
ATOM      2  C   UNL     1      -5.836  -2.023 128.979  0.00  0.00    +0.000 A 
ATOM      3  N   UNL     1      -5.832  -0.686 129.049  0.00  0.00    +0.000 NA
ATOM      4  C   UNL     1      -6.239   0.059 127.980  0.00  0.00    +0.000 A 
ATOM      5  C   UNL     1      -6.714  -0.503 126.778  0.00  0.00    +0.000 A 
ATOM      6  N   UNL     1      -7.153   0.238 125.712  0.00  0.00    +0.000 NA
ATOM      7  C   UNL     1      -7.165   1.566 125.788  0.00  0.00    +0.000 A 
ATOM      8  N   UNL     1      -6.737   2.160 126.921  0.00  0.00    +0.000 NA
ATOM      9  C   UNL     1      -6.259   1.463 127.983  0.00  0.00    +0.000 A 
ATOM     10  N   UNL     1      -5.760   2.217 129.058  0.00  0.00    +0.000 N 
ATOM     11  C   UNL     1      -4.392   2.070 129.550  0.00  0.00    +0.000 C 
ATOM     12  C   UNL     1      -4.405   1.614 131.010  0.00  0.00    +0.000 C 
ATOM     13  C   UNL     1      -5.264   2.514 131.896  0.00  0.00    +0.000 C 
ATOM     14  C   UNL     1      -6.648   2.745 131.276  0.00  0.00    +0.000 C 
ATOM     15  C   UNL     1      -6.566   3.187 129.800  0.00  0.00    +0.000 C 
ATOM     16  N   UNL     1      -7.583   2.330 124.697  0.00  0.00    +0.000 N 
ATOM     17  C   UNL     1      -6.721  -1.915 126.787  0.00  0.00    +0.000 A 
ATOM     18  N   UNL     1      -6.278  -2.651 127.863  0.00  0.00    +0.000 NA
ATOM     19  N   UNL     1      -7.199  -2.612 125.659  0.00  0.00    +0.000 N 
ATOM     20  C   UNL     1      -6.606  -2.466 124.330  0.00  0.00    +0.000 C 
ATOM     21  C   UNL     1      -7.657  -2.014 123.309  0.00  0.00    +0.000 C 
ATOM     22  C   UNL     1      -8.905  -2.893 123.318  0.00  0.00    +0.000 C 
ATOM     23  C   UNL     1      -9.435  -3.063 124.745  0.00  0.00    +0.000 C 
ATOM     24  C   UNL     1      -8.339  -3.521 125.732  0.00  0.00    +0.000 C 
ENDROOT
BRANCH   1  25
ATOM     25  C   UNL     1      -4.406  -3.844 129.758  0.00  0.00    +0.000 C 
BRANCH  25  26
ATOM     26  C   UNL     1      -3.017  -3.429 129.240  0.00  0.00    +0.000 C 
BRANCH  26  27
ATOM     27  O   UNL     1      -2.437  -2.240 129.756  0.00  0.00    +0.000 OA
ATOM     28  H   UNL     1      -1.480  -2.344 129.572  0.00  0.00    +0.000 HD
ENDBRANCH  26  27
ENDBRANCH  25  26
ENDBRANCH   1  25
BRANCH   1  29
ATOM     29  C   UNL     1      -5.754  -2.258 131.431  0.00  0.00    +0.000 C 
BRANCH  29  30
ATOM     30  C   UNL     1      -7.247  -2.226 131.815  0.00  0.00    +0.000 C 
BRANCH  30  31
ATOM     31  O   UNL     1      -7.910  -1.004 131.506  0.00  0.00    +0.000 OA
ATOM     32  H   UNL     1      -7.898  -0.462 132.313  0.00  0.00    +0.000 HD
ENDBRANCH  30  31
ENDBRANCH  29  30
ENDBRANCH   1  29
BRANCH  16  33
ATOM     33  C   UNL     1      -7.592   3.798 124.710  0.00  0.00    +0.000 C 
BRANCH  33  34
ATOM     34  C   UNL     1      -6.278   4.530 124.475  0.00  0.00    +0.000 C 
BRANCH  34  35
ATOM     35  O   UNL     1      -6.345   5.873 124.947  0.00  0.00    +0.000 OA
ATOM     36  H   UNL     1      -5.436   6.130 125.169  0.00  0.00    +0.000 HD
ENDBRANCH  34  35
ENDBRANCH  33  34
ENDBRANCH  16  33
BRANCH  16  37
ATOM     37  C   UNL     1      -8.115   1.660 123.484  0.00  0.00    +0.000 C 
BRANCH  37  38
ATOM     38  C   UNL     1      -9.653   1.429 123.455  0.00  0.00    +0.000 C 
BRANCH  38  39
ATOM     39  O   UNL     1     -10.081   0.480 124.433  0.00  0.00    +0.000 OA
ATOM     40  H   UNL     1     -10.204   0.949 125.276  0.00  0.00    +0.000 HD
ENDBRANCH  38  39
ENDBRANCH  37  38
ENDBRANCH  16  37
TORSDOF 12
ENDMDL
MODEL 6
REMARK VINA RESULT:      -6.8      2.998      6.837
REMARK  Name = Dipyridamole
REMARK  12 active torsions:
REMARK  status: ('A' for Active; 'I' for Inactive)
REMARK    1  A    between atoms: O_1  and  C_2
REMARK    2  A    between atoms: C_2  and  C_3
REMARK    3  A    between atoms: C_3  and  N_4
REMARK    4  A    between atoms: N_4  and  C_5
REMARK    5  A    between atoms: C_5  and  C_6
REMARK    6  A    between atoms: C_6  and  O_7
REMARK    7  A    between atoms: N_22  and  C_23
REMARK    8  A    between atoms: N_22  and  C_26
REMARK    9  A    between atoms: C_23  and  C_24
REMARK   10  A    between atoms: C_24  and  O_25
REMARK   11  A    between atoms: C_26  and  C_27
REMARK   12  A    between atoms: C_27  and  O_28
REMARK                            x       y       z     vdW  Elec       q    Type
REMARK                         _______ _______ _______ _____ _____    ______ ____
ROOT
ATOM      1  N   UNL     1      -9.642   6.106 129.578  0.00  0.00    +0.000 N 
ATOM      2  C   UNL     1      -8.911   5.059 128.971  0.00  0.00    +0.000 A 
ATOM      3  N   UNL     1      -8.515   4.036 129.737  0.00  0.00    +0.000 NA
ATOM      4  C   UNL     1      -7.855   2.977 129.182  0.00  0.00    +0.000 A 
ATOM      5  C   UNL     1      -7.519   2.903 127.815  0.00  0.00    +0.000 A 
ATOM      6  N   UNL     1      -6.831   1.858 127.256  0.00  0.00    +0.000 NA
ATOM      7  C   UNL     1      -6.422   0.849 128.020  0.00  0.00    +0.000 A 
ATOM      8  N   UNL     1      -6.699   0.874 129.340  0.00  0.00    +0.000 NA
ATOM      9  C   UNL     1      -7.412   1.871 129.924  0.00  0.00    +0.000 A 
ATOM     10  N   UNL     1      -7.707   1.718 131.289  0.00  0.00    +0.000 N 
ATOM     11  C   UNL     1      -9.076   1.723 131.801  0.00  0.00    +0.000 C 
ATOM     12  C   UNL     1      -9.265   2.881 132.783  0.00  0.00    +0.000 C 
ATOM     13  C   UNL     1      -8.214   2.885 133.891  0.00  0.00    +0.000 C 
ATOM     14  C   UNL     1      -6.799   2.748 133.315  0.00  0.00    +0.000 C 
ATOM     15  C   UNL     1      -6.679   1.574 132.321  0.00  0.00    +0.000 C 
ATOM     16  N   UNL     1      -5.744  -0.233 127.455  0.00  0.00    +0.000 N 
ATOM     17  C   UNL     1      -7.940   4.029 127.075  0.00  0.00    +0.000 A 
ATOM     18  N   UNL     1      -8.631   5.074 127.646  0.00  0.00    +0.000 NA
ATOM     19  N   UNL     1      -7.646   4.103 125.698  0.00  0.00    +0.000 N 
ATOM     20  C   UNL     1      -8.108   3.102 124.737  0.00  0.00    +0.000 C 
ATOM     21  C   UNL     1      -6.925   2.480 123.984  0.00  0.00    +0.000 C 
ATOM     22  C   UNL     1      -6.003   3.528 123.367  0.00  0.00    +0.000 C 
ATOM     23  C   UNL     1      -5.612   4.583 124.406  0.00  0.00    +0.000 C 
ATOM     24  C   UNL     1      -6.838   5.179 125.133  0.00  0.00    +0.000 C 
ENDROOT
BRANCH   1  25
ATOM     25  C   UNL     1     -10.859   6.531 128.846  0.00  0.00    +0.000 C 
BRANCH  25  26
ATOM     26  C   UNL     1     -10.654   7.458 127.634  0.00  0.00    +0.000 C 
BRANCH  26  27
ATOM     27  O   UNL     1     -10.553   6.867 126.348  0.00  0.00    +0.000 OA
ATOM     28  H   UNL     1     -11.485   6.751 126.066  0.00  0.00    +0.000 HD
ENDBRANCH  26  27
ENDBRANCH  25  26
ENDBRANCH   1  25
BRANCH   1  29
ATOM     29  C   UNL     1      -9.169   6.553 130.915  0.00  0.00    +0.000 C 
BRANCH  29  30
ATOM     30  C   UNL     1     -10.051   6.306 132.156  0.00  0.00    +0.000 C 
BRANCH  30  31
ATOM     31  O   UNL     1      -9.345   6.312 133.393  0.00  0.00    +0.000 OA
ATOM     32  H   UNL     1      -8.408   6.157 133.185  0.00  0.00    +0.000 HD
ENDBRANCH  30  31
ENDBRANCH  29  30
ENDBRANCH   1  29
BRANCH  16  33
ATOM     33  C   UNL     1      -5.292  -1.388 128.241  0.00  0.00    +0.000 C 
BRANCH  33  34
ATOM     34  C   UNL     1      -6.265  -2.540 128.454  0.00  0.00    +0.000 C 
BRANCH  34  35
ATOM     35  O   UNL     1      -7.608  -2.131 128.212  0.00  0.00    +0.000 OA
ATOM     36  H   UNL     1      -7.986  -1.908 129.078  0.00  0.00    +0.000 HD
ENDBRANCH  34  35
ENDBRANCH  33  34
ENDBRANCH  16  33
BRANCH  16  37
ATOM     37  C   UNL     1      -5.387  -0.212 126.015  0.00  0.00    +0.000 C 
BRANCH  37  38
ATOM     38  C   UNL     1      -6.341  -0.995 125.067  0.00  0.00    +0.000 C 
BRANCH  38  39
ATOM     39  O   UNL     1      -7.717  -0.805 125.399  0.00  0.00    +0.000 OA
ATOM     40  H   UNL     1      -7.814  -0.918 126.360  0.00  0.00    +0.000 HD
ENDBRANCH  38  39
ENDBRANCH  37  38
ENDBRANCH  16  37
TORSDOF 12
ENDMDL
MODEL 7
REMARK VINA RESULT:      -6.8      2.562      5.811
REMARK  Name = Dipyridamole
REMARK  12 active torsions:
REMARK  status: ('A' for Active; 'I' for Inactive)
REMARK    1  A    between atoms: O_1  and  C_2
REMARK    2  A    between atoms: C_2  and  C_3
REMARK    3  A    between atoms: C_3  and  N_4
REMARK    4  A    between atoms: N_4  and  C_5
REMARK    5  A    between atoms: C_5  and  C_6
REMARK    6  A    between atoms: C_6  and  O_7
REMARK    7  A    between atoms: N_22  and  C_23
REMARK    8  A    between atoms: N_22  and  C_26
REMARK    9  A    between atoms: C_23  and  C_24
REMARK   10  A    between atoms: C_24  and  O_25
REMARK   11  A    between atoms: C_26  and  C_27
REMARK   12  A    between atoms: C_27  and  O_28
REMARK                            x       y       z     vdW  Elec       q    Type
REMARK                         _______ _______ _______ _____ _____    ______ ____
ROOT
ATOM      1  N   UNL     1      -7.068  -1.845 125.472  0.00  0.00    +0.000 N 
ATOM      2  C   UNL     1      -7.232  -0.897 126.507  0.00  0.00    +0.000 A 
ATOM      3  N   UNL     1      -7.432   0.382 126.169  0.00  0.00    +0.000 NA
ATOM      4  C   UNL     1      -7.651   1.321 127.136  0.00  0.00    +0.000 A 
ATOM      5  C   UNL     1      -7.645   1.032 128.515  0.00  0.00    +0.000 A 
ATOM      6  N   UNL     1      -7.833   1.974 129.492  0.00  0.00    +0.000 NA
ATOM      7  C   UNL     1      -8.014   3.248 129.158  0.00  0.00    +0.000 A 
ATOM      8  N   UNL     1      -8.013   3.589 127.853  0.00  0.00    +0.000 NA
ATOM      9  C   UNL     1      -7.869   2.679 126.854  0.00  0.00    +0.000 A 
ATOM     10  N   UNL     1      -7.983   3.163 125.540  0.00  0.00    +0.000 N 
ATOM     11  C   UNL     1      -8.965   2.639 124.594  0.00  0.00    +0.000 C 
ATOM     12  C   UNL     1      -8.255   2.033 123.382  0.00  0.00    +0.000 C 
ATOM     13  C   UNL     1      -7.266   3.003 122.738  0.00  0.00    +0.000 C 
ATOM     14  C   UNL     1      -6.339   3.628 123.789  0.00  0.00    +0.000 C 
ATOM     15  C   UNL     1      -7.114   4.205 124.991  0.00  0.00    +0.000 C 
ATOM     16  N   UNL     1      -8.236   4.211 130.144  0.00  0.00    +0.000 N 
ATOM     17  C   UNL     1      -7.396  -0.329 128.799  0.00  0.00    +0.000 A 
ATOM     18  N   UNL     1      -7.208  -1.269 127.810  0.00  0.00    +0.000 NA
ATOM     19  N   UNL     1      -7.334  -0.757 130.140  0.00  0.00    +0.000 N 
ATOM     20  C   UNL     1      -8.451  -0.604 131.072  0.00  0.00    +0.000 C 
ATOM     21  C   UNL     1      -8.026   0.201 132.306  0.00  0.00    +0.000 C 
ATOM     22  C   UNL     1      -6.765  -0.350 132.965  0.00  0.00    +0.000 C 
ATOM     23  C   UNL     1      -5.658  -0.553 131.926  0.00  0.00    +0.000 C 
ATOM     24  C   UNL     1      -6.135  -1.370 130.705  0.00  0.00    +0.000 C 
ENDROOT
BRANCH   1  25
ATOM     25  C   UNL     1      -7.866  -3.085 125.621  0.00  0.00    +0.000 C 
BRANCH  25  26
ATOM     26  C   UNL     1      -9.388  -2.961 125.430  0.00  0.00    +0.000 C 
BRANCH  26  27
ATOM     27  O   UNL     1      -9.916  -3.137 124.124  0.00  0.00    +0.000 OA
ATOM     28  H   UNL     1     -10.729  -2.589 124.121  0.00  0.00    +0.000 HD
ENDBRANCH  26  27
ENDBRANCH  25  26
ENDBRANCH   1  25
BRANCH   1  29
ATOM     29  C   UNL     1      -6.223  -1.428 124.322  0.00  0.00    +0.000 C 
BRANCH  29  30
ATOM     30  C   UNL     1      -6.551  -1.948 122.908  0.00  0.00    +0.000 C 
BRANCH  30  31
ATOM     31  O   UNL     1      -7.887  -1.697 122.481  0.00  0.00    +0.000 OA
ATOM     32  H   UNL     1      -7.836  -1.051 121.756  0.00  0.00    +0.000 HD
ENDBRANCH  30  31
ENDBRANCH  29  30
ENDBRANCH   1  29
BRANCH  16  33
ATOM     33  C   UNL     1      -8.470   5.628 129.836  0.00  0.00    +0.000 C 
BRANCH  33  34
ATOM     34  C   UNL     1      -9.835   6.032 129.297  0.00  0.00    +0.000 C 
BRANCH  34  35
ATOM     35  O   UNL     1      -9.788   6.249 127.889  0.00  0.00    +0.000 OA
ATOM     36  H   UNL     1     -10.211   5.477 127.480  0.00  0.00    +0.000 HD
ENDBRANCH  34  35
ENDBRANCH  33  34
ENDBRANCH  16  33
BRANCH  16  37
ATOM     37  C   UNL     1      -8.166   3.832 131.578  0.00  0.00    +0.000 C 
BRANCH  37  38
ATOM     38  C   UNL     1      -9.531   3.614 132.289  0.00  0.00    +0.000 C 
BRANCH  38  39
ATOM     39  O   UNL     1     -10.384   2.720 131.573  0.00  0.00    +0.000 OA
ATOM     40  H   UNL     1     -10.999   3.253 131.039  0.00  0.00    +0.000 HD
ENDBRANCH  38  39
ENDBRANCH  37  38
ENDBRANCH  16  37
TORSDOF 12
ENDMDL
MODEL 8
REMARK VINA RESULT:      -6.2      2.266      6.966
REMARK  Name = Dipyridamole
REMARK  12 active torsions:
REMARK  status: ('A' for Active; 'I' for Inactive)
REMARK    1  A    between atoms: O_1  and  C_2
REMARK    2  A    between atoms: C_2  and  C_3
REMARK    3  A    between atoms: C_3  and  N_4
REMARK    4  A    between atoms: N_4  and  C_5
REMARK    5  A    between atoms: C_5  and  C_6
REMARK    6  A    between atoms: C_6  and  O_7
REMARK    7  A    between atoms: N_22  and  C_23
REMARK    8  A    between atoms: N_22  and  C_26
REMARK    9  A    between atoms: C_23  and  C_24
REMARK   10  A    between atoms: C_24  and  O_25
REMARK   11  A    between atoms: C_26  and  C_27
REMARK   12  A    between atoms: C_27  and  O_28
REMARK                            x       y       z     vdW  Elec       q    Type
REMARK                         _______ _______ _______ _____ _____    ______ ____
ROOT
ATOM      1  N   UNL     1      -6.146   2.120 131.501  0.00  0.00    +0.000 N 
ATOM      2  C   UNL     1      -6.396   1.710 130.172  0.00  0.00    +0.000 A 
ATOM      3  N   UNL     1      -6.592   0.408 129.936  0.00  0.00    +0.000 NA
ATOM      4  C   UNL     1      -6.892  -0.025 128.676  0.00  0.00    +0.000 A 
ATOM      5  C   UNL     1      -6.975   0.832 127.561  0.00  0.00    +0.000 A 
ATOM      6  N   UNL     1      -7.245   0.403 126.288  0.00  0.00    +0.000 NA
ATOM      7  C   UNL     1      -7.423  -0.894 126.050  0.00  0.00    +0.000 A 
ATOM      8  N   UNL     1      -7.338  -1.765 127.077  0.00  0.00    +0.000 NA
ATOM      9  C   UNL     1      -7.111  -1.374 128.358  0.00  0.00    +0.000 A 
ATOM     10  N   UNL     1      -7.143  -2.381 129.337  0.00  0.00    +0.000 N 
ATOM     11  C   UNL     1      -8.049  -2.332 130.482  0.00  0.00    +0.000 C 
ATOM     12  C   UNL     1      -7.248  -2.298 131.785  0.00  0.00    +0.000 C 
ATOM     13  C   UNL     1      -6.233  -3.436 131.877  0.00  0.00    +0.000 C 
ATOM     14  C   UNL     1      -5.390  -3.531 130.599  0.00  0.00    +0.000 C 
ATOM     15  C   UNL     1      -6.255  -3.544 129.321  0.00  0.00    +0.000 C 
ATOM     16  N   UNL     1      -7.727  -1.340 124.763  0.00  0.00    +0.000 N 
ATOM     17  C   UNL     1      -6.725   2.186 127.877  0.00  0.00    +0.000 A 
ATOM     18  N   UNL     1      -6.455   2.608 129.159  0.00  0.00    +0.000 NA
ATOM     19  N   UNL     1      -6.748   3.152 126.851  0.00  0.00    +0.000 N 
ATOM     20  C   UNL     1      -7.929   3.400 126.024  0.00  0.00    +0.000 C 
ATOM     21  C   UNL     1      -7.603   3.214 124.537  0.00  0.00    +0.000 C 
ATOM     22  C   UNL     1      -6.381   4.015 124.097  0.00  0.00    +0.000 C 
ATOM     23  C   UNL     1      -5.202   3.766 125.043  0.00  0.00    +0.000 C 
ATOM     24  C   UNL     1      -5.582   3.968 126.527  0.00  0.00    +0.000 C 
ENDROOT
BRANCH   1  25
ATOM     25  C   UNL     1      -6.932   3.290 131.958  0.00  0.00    +0.000 C 
BRANCH  25  26
ATOM     26  C   UNL     1      -8.443   3.077 132.164  0.00  0.00    +0.000 C 
BRANCH  26  27
ATOM     27  O   UNL     1      -8.858   2.087 133.093  0.00  0.00    +0.000 OA
ATOM     28  H   UNL     1      -9.063   2.595 133.906  0.00  0.00    +0.000 HD
ENDBRANCH  26  27
ENDBRANCH  25  26
ENDBRANCH   1  25
BRANCH   1  29
ATOM     29  C   UNL     1      -5.231   1.259 132.297  0.00  0.00    +0.000 C 
BRANCH  29  30
ATOM     30  C   UNL     1      -5.523   1.015 133.791  0.00  0.00    +0.000 C 
BRANCH  30  31
ATOM     31  O   UNL     1      -6.791   0.422 134.055  0.00  0.00    +0.000 OA
ATOM     32  H   UNL     1      -6.891  -0.322 133.437  0.00  0.00    +0.000 HD
ENDBRANCH  30  31
ENDBRANCH  29  30
ENDBRANCH   1  29
BRANCH  16  33
ATOM     33  C   UNL     1      -7.961  -2.753 124.443  0.00  0.00    +0.000 C 
BRANCH  33  34
ATOM     34  C   UNL     1      -9.396  -3.265 124.448  0.00  0.00    +0.000 C 
BRANCH  34  35
ATOM     35  O   UNL     1     -10.086  -2.850 125.623  0.00  0.00    +0.000 OA
ATOM     36  H   UNL     1      -9.407  -2.542 126.244  0.00  0.00    +0.000 HD
ENDBRANCH  34  35
ENDBRANCH  33  34
ENDBRANCH  16  33
BRANCH  16  37
ATOM     37  C   UNL     1      -7.749  -0.377 123.633  0.00  0.00    +0.000 C 
BRANCH  37  38
ATOM     38  C   UNL     1      -9.138   0.233 123.288  0.00  0.00    +0.000 C 
BRANCH  38  39
ATOM     39  O   UNL     1      -9.930  -0.635 122.478  0.00  0.00    +0.000 OA
ATOM     40  H   UNL     1     -10.866  -0.479 122.694  0.00  0.00    +0.000 HD
ENDBRANCH  38  39
ENDBRANCH  37  38
ENDBRANCH  16  37
TORSDOF 12
ENDMDL
MODEL 9
REMARK VINA RESULT:      -6.1      2.185      5.518
REMARK  Name = Dipyridamole
REMARK  12 active torsions:
REMARK  status: ('A' for Active; 'I' for Inactive)
REMARK    1  A    between atoms: O_1  and  C_2
REMARK    2  A    between atoms: C_2  and  C_3
REMARK    3  A    between atoms: C_3  and  N_4
REMARK    4  A    between atoms: N_4  and  C_5
REMARK    5  A    between atoms: C_5  and  C_6
REMARK    6  A    between atoms: C_6  and  O_7
REMARK    7  A    between atoms: N_22  and  C_23
REMARK    8  A    between atoms: N_22  and  C_26
REMARK    9  A    between atoms: C_23  and  C_24
REMARK   10  A    between atoms: C_24  and  O_25
REMARK   11  A    between atoms: C_26  and  C_27
REMARK   12  A    between atoms: C_27  and  O_28
REMARK                            x       y       z     vdW  Elec       q    Type
REMARK                         _______ _______ _______ _____ _____    ______ ____
ROOT
ATOM      1  N   UNL     1      -7.333  -2.371 124.376  0.00  0.00    +0.000 N 
ATOM      2  C   UNL     1      -7.326  -1.716 125.629  0.00  0.00    +0.000 A 
ATOM      3  N   UNL     1      -7.472  -0.386 125.650  0.00  0.00    +0.000 NA
ATOM      4  C   UNL     1      -7.527   0.280 126.841  0.00  0.00    +0.000 A 
ATOM      5  C   UNL     1      -7.400  -0.355 128.092  0.00  0.00    +0.000 A 
ATOM      6  N   UNL     1      -7.424   0.310 129.290  0.00  0.00    +0.000 NA
ATOM      7  C   UNL     1      -7.551   1.634 129.311  0.00  0.00    +0.000 A 
ATOM      8  N   UNL     1      -7.659   2.299 128.142  0.00  0.00    +0.000 NA
ATOM      9  C   UNL     1      -7.680   1.672 126.937  0.00  0.00    +0.000 A 
ATOM     10  N   UNL     1      -7.894   2.483 125.810  0.00  0.00    +0.000 N 
ATOM     11  C   UNL     1      -9.001   2.259 124.882  0.00  0.00    +0.000 C 
ATOM     12  C   UNL     1      -8.460   1.959 123.483  0.00  0.00    +0.000 C 
ATOM     13  C   UNL     1      -7.479   3.023 122.994  0.00  0.00    +0.000 C 
ATOM     14  C   UNL     1      -6.409   3.318 124.053  0.00  0.00    +0.000 C 
ATOM     15  C   UNL     1      -7.017   3.596 125.444  0.00  0.00    +0.000 C 
ATOM     16  N   UNL     1      -7.605   2.318 130.526  0.00  0.00    +0.000 N 
ATOM     17  C   UNL     1      -7.217  -1.752 127.993  0.00  0.00    +0.000 A 
ATOM     18  N   UNL     1      -7.195  -2.411 126.785  0.00  0.00    +0.000 NA
ATOM     19  N   UNL     1      -7.047  -2.513 129.167  0.00  0.00    +0.000 N 
ATOM     20  C   UNL     1      -8.050  -2.562 130.230  0.00  0.00    +0.000 C 
ATOM     21  C   UNL     1      -7.449  -2.120 131.569  0.00  0.00    +0.000 C 
ATOM     22  C   UNL     1      -6.167  -2.871 131.917  0.00  0.00    +0.000 C 
ATOM     23  C   UNL     1      -5.188  -2.843 130.739  0.00  0.00    +0.000 C 
ATOM     24  C   UNL     1      -5.842  -3.298 129.416  0.00  0.00    +0.000 C 
ENDROOT
BRANCH   1  25
ATOM     25  C   UNL     1      -8.193  -3.575 124.300  0.00  0.00    +0.000 C 
BRANCH  25  26
ATOM     26  C   UNL     1      -9.532  -3.428 123.553  0.00  0.00    +0.000 C 
BRANCH  26  27
ATOM     27  O   UNL     1      -9.975  -2.121 123.224  0.00  0.00    +0.000 OA
ATOM     28  H   UNL     1      -9.765  -2.032 122.271  0.00  0.00    +0.000 HD
ENDBRANCH  26  27
ENDBRANCH  25  26
ENDBRANCH   1  25
BRANCH   1  29
ATOM     29  C   UNL     1      -6.583  -1.704 123.279  0.00  0.00    +0.000 C 
BRANCH  29  30
ATOM     30  C   UNL     1      -5.512  -2.494 122.500  0.00  0.00    +0.000 C 
BRANCH  30  31
ATOM     31  O   UNL     1      -4.560  -3.164 123.321  0.00  0.00    +0.000 OA
ATOM     32  H   UNL     1      -3.679  -2.877 123.026  0.00  0.00    +0.000 HD
ENDBRANCH  30  31
ENDBRANCH  29  30
ENDBRANCH   1  29
BRANCH  16  33
ATOM     33  C   UNL     1      -7.772   3.774 130.615  0.00  0.00    +0.000 C 
BRANCH  33  34
ATOM     34  C   UNL     1      -6.523   4.645 130.608  0.00  0.00    +0.000 C 
BRANCH  34  35
ATOM     35  O   UNL     1      -6.466   5.455 129.437  0.00  0.00    +0.000 OA
ATOM     36  H   UNL     1      -6.479   6.376 129.742  0.00  0.00    +0.000 HD
ENDBRANCH  34  35
ENDBRANCH  33  34
ENDBRANCH  16  33
BRANCH  16  37
ATOM     37  C   UNL     1      -7.415   1.579 131.800  0.00  0.00    +0.000 C 
BRANCH  37  38
ATOM     38  C   UNL     1      -5.947   1.453 132.299  0.00  0.00    +0.000 C 
BRANCH  38  39
ATOM     39  O   UNL     1      -5.125   0.713 131.396  0.00  0.00    +0.000 OA
ATOM     40  H   UNL     1      -5.688   0.069 130.933  0.00  0.00    +0.000 HD
ENDBRANCH  38  39
ENDBRANCH  37  38
ENDBRANCH  16  37
TORSDOF 12
ENDMDL
