MODEL 1
REMARK VINA RESULT:      -5.9      0.000      0.000
REMARK  Name = Diroximel fumarate
REMARK  8 active torsions:
REMARK  status: ('A' for Active; 'I' for Inactive)
REMARK    1  A    between atoms: C_1  and  O_2
REMARK    2  A    between atoms: O_2  and  C_3
REMARK    3  A    between atoms: C_3  and  C_5
REMARK    4  A    between atoms: C_6  and  C_7
REMARK    5  A    between atoms: C_7  and  O_9
REMARK    6  A    between atoms: O_9  and  C_10
REMARK    7  A    between atoms: C_10  and  C_11
REMARK    8  A    between atoms: C_11  and  N_12
REMARK                            x       y       z     vdW  Elec       q    Type
REMARK                         _______ _______ _______ _____ _____    ______ ____
ROOT
ATOM      1  O   UNL     1      -9.658   4.810 131.440  0.00  0.00    +0.000 OA
ENDROOT
BRANCH   1   2
ATOM      2  C   UNL     1      -9.345   6.007 132.033  0.00  0.00    +0.000 C 
ATOM      3  O   UNL     1      -9.957   6.514 132.965  0.00  0.00    +0.000 OA
BRANCH   2   5
ATOM      4  C   UNL     1      -6.898   6.313 131.805  0.00  0.00    +0.000 C 
ATOM      5  C   UNL     1      -8.149   6.636 131.411  0.00  0.00    +0.000 C 
BRANCH   4   6
ATOM      6  C   UNL     1      -5.710   6.943 131.167  0.00  0.00    +0.000 C 
ATOM      7  O   UNL     1      -5.778   7.700 130.206  0.00  0.00    +0.000 OA
BRANCH   6   9
ATOM      8  C   UNL     1      -3.475   7.512 131.675  0.00  0.00    +0.000 C 
ATOM      9  O   UNL     1      -4.558   6.566 131.788  0.00  0.00    +0.000 OA
ENDBRANCH   6   9
ENDBRANCH   4   6
ENDBRANCH   2   5
ENDBRANCH   1   2
BRANCH   1  10
ATOM     10  C   UNL     1     -10.148   4.951 130.080  0.00  0.00    +0.000 C 
BRANCH  10  11
ATOM     11  C   UNL     1     -11.663   5.247 129.987  0.00  0.00    +0.000 C 
BRANCH  11  12
ATOM     12  N   UNL     1     -11.980   6.652 129.668  0.00  0.00    +0.000 N 
ATOM     13  C   UNL     1     -12.608   7.506 130.533  0.00  0.00    +0.000 C 
ATOM     14  O   UNL     1     -12.987   7.255 131.667  0.00  0.00    +0.000 OA
ATOM     15  C   UNL     1     -12.790   8.847 129.873  0.00  0.00    +0.000 C 
ATOM     16  C   UNL     1     -12.212   8.662 128.488  0.00  0.00    +0.000 C 
ATOM     17  C   UNL     1     -11.851   7.210 128.428  0.00  0.00    +0.000 C 
ATOM     18  O   UNL     1     -11.485   6.660 127.404  0.00  0.00    +0.000 OA
ENDBRANCH  11  12
ENDBRANCH  10  11
ENDBRANCH   1  10
TORSDOF 7
ENDMDL
MODEL 2
REMARK VINA RESULT:      -5.7      1.510      2.407
REMARK  Name = Diroximel fumarate
REMARK  8 active torsions:
REMARK  status: ('A' for Active; 'I' for Inactive)
REMARK    1  A    between atoms: C_1  and  O_2
REMARK    2  A    between atoms: O_2  and  C_3
REMARK    3  A    between atoms: C_3  and  C_5
REMARK    4  A    between atoms: C_6  and  C_7
REMARK    5  A    between atoms: C_7  and  O_9
REMARK    6  A    between atoms: O_9  and  C_10
REMARK    7  A    between atoms: C_10  and  C_11
REMARK    8  A    between atoms: C_11  and  N_12
REMARK                            x       y       z     vdW  Elec       q    Type
REMARK                         _______ _______ _______ _____ _____    ______ ____
ROOT
ATOM      1  O   UNL     1      -9.284   6.841 131.556  0.00  0.00    +0.000 OA
ENDROOT
BRANCH   1   2
ATOM      2  C   UNL     1      -8.060   6.289 131.838  0.00  0.00    +0.000 C 
ATOM      3  O   UNL     1      -7.871   5.337 132.584  0.00  0.00    +0.000 OA
BRANCH   2   5
ATOM      4  C   UNL     1      -5.684   6.550 131.190  0.00  0.00    +0.000 C 
ATOM      5  C   UNL     1      -6.961   6.985 131.117  0.00  0.00    +0.000 C 
BRANCH   4   6
ATOM      6  C   UNL     1      -4.596   7.251 130.455  0.00  0.00    +0.000 C 
ATOM      7  O   UNL     1      -3.793   8.004 130.991  0.00  0.00    +0.000 OA
BRANCH   6   9
ATOM      8  C   UNL     1      -3.347   7.062 128.459  0.00  0.00    +0.000 C 
ATOM      9  O   UNL     1      -4.620   6.946 129.128  0.00  0.00    +0.000 OA
ENDBRANCH   6   9
ENDBRANCH   4   6
ENDBRANCH   2   5
ENDBRANCH   1   2
BRANCH   1  10
ATOM     10  C   UNL     1     -10.394   5.935 131.796  0.00  0.00    +0.000 C 
BRANCH  10  11
ATOM     11  C   UNL     1     -11.255   5.651 130.543  0.00  0.00    +0.000 C 
BRANCH  11  12
ATOM     12  N   UNL     1     -11.337   6.784 129.604  0.00  0.00    +0.000 N 
ATOM     13  C   UNL     1     -10.505   6.943 128.528  0.00  0.00    +0.000 C 
ATOM     14  O   UNL     1      -9.601   6.198 128.183  0.00  0.00    +0.000 OA
ATOM     15  C   UNL     1     -10.857   8.215 127.804  0.00  0.00    +0.000 C 
ATOM     16  C   UNL     1     -11.989   8.805 128.615  0.00  0.00    +0.000 C 
ATOM     17  C   UNL     1     -12.119   7.888 129.791  0.00  0.00    +0.000 C 
ATOM     18  O   UNL     1     -12.844   8.128 130.742  0.00  0.00    +0.000 OA
ENDBRANCH  11  12
ENDBRANCH  10  11
ENDBRANCH   1  10
TORSDOF 7
ENDMDL
MODEL 3
REMARK VINA RESULT:      -5.7      8.508     10.166
REMARK  Name = Diroximel fumarate
REMARK  8 active torsions:
REMARK  status: ('A' for Active; 'I' for Inactive)
REMARK    1  A    between atoms: C_1  and  O_2
REMARK    2  A    between atoms: O_2  and  C_3
REMARK    3  A    between atoms: C_3  and  C_5
REMARK    4  A    between atoms: C_6  and  C_7
REMARK    5  A    between atoms: C_7  and  O_9
REMARK    6  A    between atoms: O_9  and  C_10
REMARK    7  A    between atoms: C_10  and  C_11
REMARK    8  A    between atoms: C_11  and  N_12
REMARK                            x       y       z     vdW  Elec       q    Type
REMARK                         _______ _______ _______ _____ _____    ______ ____
ROOT
ATOM      1  O   UNL     1      -9.026   2.035 125.512  0.00  0.00    +0.000 OA
ENDROOT
BRANCH   1   2
ATOM      2  C   UNL     1      -9.132   2.235 124.159  0.00  0.00    +0.000 C 
ATOM      3  O   UNL     1      -9.951   1.695 123.428  0.00  0.00    +0.000 OA
BRANCH   2   5
ATOM      4  C   UNL     1      -6.989   2.803 123.053  0.00  0.00    +0.000 C 
ATOM      5  C   UNL     1      -8.123   3.211 123.665  0.00  0.00    +0.000 C 
BRANCH   4   6
ATOM      6  C   UNL     1      -5.993   3.791 122.556  0.00  0.00    +0.000 C 
ATOM      7  O   UNL     1      -5.565   4.720 123.229  0.00  0.00    +0.000 OA
BRANCH   6   9
ATOM      8  C   UNL     1      -6.525   4.062 120.271  0.00  0.00    +0.000 C 
ATOM      9  O   UNL     1      -5.634   3.524 121.269  0.00  0.00    +0.000 OA
ENDBRANCH   6   9
ENDBRANCH   4   6
ENDBRANCH   2   5
ENDBRANCH   1   2
BRANCH   1  10
ATOM     10  C   UNL     1      -9.471   0.718 125.936  0.00  0.00    +0.000 C 
BRANCH  10  11
ATOM     11  C   UNL     1      -8.375  -0.370 125.856  0.00  0.00    +0.000 C 
BRANCH  11  12
ATOM     12  N   UNL     1      -8.555  -1.320 124.743  0.00  0.00    +0.000 N 
ATOM     13  C   UNL     1      -9.326  -2.449 124.823  0.00  0.00    +0.000 C 
ATOM     14  O   UNL     1      -9.968  -2.831 125.789  0.00  0.00    +0.000 OA
ATOM     15  C   UNL     1      -9.265  -3.192 123.516  0.00  0.00    +0.000 C 
ATOM     16  C   UNL     1      -8.329  -2.369 122.661  0.00  0.00    +0.000 C 
ATOM     17  C   UNL     1      -7.844  -1.288 123.577  0.00  0.00    +0.000 C 
ATOM     18  O   UNL     1      -6.957  -0.510 123.274  0.00  0.00    +0.000 OA
ENDBRANCH  11  12
ENDBRANCH  10  11
ENDBRANCH   1  10
TORSDOF 7
ENDMDL
MODEL 4
REMARK VINA RESULT:      -5.6      8.896     10.571
REMARK  Name = Diroximel fumarate
REMARK  8 active torsions:
REMARK  status: ('A' for Active; 'I' for Inactive)
REMARK    1  A    between atoms: C_1  and  O_2
REMARK    2  A    between atoms: O_2  and  C_3
REMARK    3  A    between atoms: C_3  and  C_5
REMARK    4  A    between atoms: C_6  and  C_7
REMARK    5  A    between atoms: C_7  and  O_9
REMARK    6  A    between atoms: O_9  and  C_10
REMARK    7  A    between atoms: C_10  and  C_11
REMARK    8  A    between atoms: C_11  and  N_12
REMARK                            x       y       z     vdW  Elec       q    Type
REMARK                         _______ _______ _______ _____ _____    ______ ____
ROOT
ATOM      1  O   UNL     1      -7.201   2.066 125.085  0.00  0.00    +0.000 OA
ENDROOT
BRANCH   1   2
ATOM      2  C   UNL     1      -7.724   3.266 124.672  0.00  0.00    +0.000 C 
ATOM      3  O   UNL     1      -8.808   3.718 125.016  0.00  0.00    +0.000 OA
BRANCH   2   5
ATOM      4  C   UNL     1      -6.435   3.436 122.564  0.00  0.00    +0.000 C 
ATOM      5  C   UNL     1      -6.806   3.979 123.743  0.00  0.00    +0.000 C 
BRANCH   4   6
ATOM      6  C   UNL     1      -5.523   4.165 121.641  0.00  0.00    +0.000 C 
ATOM      7  O   UNL     1      -4.722   5.015 122.010  0.00  0.00    +0.000 OA
BRANCH   6   9
ATOM      8  C   UNL     1      -6.965   4.154 119.770  0.00  0.00    +0.000 C 
ATOM      9  O   UNL     1      -5.704   3.766 120.351  0.00  0.00    +0.000 OA
ENDBRANCH   6   9
ENDBRANCH   4   6
ENDBRANCH   2   5
ENDBRANCH   1   2
BRANCH   1  10
ATOM     10  C   UNL     1      -8.047   0.929 124.767  0.00  0.00    +0.000 C 
BRANCH  10  11
ATOM     11  C   UNL     1      -7.427  -0.047 123.740  0.00  0.00    +0.000 C 
BRANCH  11  12
ATOM     12  N   UNL     1      -7.988  -1.409 123.796  0.00  0.00    +0.000 N 
ATOM     13  C   UNL     1      -9.182  -1.765 123.228  0.00  0.00    +0.000 C 
ATOM     14  O   UNL     1      -9.941  -1.041 122.602  0.00  0.00    +0.000 OA
ATOM     15  C   UNL     1      -9.452  -3.221 123.496  0.00  0.00    +0.000 C 
ATOM     16  C   UNL     1      -8.272  -3.673 124.327  0.00  0.00    +0.000 C 
ATOM     17  C   UNL     1      -7.483  -2.422 124.560  0.00  0.00    +0.000 C 
ATOM     18  O   UNL     1      -6.529  -2.371 125.317  0.00  0.00    +0.000 OA
ENDBRANCH  11  12
ENDBRANCH  10  11
ENDBRANCH   1  10
TORSDOF 7
ENDMDL
MODEL 5
REMARK VINA RESULT:      -5.5      1.440      1.899
REMARK  Name = Diroximel fumarate
REMARK  8 active torsions:
REMARK  status: ('A' for Active; 'I' for Inactive)
REMARK    1  A    between atoms: C_1  and  O_2
REMARK    2  A    between atoms: O_2  and  C_3
REMARK    3  A    between atoms: C_3  and  C_5
REMARK    4  A    between atoms: C_6  and  C_7
REMARK    5  A    between atoms: C_7  and  O_9
REMARK    6  A    between atoms: O_9  and  C_10
REMARK    7  A    between atoms: C_10  and  C_11
REMARK    8  A    between atoms: C_11  and  N_12
REMARK                            x       y       z     vdW  Elec       q    Type
REMARK                         _______ _______ _______ _____ _____    ______ ____
ROOT
ATOM      1  O   UNL     1      -9.641   6.674 131.797  0.00  0.00    +0.000 OA
ENDROOT
BRANCH   1   2
ATOM      2  C   UNL     1      -8.413   6.848 131.210  0.00  0.00    +0.000 C 
ATOM      3  O   UNL     1      -8.209   7.460 130.170  0.00  0.00    +0.000 OA
BRANCH   2   5
ATOM      4  C   UNL     1      -6.028   6.497 131.777  0.00  0.00    +0.000 C 
ATOM      5  C   UNL     1      -7.328   6.202 131.996  0.00  0.00    +0.000 C 
BRANCH   4   6
ATOM      6  C   UNL     1      -4.954   5.849 132.578  0.00  0.00    +0.000 C 
ATOM      7  O   UNL     1      -3.978   5.298 132.084  0.00  0.00    +0.000 OA
BRANCH   6   9
ATOM      8  C   UNL     1      -5.045   4.721 134.651  0.00  0.00    +0.000 C 
ATOM      9  O   UNL     1      -5.205   5.950 133.914  0.00  0.00    +0.000 OA
ENDBRANCH   6   9
ENDBRANCH   4   6
ENDBRANCH   2   5
ENDBRANCH   1   2
BRANCH   1  10
ATOM     10  C   UNL     1     -10.213   5.360 131.559  0.00  0.00    +0.000 C 
BRANCH  10  11
ATOM     11  C   UNL     1     -11.333   5.348 130.492  0.00  0.00    +0.000 C 
BRANCH  11  12
ATOM     12  N   UNL     1     -11.681   6.684 129.975  0.00  0.00    +0.000 N 
ATOM     13  C   UNL     1     -12.581   7.522 130.577  0.00  0.00    +0.000 C 
ATOM     14  O   UNL     1     -13.209   7.310 131.602  0.00  0.00    +0.000 OA
ATOM     15  C   UNL     1     -12.707   8.787 129.770  0.00  0.00    +0.000 C 
ATOM     16  C   UNL     1     -11.785   8.571 128.591  0.00  0.00    +0.000 C 
ATOM     17  C   UNL     1     -11.294   7.167 128.758  0.00  0.00    +0.000 C 
ATOM     18  O   UNL     1     -10.633   6.590 127.910  0.00  0.00    +0.000 OA
ENDBRANCH  11  12
ENDBRANCH  10  11
ENDBRANCH   1  10
TORSDOF 7
ENDMDL
MODEL 6
REMARK VINA RESULT:      -5.5      9.519     11.066
REMARK  Name = Diroximel fumarate
REMARK  8 active torsions:
REMARK  status: ('A' for Active; 'I' for Inactive)
REMARK    1  A    between atoms: C_1  and  O_2
REMARK    2  A    between atoms: O_2  and  C_3
REMARK    3  A    between atoms: C_3  and  C_5
REMARK    4  A    between atoms: C_6  and  C_7
REMARK    5  A    between atoms: C_7  and  O_9
REMARK    6  A    between atoms: O_9  and  C_10
REMARK    7  A    between atoms: C_10  and  C_11
REMARK    8  A    between atoms: C_11  and  N_12
REMARK                            x       y       z     vdW  Elec       q    Type
REMARK                         _______ _______ _______ _____ _____    ______ ____
ROOT
ATOM      1  O   UNL     1      -7.104   1.761 123.598  0.00  0.00    +0.000 OA
ENDROOT
BRANCH   1   2
ATOM      2  C   UNL     1      -8.029   2.419 122.827  0.00  0.00    +0.000 C 
ATOM      3  O   UNL     1      -9.234   2.207 122.837  0.00  0.00    +0.000 OA
BRANCH   2   5
ATOM      4  C   UNL     1      -6.052   3.540 121.843  0.00  0.00    +0.000 C 
ATOM      5  C   UNL     1      -7.394   3.449 121.962  0.00  0.00    +0.000 C 
BRANCH   4   6
ATOM      6  C   UNL     1      -5.431   4.570 120.966  0.00  0.00    +0.000 C 
ATOM      7  O   UNL     1      -4.563   5.347 121.343  0.00  0.00    +0.000 OA
BRANCH   6   9
ATOM      8  C   UNL     1      -5.736   5.721 118.927  0.00  0.00    +0.000 C 
ATOM      9  O   UNL     1      -5.956   4.530 119.710  0.00  0.00    +0.000 OA
ENDBRANCH   6   9
ENDBRANCH   4   6
ENDBRANCH   2   5
ENDBRANCH   1   2
BRANCH   1  10
ATOM     10  C   UNL     1      -7.125   0.320 123.418  0.00  0.00    +0.000 C 
BRANCH  10  11
ATOM     11  C   UNL     1      -6.755  -0.477 124.691  0.00  0.00    +0.000 C 
BRANCH  11  12
ATOM     12  N   UNL     1      -7.587  -1.674 124.911  0.00  0.00    +0.000 N 
ATOM     13  C   UNL     1      -7.219  -2.938 124.532  0.00  0.00    +0.000 C 
ATOM     14  O   UNL     1      -6.180  -3.264 123.980  0.00  0.00    +0.000 OA
ATOM     15  C   UNL     1      -8.312  -3.908 124.890  0.00  0.00    +0.000 C 
ATOM     16  C   UNL     1      -9.392  -3.045 125.503  0.00  0.00    +0.000 C 
ATOM     17  C   UNL     1      -8.881  -1.646 125.347  0.00  0.00    +0.000 C 
ATOM     18  O   UNL     1      -9.554  -0.662 125.601  0.00  0.00    +0.000 OA
ENDBRANCH  11  12
ENDBRANCH  10  11
ENDBRANCH   1  10
TORSDOF 7
ENDMDL
MODEL 7
REMARK VINA RESULT:      -5.3      1.317      2.481
REMARK  Name = Diroximel fumarate
REMARK  8 active torsions:
REMARK  status: ('A' for Active; 'I' for Inactive)
REMARK    1  A    between atoms: C_1  and  O_2
REMARK    2  A    between atoms: O_2  and  C_3
REMARK    3  A    between atoms: C_3  and  C_5
REMARK    4  A    between atoms: C_6  and  C_7
REMARK    5  A    between atoms: C_7  and  O_9
REMARK    6  A    between atoms: O_9  and  C_10
REMARK    7  A    between atoms: C_10  and  C_11
REMARK    8  A    between atoms: C_11  and  N_12
REMARK                            x       y       z     vdW  Elec       q    Type
REMARK                         _______ _______ _______ _____ _____    ______ ____
ROOT
ATOM      1  O   UNL     1      -9.541   6.617 131.652  0.00  0.00    +0.000 OA
ENDROOT
BRANCH   1   2
ATOM      2  C   UNL     1      -8.245   6.800 131.238  0.00  0.00    +0.000 C 
ATOM      3  O   UNL     1      -7.893   7.546 130.334  0.00  0.00    +0.000 OA
BRANCH   2   5
ATOM      4  C   UNL     1      -5.984   6.310 132.121  0.00  0.00    +0.000 C 
ATOM      5  C   UNL     1      -7.291   5.981 132.033  0.00  0.00    +0.000 C 
BRANCH   4   6
ATOM      6  C   UNL     1      -5.042   5.486 132.927  0.00  0.00    +0.000 C 
ATOM      7  O   UNL     1      -5.367   4.456 133.505  0.00  0.00    +0.000 OA
BRANCH   6   9
ATOM      8  C   UNL     1      -3.181   6.148 131.633  0.00  0.00    +0.000 C 
ATOM      9  O   UNL     1      -3.793   6.029 132.934  0.00  0.00    +0.000 OA
ENDBRANCH   6   9
ENDBRANCH   4   6
ENDBRANCH   2   5
ENDBRANCH   1   2
BRANCH   1  10
ATOM     10  C   UNL     1     -10.031   5.268 131.428  0.00  0.00    +0.000 C 
BRANCH  10  11
ATOM     11  C   UNL     1     -11.228   5.190 130.451  0.00  0.00    +0.000 C 
BRANCH  11  12
ATOM     12  N   UNL     1     -11.625   6.493 129.885  0.00  0.00    +0.000 N 
ATOM     13  C   UNL     1     -11.024   7.065 128.796  0.00  0.00    +0.000 C 
ATOM     14  O   UNL     1     -10.103   6.603 128.139  0.00  0.00    +0.000 OA
ATOM     15  C   UNL     1     -11.664   8.396 128.510  0.00  0.00    +0.000 C 
ATOM     16  C   UNL     1     -12.705   8.551 129.596  0.00  0.00    +0.000 C 
ATOM     17  C   UNL     1     -12.502   7.357 130.476  0.00  0.00    +0.000 C 
ATOM     18  O   UNL     1     -13.074   7.215 131.543  0.00  0.00    +0.000 OA
ENDBRANCH  11  12
ENDBRANCH  10  11
ENDBRANCH   1  10
TORSDOF 7
ENDMDL
MODEL 8
REMARK VINA RESULT:      -5.3      2.738      3.747
REMARK  Name = Diroximel fumarate
REMARK  8 active torsions:
REMARK  status: ('A' for Active; 'I' for Inactive)
REMARK    1  A    between atoms: C_1  and  O_2
REMARK    2  A    between atoms: O_2  and  C_3
REMARK    3  A    between atoms: C_3  and  C_5
REMARK    4  A    between atoms: C_6  and  C_7
REMARK    5  A    between atoms: C_7  and  O_9
REMARK    6  A    between atoms: O_9  and  C_10
REMARK    7  A    between atoms: C_10  and  C_11
REMARK    8  A    between atoms: C_11  and  N_12
REMARK                            x       y       z     vdW  Elec       q    Type
REMARK                         _______ _______ _______ _____ _____    ______ ____
ROOT
ATOM      1  O   UNL     1      -9.732   4.778 129.369  0.00  0.00    +0.000 OA
ENDROOT
BRANCH   1   2
ATOM      2  C   UNL     1     -10.238   3.827 130.220  0.00  0.00    +0.000 C 
ATOM      3  O   UNL     1     -11.413   3.490 130.282  0.00  0.00    +0.000 OA
BRANCH   2   5
ATOM      4  C   UNL     1      -9.309   3.157 132.416  0.00  0.00    +0.000 C 
ATOM      5  C   UNL     1      -9.176   3.229 131.074  0.00  0.00    +0.000 C 
BRANCH   4   6
ATOM      6  C   UNL     1      -8.242   2.548 133.256  0.00  0.00    +0.000 C 
ATOM      7  O   UNL     1      -7.589   3.175 134.082  0.00  0.00    +0.000 OA
BRANCH   6   9
ATOM      8  C   UNL     1      -6.732   0.799 132.770  0.00  0.00    +0.000 C 
ATOM      9  O   UNL     1      -8.094   1.222 132.982  0.00  0.00    +0.000 OA
ENDBRANCH   6   9
ENDBRANCH   4   6
ENDBRANCH   2   5
ENDBRANCH   1   2
BRANCH   1  10
ATOM     10  C   UNL     1      -8.820   5.704 130.017  0.00  0.00    +0.000 C 
BRANCH  10  11
ATOM     11  C   UNL     1      -9.523   6.758 130.905  0.00  0.00    +0.000 C 
BRANCH  11  12
ATOM     12  N   UNL     1     -10.746   7.325 130.306  0.00  0.00    +0.000 N 
ATOM     13  C   UNL     1     -12.008   7.073 130.771  0.00  0.00    +0.000 C 
ATOM     14  O   UNL     1     -12.313   6.371 131.723  0.00  0.00    +0.000 OA
ATOM     15  C   UNL     1     -13.013   7.794 129.913  0.00  0.00    +0.000 C 
ATOM     16  C   UNL     1     -12.178   8.482 128.857  0.00  0.00    +0.000 C 
ATOM     17  C   UNL     1     -10.782   8.013 129.127  0.00  0.00    +0.000 C 
ATOM     18  O   UNL     1      -9.847   8.251 128.381  0.00  0.00    +0.000 OA
ENDBRANCH  11  12
ENDBRANCH  10  11
ENDBRANCH   1  10
TORSDOF 7
ENDMDL
MODEL 9
REMARK VINA RESULT:      -5.2      3.448      4.357
REMARK  Name = Diroximel fumarate
REMARK  8 active torsions:
REMARK  status: ('A' for Active; 'I' for Inactive)
REMARK    1  A    between atoms: C_1  and  O_2
REMARK    2  A    between atoms: O_2  and  C_3
REMARK    3  A    between atoms: C_3  and  C_5
REMARK    4  A    between atoms: C_6  and  C_7
REMARK    5  A    between atoms: C_7  and  O_9
REMARK    6  A    between atoms: O_9  and  C_10
REMARK    7  A    between atoms: C_10  and  C_11
REMARK    8  A    between atoms: C_11  and  N_12
REMARK                            x       y       z     vdW  Elec       q    Type
REMARK                         _______ _______ _______ _____ _____    ______ ____
ROOT
ATOM      1  O   UNL     1      -9.438   4.230 129.206  0.00  0.00    +0.000 OA
ENDROOT
BRANCH   1   2
ATOM      2  C   UNL     1      -8.165   4.600 128.850  0.00  0.00    +0.000 C 
ATOM      3  O   UNL     1      -7.432   5.327 129.508  0.00  0.00    +0.000 OA
BRANCH   2   5
ATOM      4  C   UNL     1      -8.076   4.585 126.375  0.00  0.00    +0.000 C 
ATOM      5  C   UNL     1      -7.757   4.001 127.551  0.00  0.00    +0.000 C 
BRANCH   4   6
ATOM      6  C   UNL     1      -7.654   3.979 125.083  0.00  0.00    +0.000 C 
ATOM      7  O   UNL     1      -8.439   3.553 124.246  0.00  0.00    +0.000 OA
BRANCH   6   9
ATOM      8  C   UNL     1      -5.802   4.261 123.645  0.00  0.00    +0.000 C 
ATOM      9  O   UNL     1      -6.297   3.961 124.966  0.00  0.00    +0.000 OA
ENDBRANCH   6   9
ENDBRANCH   4   6
ENDBRANCH   2   5
ENDBRANCH   1   2
BRANCH   1  10
ATOM     10  C   UNL     1      -9.951   4.960 130.352  0.00  0.00    +0.000 C 
BRANCH  10  11
ATOM     11  C   UNL     1     -11.463   5.274 130.270  0.00  0.00    +0.000 C 
BRANCH  11  12
ATOM     12  N   UNL     1     -11.765   6.661 129.871  0.00  0.00    +0.000 N 
ATOM     13  C   UNL     1     -12.529   7.518 130.617  0.00  0.00    +0.000 C 
ATOM     14  O   UNL     1     -13.056   7.283 131.694  0.00  0.00    +0.000 OA
ATOM     15  C   UNL     1     -12.647   8.838 129.902  0.00  0.00    +0.000 C 
ATOM     16  C   UNL     1     -11.878   8.636 128.617  0.00  0.00    +0.000 C 
ATOM     17  C   UNL     1     -11.477   7.194 128.647  0.00  0.00    +0.000 C 
ATOM     18  O   UNL     1     -10.958   6.630 127.699  0.00  0.00    +0.000 OA
ENDBRANCH  11  12
ENDBRANCH  10  11
ENDBRANCH   1  10
TORSDOF 7
ENDMDL
