MODEL 1
REMARK VINA RESULT:      -7.7      0.000      0.000
REMARK  Name = Disopyramide
REMARK  12 active torsions:
REMARK  status: ('A' for Active; 'I' for Inactive)
REMARK    1  A    between atoms: C_1  and  C_2
REMARK    2  A    between atoms: C_2  and  C_3
REMARK    3  A    between atoms: C_2  and  N_4
REMARK    4  A    between atoms: N_4  and  C_5
REMARK    5  A    between atoms: N_4  and  C_23
REMARK    6  A    between atoms: C_5  and  C_6
REMARK    7  A    between atoms: C_6  and  C_7
REMARK    8  A    between atoms: C_7  and  C_8
REMARK    9  A    between atoms: C_7  and  C_11
REMARK   10  A    between atoms: C_7  and  C_17
REMARK   11  A    between atoms: C_23  and  C_24
REMARK   12  A    between atoms: C_23  and  C_25
REMARK                            x       y       z     vdW  Elec       q    Type
REMARK                         _______ _______ _______ _____ _____    ______ ____
ROOT
ATOM      1  C   UNL     1      -7.502   2.162 123.665  0.00  0.00    +0.000 C 
ENDROOT
BRANCH   1   2
ATOM      2  C   UNL     1      -6.527   2.697 124.742  0.00  0.00    +0.000 A 
ATOM      3  C   UNL     1      -6.356   4.070 124.971  0.00  0.00    +0.000 A 
ATOM      4  C   UNL     1      -5.286   4.543 125.711  0.00  0.00    +0.000 A 
ATOM      5  C   UNL     1      -4.393   3.640 126.270  0.00  0.00    +0.000 A 
ATOM      6  C   UNL     1      -4.650   2.280 126.197  0.00  0.00    +0.000 A 
ATOM      7  C   UNL     1      -5.806   1.840 125.576  0.00  0.00    +0.000 A 
ENDBRANCH   1   2
BRANCH   1   8
ATOM      8  C   UNL     1      -7.531   2.950 122.293  0.00  0.00    +0.000 A 
ATOM      9  N   UNL     1      -8.729   3.282 121.739  0.00  0.00    +0.000 NA
ATOM     10  C   UNL     1      -8.741   3.931 120.546  0.00  0.00    +0.000 A 
ATOM     11  C   UNL     1      -7.611   4.156 119.781  0.00  0.00    +0.000 A 
ATOM     12  C   UNL     1      -6.400   3.784 120.317  0.00  0.00    +0.000 A 
ATOM     13  C   UNL     1      -6.366   3.315 121.621  0.00  0.00    +0.000 A 
ENDBRANCH   1   8
BRANCH   1  14
ATOM     14  C   UNL     1      -9.020   2.039 124.111  0.00  0.00    +0.000 C 
ATOM     15  N   UNL     1      -9.903   1.376 123.299  0.00  0.00    +0.000 N 
ATOM     16  O   UNL     1      -9.485   2.527 125.129  0.00  0.00    +0.000 OA
ATOM     17  H   UNL     1      -9.648   0.905 122.448  0.00  0.00    +0.000 HD
ATOM     18  H   UNL     1     -10.874   1.369 123.576  0.00  0.00    +0.000 HD
ENDBRANCH   1  14
BRANCH   1  19
ATOM     19  C   UNL     1      -6.999   0.737 123.373  0.00  0.00    +0.000 C 
BRANCH  19  20
ATOM     20  C   UNL     1      -7.661  -0.403 124.156  0.00  0.00    +0.000 C 
BRANCH  20  21
ATOM     21  N   UNL     1      -7.318  -1.811 123.818  0.00  0.00    +0.000 NA
BRANCH  21  23
ATOM     22  C   UNL     1      -9.160  -2.204 125.595  0.00  0.00    +0.000 C 
ATOM     23  C   UNL     1      -8.296  -2.769 124.443  0.00  0.00    +0.000 C 
ATOM     24  C   UNL     1      -9.400  -3.242 123.497  0.00  0.00    +0.000 C 
ENDBRANCH  21  23
BRANCH  21  25
ATOM     25  C   UNL     1      -5.871  -2.032 124.218  0.00  0.00    +0.000 C 
ATOM     26  C   UNL     1      -5.564  -1.862 125.711  0.00  0.00    +0.000 C 
ATOM     27  C   UNL     1      -5.347  -3.467 123.924  0.00  0.00    +0.000 C 
ENDBRANCH  21  25
ENDBRANCH  20  21
ENDBRANCH  19  20
ENDBRANCH   1  19
TORSDOF 8
ENDMDL
MODEL 2
REMARK VINA RESULT:      -7.4      0.508      1.742
REMARK  Name = Disopyramide
REMARK  12 active torsions:
REMARK  status: ('A' for Active; 'I' for Inactive)
REMARK    1  A    between atoms: C_1  and  C_2
REMARK    2  A    between atoms: C_2  and  C_3
REMARK    3  A    between atoms: C_2  and  N_4
REMARK    4  A    between atoms: N_4  and  C_5
REMARK    5  A    between atoms: N_4  and  C_23
REMARK    6  A    between atoms: C_5  and  C_6
REMARK    7  A    between atoms: C_6  and  C_7
REMARK    8  A    between atoms: C_7  and  C_8
REMARK    9  A    between atoms: C_7  and  C_11
REMARK   10  A    between atoms: C_7  and  C_17
REMARK   11  A    between atoms: C_23  and  C_24
REMARK   12  A    between atoms: C_23  and  C_25
REMARK                            x       y       z     vdW  Elec       q    Type
REMARK                         _______ _______ _______ _____ _____    ______ ____
ROOT
ATOM      1  C   UNL     1      -7.526   2.166 123.555  0.00  0.00    +0.000 C 
ENDROOT
BRANCH   1   2
ATOM      2  C   UNL     1      -6.634   2.763 124.670  0.00  0.00    +0.000 A 
ATOM      3  C   UNL     1      -6.563   4.145 124.902  0.00  0.00    +0.000 A 
ATOM      4  C   UNL     1      -5.558   4.687 125.684  0.00  0.00    +0.000 A 
ATOM      5  C   UNL     1      -4.632   3.844 126.283  0.00  0.00    +0.000 A 
ATOM      6  C   UNL     1      -4.797   2.470 126.204  0.00  0.00    +0.000 A 
ATOM      7  C   UNL     1      -5.894   1.955 125.536  0.00  0.00    +0.000 A 
ENDBRANCH   1   2
BRANCH   1   8
ATOM      8  C   UNL     1      -7.572   2.965 122.190  0.00  0.00    +0.000 A 
ATOM      9  N   UNL     1      -8.777   3.304 121.656  0.00  0.00    +0.000 NA
ATOM     10  C   UNL     1      -8.803   3.963 120.468  0.00  0.00    +0.000 A 
ATOM     11  C   UNL     1      -7.683   4.192 119.690  0.00  0.00    +0.000 A 
ATOM     12  C   UNL     1      -6.465   3.812 120.206  0.00  0.00    +0.000 A 
ATOM     13  C   UNL     1      -6.415   3.333 121.506  0.00  0.00    +0.000 A 
ENDBRANCH   1   8
BRANCH   1  14
ATOM     14  C   UNL     1      -9.044   1.916 123.948  0.00  0.00    +0.000 C 
ATOM     15  N   UNL     1      -9.873   1.298 123.048  0.00  0.00    +0.000 N 
ATOM     16  O   UNL     1      -9.554   2.269 124.999  0.00  0.00    +0.000 OA
ATOM     17  H   UNL     1      -9.576   0.934 122.159  0.00  0.00    +0.000 HD
ATOM     18  H   UNL     1     -10.848   1.211 123.298  0.00  0.00    +0.000 HD
ENDBRANCH   1  14
BRANCH   1  19
ATOM     19  C   UNL     1      -6.901   0.788 123.267  0.00  0.00    +0.000 C 
BRANCH  19  20
ATOM     20  C   UNL     1      -7.796  -0.437 123.491  0.00  0.00    +0.000 C 
BRANCH  20  21
ATOM     21  N   UNL     1      -7.413  -1.436 124.524  0.00  0.00    +0.000 NA
BRANCH  21  23
ATOM     22  C   UNL     1      -5.423  -1.720 126.157  0.00  0.00    +0.000 C 
ATOM     23  C   UNL     1      -5.921  -1.470 124.714  0.00  0.00    +0.000 C 
ATOM     24  C   UNL     1      -5.223  -2.625 123.994  0.00  0.00    +0.000 C 
ENDBRANCH  21  23
BRANCH  21  25
ATOM     25  C   UNL     1      -8.030  -2.763 124.120  0.00  0.00    +0.000 C 
ATOM     26  C   UNL     1      -8.560  -3.625 125.274  0.00  0.00    +0.000 C 
ATOM     27  C   UNL     1      -9.275  -2.625 123.199  0.00  0.00    +0.000 C 
ENDBRANCH  21  25
ENDBRANCH  20  21
ENDBRANCH  19  20
ENDBRANCH   1  19
TORSDOF 8
ENDMDL
MODEL 3
REMARK VINA RESULT:      -7.2      2.022      5.614
REMARK  Name = Disopyramide
REMARK  12 active torsions:
REMARK  status: ('A' for Active; 'I' for Inactive)
REMARK    1  A    between atoms: C_1  and  C_2
REMARK    2  A    between atoms: C_2  and  C_3
REMARK    3  A    between atoms: C_2  and  N_4
REMARK    4  A    between atoms: N_4  and  C_5
REMARK    5  A    between atoms: N_4  and  C_23
REMARK    6  A    between atoms: C_5  and  C_6
REMARK    7  A    between atoms: C_6  and  C_7
REMARK    8  A    between atoms: C_7  and  C_8
REMARK    9  A    between atoms: C_7  and  C_11
REMARK   10  A    between atoms: C_7  and  C_17
REMARK   11  A    between atoms: C_23  and  C_24
REMARK   12  A    between atoms: C_23  and  C_25
REMARK                            x       y       z     vdW  Elec       q    Type
REMARK                         _______ _______ _______ _____ _____    ______ ____
ROOT
ATOM      1  C   UNL     1      -7.067   2.550 123.926  0.00  0.00    +0.000 C 
ENDROOT
BRANCH   1   2
ATOM      2  C   UNL     1      -7.278   2.945 122.445  0.00  0.00    +0.000 A 
ATOM      3  C   UNL     1      -6.201   3.208 121.587  0.00  0.00    +0.000 A 
ATOM      4  C   UNL     1      -6.393   3.840 120.370  0.00  0.00    +0.000 A 
ATOM      5  C   UNL     1      -7.680   4.180 119.977  0.00  0.00    +0.000 A 
ATOM      6  C   UNL     1      -8.765   3.769 120.735  0.00  0.00    +0.000 A 
ATOM      7  C   UNL     1      -8.551   3.011 121.873  0.00  0.00    +0.000 A 
ENDBRANCH   1   2
BRANCH   1   8
ATOM      8  C   UNL     1      -6.777   1.021 124.209  0.00  0.00    +0.000 A 
ATOM      9  N   UNL     1      -6.299   0.646 125.428  0.00  0.00    +0.000 NA
ATOM     10  C   UNL     1      -6.025  -0.666 125.647  0.00  0.00    +0.000 A 
ATOM     11  C   UNL     1      -6.067  -1.636 124.663  0.00  0.00    +0.000 A 
ATOM     12  C   UNL     1      -6.507  -1.255 123.416  0.00  0.00    +0.000 A 
ATOM     13  C   UNL     1      -6.987   0.035 123.247  0.00  0.00    +0.000 A 
ENDBRANCH   1   8
BRANCH   1  14
ATOM     14  C   UNL     1      -8.241   2.946 124.919  0.00  0.00    +0.000 C 
ATOM     15  N   UNL     1      -8.878   1.960 125.626  0.00  0.00    +0.000 N 
ATOM     16  O   UNL     1      -8.655   4.082 125.082  0.00  0.00    +0.000 OA
ATOM     17  H   UNL     1      -8.620   0.988 125.605  0.00  0.00    +0.000 HD
ATOM     18  H   UNL     1      -9.664   2.233 126.200  0.00  0.00    +0.000 HD
ENDBRANCH   1  14
BRANCH   1  19
ATOM     19  C   UNL     1      -5.822   3.348 124.358  0.00  0.00    +0.000 C 
BRANCH  19  20
ATOM     20  C   UNL     1      -5.727   3.731 125.840  0.00  0.00    +0.000 C 
BRANCH  20  21
ATOM     21  N   UNL     1      -4.647   3.138 126.675  0.00  0.00    +0.000 NA
BRANCH  21  23
ATOM     22  C   UNL     1      -6.638   3.022 128.327  0.00  0.00    +0.000 C 
ATOM     23  C   UNL     1      -5.111   2.940 128.092  0.00  0.00    +0.000 C 
ATOM     24  C   UNL     1      -4.837   1.543 128.651  0.00  0.00    +0.000 C 
ENDBRANCH  21  23
BRANCH  21  25
ATOM     25  C   UNL     1      -3.424   4.023 126.526  0.00  0.00    +0.000 C 
ATOM     26  C   UNL     1      -3.200   5.038 127.655  0.00  0.00    +0.000 C 
ATOM     27  C   UNL     1      -2.079   3.242 126.501  0.00  0.00    +0.000 C 
ENDBRANCH  21  25
ENDBRANCH  20  21
ENDBRANCH  19  20
ENDBRANCH   1  19
TORSDOF 8
ENDMDL
MODEL 4
REMARK VINA RESULT:      -7.2      2.250      6.683
REMARK  Name = Disopyramide
REMARK  12 active torsions:
REMARK  status: ('A' for Active; 'I' for Inactive)
REMARK    1  A    between atoms: C_1  and  C_2
REMARK    2  A    between atoms: C_2  and  C_3
REMARK    3  A    between atoms: C_2  and  N_4
REMARK    4  A    between atoms: N_4  and  C_5
REMARK    5  A    between atoms: N_4  and  C_23
REMARK    6  A    between atoms: C_5  and  C_6
REMARK    7  A    between atoms: C_6  and  C_7
REMARK    8  A    between atoms: C_7  and  C_8
REMARK    9  A    between atoms: C_7  and  C_11
REMARK   10  A    between atoms: C_7  and  C_17
REMARK   11  A    between atoms: C_23  and  C_24
REMARK   12  A    between atoms: C_23  and  C_25
REMARK                            x       y       z     vdW  Elec       q    Type
REMARK                         _______ _______ _______ _____ _____    ______ ____
ROOT
ATOM      1  C   UNL     1      -7.681  -0.860 125.725  0.00  0.00    +0.000 C 
ENDROOT
BRANCH   1   2
ATOM      2  C   UNL     1      -6.689  -1.461 124.700  0.00  0.00    +0.000 A 
ATOM      3  C   UNL     1      -6.812  -1.224 123.323  0.00  0.00    +0.000 A 
ATOM      4  C   UNL     1      -6.119  -1.990 122.402  0.00  0.00    +0.000 A 
ATOM      5  C   UNL     1      -5.256  -2.980 122.852  0.00  0.00    +0.000 A 
ATOM      6  C   UNL     1      -4.995  -3.104 124.207  0.00  0.00    +0.000 A 
ATOM      7  C   UNL     1      -5.592  -2.228 125.097  0.00  0.00    +0.000 A 
ENDBRANCH   1   2
BRANCH   1   8
ATOM      8  C   UNL     1      -8.009  -1.753 126.989  0.00  0.00    +0.000 A 
ATOM      9  N   UNL     1      -7.582  -1.353 128.219  0.00  0.00    +0.000 NA
ATOM     10  C   UNL     1      -7.844  -2.145 129.291  0.00  0.00    +0.000 A 
ATOM     11  C   UNL     1      -8.398  -3.408 129.199  0.00  0.00    +0.000 A 
ATOM     12  C   UNL     1      -8.792  -3.836 127.952  0.00  0.00    +0.000 A 
ATOM     13  C   UNL     1      -8.720  -2.948 126.890  0.00  0.00    +0.000 A 
ENDBRANCH   1   8
BRANCH   1  14
ATOM     14  C   UNL     1      -9.091  -0.420 125.143  0.00  0.00    +0.000 C 
ATOM     15  N   UNL     1      -9.797   0.568 125.778  0.00  0.00    +0.000 N 
ATOM     16  O   UNL     1      -9.626  -0.926 124.170  0.00  0.00    +0.000 OA
ATOM     17  H   UNL     1      -9.460   1.086 126.572  0.00  0.00    +0.000 HD
ATOM     18  H   UNL     1     -10.718   0.782 125.425  0.00  0.00    +0.000 HD
ENDBRANCH   1  14
BRANCH   1  19
ATOM     19  C   UNL     1      -6.981   0.417 126.226  0.00  0.00    +0.000 C 
BRANCH  19  20
ATOM     20  C   UNL     1      -6.588   1.452 125.165  0.00  0.00    +0.000 C 
BRANCH  20  21
ATOM     21  N   UNL     1      -7.396   2.694 125.030  0.00  0.00    +0.000 NA
BRANCH  21  23
ATOM     22  C   UNL     1      -6.538   2.466 122.597  0.00  0.00    +0.000 C 
ATOM     23  C   UNL     1      -7.564   3.072 123.583  0.00  0.00    +0.000 C 
ATOM     24  C   UNL     1      -8.862   2.567 122.951  0.00  0.00    +0.000 C 
ENDBRANCH  21  23
BRANCH  21  25
ATOM     25  C   UNL     1      -6.737   3.757 125.890  0.00  0.00    +0.000 C 
ATOM     26  C   UNL     1      -6.492   5.106 125.202  0.00  0.00    +0.000 C 
ATOM     27  C   UNL     1      -7.568   4.160 127.141  0.00  0.00    +0.000 C 
ENDBRANCH  21  25
ENDBRANCH  20  21
ENDBRANCH  19  20
ENDBRANCH   1  19
TORSDOF 8
ENDMDL
MODEL 5
REMARK VINA RESULT:      -7.1      7.290      9.521
REMARK  Name = Disopyramide
REMARK  12 active torsions:
REMARK  status: ('A' for Active; 'I' for Inactive)
REMARK    1  A    between atoms: C_1  and  C_2
REMARK    2  A    between atoms: C_2  and  C_3
REMARK    3  A    between atoms: C_2  and  N_4
REMARK    4  A    between atoms: N_4  and  C_5
REMARK    5  A    between atoms: N_4  and  C_23
REMARK    6  A    between atoms: C_5  and  C_6
REMARK    7  A    between atoms: C_6  and  C_7
REMARK    8  A    between atoms: C_7  and  C_8
REMARK    9  A    between atoms: C_7  and  C_11
REMARK   10  A    between atoms: C_7  and  C_17
REMARK   11  A    between atoms: C_23  and  C_24
REMARK   12  A    between atoms: C_23  and  C_25
REMARK                            x       y       z     vdW  Elec       q    Type
REMARK                         _______ _______ _______ _____ _____    ______ ____
ROOT
ATOM      1  C   UNL     1      -9.574   5.235 130.980  0.00  0.00    +0.000 C 
ENDROOT
BRANCH   1   2
ATOM      2  C   UNL     1      -9.088   4.972 132.426  0.00  0.00    +0.000 A 
ATOM      3  C   UNL     1      -8.756   6.019 133.298  0.00  0.00    +0.000 A 
ATOM      4  C   UNL     1      -8.050   5.781 134.465  0.00  0.00    +0.000 A 
ATOM      5  C   UNL     1      -7.704   4.479 134.796  0.00  0.00    +0.000 A 
ATOM      6  C   UNL     1      -8.178   3.423 134.033  0.00  0.00    +0.000 A 
ATOM      7  C   UNL     1      -9.004   3.682 132.954  0.00  0.00    +0.000 A 
ENDBRANCH   1   2
BRANCH   1   8
ATOM      8  C   UNL     1     -10.690   6.343 130.806  0.00  0.00    +0.000 A 
ATOM      9  N   UNL     1     -11.788   6.317 131.611  0.00  0.00    +0.000 NA
ATOM     10  C   UNL     1     -12.753   7.256 131.430  0.00  0.00    +0.000 A 
ATOM     11  C   UNL     1     -12.762   8.159 130.384  0.00  0.00    +0.000 A 
ATOM     12  C   UNL     1     -11.675   8.162 129.540  0.00  0.00    +0.000 A 
ATOM     13  C   UNL     1     -10.594   7.350 129.847  0.00  0.00    +0.000 A 
ENDBRANCH   1   8
BRANCH   1  14
ATOM     14  C   UNL     1     -10.116   3.965 130.195  0.00  0.00    +0.000 C 
ATOM     15  N   UNL     1     -11.386   3.517 130.448  0.00  0.00    +0.000 N 
ATOM     16  O   UNL     1      -9.465   3.321 129.389  0.00  0.00    +0.000 OA
ATOM     17  H   UNL     1     -12.036   3.970 131.067  0.00  0.00    +0.000 HD
ATOM     18  H   UNL     1     -11.681   2.670 129.983  0.00  0.00    +0.000 HD
ENDBRANCH   1  14
BRANCH   1  19
ATOM     19  C   UNL     1      -8.315   5.721 130.239  0.00  0.00    +0.000 C 
BRANCH  19  20
ATOM     20  C   UNL     1      -6.982   5.081 130.647  0.00  0.00    +0.000 C 
BRANCH  20  21
ATOM     21  N   UNL     1      -5.771   5.339 129.823  0.00  0.00    +0.000 NA
BRANCH  21  23
ATOM     22  C   UNL     1      -3.677   3.885 129.366  0.00  0.00    +0.000 C 
ATOM     23  C   UNL     1      -5.212   4.055 129.271  0.00  0.00    +0.000 C 
ATOM     24  C   UNL     1      -5.660   2.802 130.026  0.00  0.00    +0.000 C 
ENDBRANCH  21  23
BRANCH  21  25
ATOM     25  C   UNL     1      -4.803   6.136 130.678  0.00  0.00    +0.000 C 
ATOM     26  C   UNL     1      -4.683   7.625 130.329  0.00  0.00    +0.000 C 
ATOM     27  C   UNL     1      -5.177   6.170 132.187  0.00  0.00    +0.000 C 
ENDBRANCH  21  25
ENDBRANCH  20  21
ENDBRANCH  19  20
ENDBRANCH   1  19
TORSDOF 8
ENDMDL
MODEL 6
REMARK VINA RESULT:      -7.1      7.024      9.792
REMARK  Name = Disopyramide
REMARK  12 active torsions:
REMARK  status: ('A' for Active; 'I' for Inactive)
REMARK    1  A    between atoms: C_1  and  C_2
REMARK    2  A    between atoms: C_2  and  C_3
REMARK    3  A    between atoms: C_2  and  N_4
REMARK    4  A    between atoms: N_4  and  C_5
REMARK    5  A    between atoms: N_4  and  C_23
REMARK    6  A    between atoms: C_5  and  C_6
REMARK    7  A    between atoms: C_6  and  C_7
REMARK    8  A    between atoms: C_7  and  C_8
REMARK    9  A    between atoms: C_7  and  C_11
REMARK   10  A    between atoms: C_7  and  C_17
REMARK   11  A    between atoms: C_23  and  C_24
REMARK   12  A    between atoms: C_23  and  C_25
REMARK                            x       y       z     vdW  Elec       q    Type
REMARK                         _______ _______ _______ _____ _____    ______ ____
ROOT
ATOM      1  C   UNL     1      -8.814   5.670 131.726  0.00  0.00    +0.000 C 
ENDROOT
BRANCH   1   2
ATOM      2  C   UNL     1     -10.000   6.495 131.172  0.00  0.00    +0.000 A 
ATOM      3  C   UNL     1     -11.271   6.458 131.765  0.00  0.00    +0.000 A 
ATOM      4  C   UNL     1     -12.383   6.951 131.105  0.00  0.00    +0.000 A 
ATOM      5  C   UNL     1     -12.228   7.532 129.853  0.00  0.00    +0.000 A 
ATOM      6  C   UNL     1     -10.958   7.731 129.337  0.00  0.00    +0.000 A 
ATOM      7  C   UNL     1      -9.854   7.359 130.085  0.00  0.00    +0.000 A 
ENDBRANCH   1   2
BRANCH   1   8
ATOM      8  C   UNL     1      -8.544   4.276 131.028  0.00  0.00    +0.000 A 
ATOM      9  N   UNL     1      -7.893   3.299 131.718  0.00  0.00    +0.000 NA
ATOM     10  C   UNL     1      -7.640   2.117 131.096  0.00  0.00    +0.000 A 
ATOM     11  C   UNL     1      -7.876   1.888 129.754  0.00  0.00    +0.000 A 
ATOM     12  C   UNL     1      -8.494   2.889 129.039  0.00  0.00    +0.000 A 
ATOM     13  C   UNL     1      -8.944   4.010 129.720  0.00  0.00    +0.000 A 
ENDBRANCH   1   8
BRANCH   1  14
ATOM     14  C   UNL     1      -8.859   5.359 133.282  0.00  0.00    +0.000 C 
ATOM     15  N   UNL     1      -9.680   4.361 133.740  0.00  0.00    +0.000 N 
ATOM     16  O   UNL     1      -8.231   5.973 134.129  0.00  0.00    +0.000 OA
ATOM     17  H   UNL     1     -10.230   3.761 133.149  0.00  0.00    +0.000 HD
ATOM     18  H   UNL     1      -9.738   4.229 134.740  0.00  0.00    +0.000 HD
ENDBRANCH   1  14
BRANCH   1  19
ATOM     19  C   UNL     1      -7.583   6.561 131.478  0.00  0.00    +0.000 C 
BRANCH  19  20
ATOM     20  C   UNL     1      -6.249   5.845 131.238  0.00  0.00    +0.000 C 
BRANCH  20  21
ATOM     21  N   UNL     1      -5.505   6.101 129.974  0.00  0.00    +0.000 NA
BRANCH  21  23
ATOM     22  C   UNL     1      -4.479   4.943 127.897  0.00  0.00    +0.000 C 
ATOM     23  C   UNL     1      -5.304   4.826 129.201  0.00  0.00    +0.000 C 
ATOM     24  C   UNL     1      -4.476   3.771 129.938  0.00  0.00    +0.000 C 
ENDBRANCH  21  23
BRANCH  21  25
ATOM     25  C   UNL     1      -4.225   6.828 130.343  0.00  0.00    +0.000 C 
ATOM     26  C   UNL     1      -4.143   8.292 129.892  0.00  0.00    +0.000 C 
ATOM     27  C   UNL     1      -3.976   6.929 131.874  0.00  0.00    +0.000 C 
ENDBRANCH  21  25
ENDBRANCH  20  21
ENDBRANCH  19  20
ENDBRANCH   1  19
TORSDOF 8
ENDMDL
MODEL 7
REMARK VINA RESULT:      -7.1      1.589      2.715
REMARK  Name = Disopyramide
REMARK  12 active torsions:
REMARK  status: ('A' for Active; 'I' for Inactive)
REMARK    1  A    between atoms: C_1  and  C_2
REMARK    2  A    between atoms: C_2  and  C_3
REMARK    3  A    between atoms: C_2  and  N_4
REMARK    4  A    between atoms: N_4  and  C_5
REMARK    5  A    between atoms: N_4  and  C_23
REMARK    6  A    between atoms: C_5  and  C_6
REMARK    7  A    between atoms: C_6  and  C_7
REMARK    8  A    between atoms: C_7  and  C_8
REMARK    9  A    between atoms: C_7  and  C_11
REMARK   10  A    between atoms: C_7  and  C_17
REMARK   11  A    between atoms: C_23  and  C_24
REMARK   12  A    between atoms: C_23  and  C_25
REMARK                            x       y       z     vdW  Elec       q    Type
REMARK                         _______ _______ _______ _____ _____    ______ ____
ROOT
ATOM      1  C   UNL     1      -6.192   2.917 125.213  0.00  0.00    +0.000 C 
ENDROOT
BRANCH   1   2
ATOM      2  C   UNL     1      -5.024   3.324 126.143  0.00  0.00    +0.000 A 
ATOM      3  C   UNL     1      -4.998   4.561 126.802  0.00  0.00    +0.000 A 
ATOM      4  C   UNL     1      -3.835   5.037 127.383  0.00  0.00    +0.000 A 
ATOM      5  C   UNL     1      -2.689   4.255 127.350  0.00  0.00    +0.000 A 
ATOM      6  C   UNL     1      -2.750   2.961 126.858  0.00  0.00    +0.000 A 
ATOM      7  C   UNL     1      -3.961   2.459 126.416  0.00  0.00    +0.000 A 
ENDBRANCH   1   2
BRANCH   1   8
ATOM      8  C   UNL     1      -6.090   3.398 123.709  0.00  0.00    +0.000 A 
ATOM      9  N   UNL     1      -6.919   2.854 122.776  0.00  0.00    +0.000 NA
ATOM     10  C   UNL     1      -6.800   3.253 121.483  0.00  0.00    +0.000 A 
ATOM     11  C   UNL     1      -5.792   4.079 121.022  0.00  0.00    +0.000 A 
ATOM     12  C   UNL     1      -4.923   4.598 121.954  0.00  0.00    +0.000 A 
ATOM     13  C   UNL     1      -5.170   4.361 123.298  0.00  0.00    +0.000 A 
ENDBRANCH   1   8
BRANCH   1  14
ATOM     14  C   UNL     1      -7.640   3.351 125.696  0.00  0.00    +0.000 C 
ATOM     15  N   UNL     1      -8.391   4.174 124.898  0.00  0.00    +0.000 N 
ATOM     16  O   UNL     1      -8.139   3.030 126.762  0.00  0.00    +0.000 OA
ATOM     17  H   UNL     1      -8.111   4.490 123.985  0.00  0.00    +0.000 HD
ATOM     18  H   UNL     1      -9.281   4.487 125.259  0.00  0.00    +0.000 HD
ENDBRANCH   1  14
BRANCH   1  19
ATOM     19  C   UNL     1      -6.158   1.377 125.213  0.00  0.00    +0.000 C 
BRANCH  19  20
ATOM     20  C   UNL     1      -7.501   0.657 125.049  0.00  0.00    +0.000 C 
BRANCH  20  21
ATOM     21  N   UNL     1      -7.511  -0.788 124.690  0.00  0.00    +0.000 NA
BRANCH  21  23
ATOM     22  C   UNL     1      -5.721  -2.353 125.716  0.00  0.00    +0.000 C 
ATOM     23  C   UNL     1      -6.111  -1.334 124.619  0.00  0.00    +0.000 C 
ATOM     24  C   UNL     1      -5.830  -2.174 123.372  0.00  0.00    +0.000 C 
ENDBRANCH  21  23
BRANCH  21  25
ATOM     25  C   UNL     1      -8.313  -0.929 123.409  0.00  0.00    +0.000 C 
ATOM     26  C   UNL     1      -9.195  -2.181 123.316  0.00  0.00    +0.000 C 
ATOM     27  C   UNL     1      -9.330   0.222 123.171  0.00  0.00    +0.000 C 
ENDBRANCH  21  25
ENDBRANCH  20  21
ENDBRANCH  19  20
ENDBRANCH   1  19
TORSDOF 8
ENDMDL
MODEL 8
REMARK VINA RESULT:      -7.1      1.560      2.198
REMARK  Name = Disopyramide
REMARK  12 active torsions:
REMARK  status: ('A' for Active; 'I' for Inactive)
REMARK    1  A    between atoms: C_1  and  C_2
REMARK    2  A    between atoms: C_2  and  C_3
REMARK    3  A    between atoms: C_2  and  N_4
REMARK    4  A    between atoms: N_4  and  C_5
REMARK    5  A    between atoms: N_4  and  C_23
REMARK    6  A    between atoms: C_5  and  C_6
REMARK    7  A    between atoms: C_6  and  C_7
REMARK    8  A    between atoms: C_7  and  C_8
REMARK    9  A    between atoms: C_7  and  C_11
REMARK   10  A    between atoms: C_7  and  C_17
REMARK   11  A    between atoms: C_23  and  C_24
REMARK   12  A    between atoms: C_23  and  C_25
REMARK                            x       y       z     vdW  Elec       q    Type
REMARK                         _______ _______ _______ _____ _____    ______ ____
ROOT
ATOM      1  C   UNL     1      -7.934   1.425 123.825  0.00  0.00    +0.000 C 
ENDROOT
BRANCH   1   2
ATOM      2  C   UNL     1      -7.534   1.964 125.220  0.00  0.00    +0.000 A 
ATOM      3  C   UNL     1      -6.378   2.734 125.413  0.00  0.00    +0.000 A 
ATOM      4  C   UNL     1      -5.872   2.957 126.683  0.00  0.00    +0.000 A 
ATOM      5  C   UNL     1      -6.546   2.446 127.783  0.00  0.00    +0.000 A 
ATOM      6  C   UNL     1      -7.779   1.835 127.615  0.00  0.00    +0.000 A 
ATOM      7  C   UNL     1      -8.330   1.755 126.348  0.00  0.00    +0.000 A 
ENDBRANCH   1   2
BRANCH   1   8
ATOM      8  C   UNL     1      -7.763   2.425 122.612  0.00  0.00    +0.000 A 
ATOM      9  N   UNL     1      -8.869   2.879 121.960  0.00  0.00    +0.000 NA
ATOM     10  C   UNL     1      -8.707   3.713 120.900  0.00  0.00    +0.000 A 
ATOM     11  C   UNL     1      -7.479   4.025 120.347  0.00  0.00    +0.000 A 
ATOM     12  C   UNL     1      -6.358   3.534 120.975  0.00  0.00    +0.000 A 
ATOM     13  C   UNL     1      -6.512   2.858 122.176  0.00  0.00    +0.000 A 
ENDBRANCH   1   8
BRANCH   1  14
ATOM     14  C   UNL     1      -9.414   0.864 123.703  0.00  0.00    +0.000 C 
ATOM     15  N   UNL     1     -10.465   1.669 124.058  0.00  0.00    +0.000 N 
ATOM     16  O   UNL     1      -9.698  -0.266 123.340  0.00  0.00    +0.000 OA
ATOM     17  H   UNL     1     -10.373   2.628 124.347  0.00  0.00    +0.000 HD
ATOM     18  H   UNL     1     -11.390   1.265 124.032  0.00  0.00    +0.000 HD
ENDBRANCH   1  14
BRANCH   1  19
ATOM     19  C   UNL     1      -6.980   0.239 123.589  0.00  0.00    +0.000 C 
BRANCH  19  20
ATOM     20  C   UNL     1      -6.462  -0.490 124.835  0.00  0.00    +0.000 C 
BRANCH  20  21
ATOM     21  N   UNL     1      -7.240  -1.635 125.381  0.00  0.00    +0.000 NA
BRANCH  21  23
ATOM     22  C   UNL     1      -5.572  -1.181 127.309  0.00  0.00    +0.000 C 
ATOM     23  C   UNL     1      -6.722  -2.041 126.734  0.00  0.00    +0.000 C 
ATOM     24  C   UNL     1      -7.743  -1.899 127.864  0.00  0.00    +0.000 C 
ENDBRANCH  21  23
BRANCH  21  25
ATOM     25  C   UNL     1      -7.216  -2.736 124.337  0.00  0.00    +0.000 C 
ATOM     26  C   UNL     1      -5.847  -3.384 124.090  0.00  0.00    +0.000 C 
ATOM     27  C   UNL     1      -8.112  -3.958 124.688  0.00  0.00    +0.000 C 
ENDBRANCH  21  25
ENDBRANCH  20  21
ENDBRANCH  19  20
ENDBRANCH   1  19
TORSDOF 8
ENDMDL
MODEL 9
REMARK VINA RESULT:      -7.0      2.110      5.054
REMARK  Name = Disopyramide
REMARK  12 active torsions:
REMARK  status: ('A' for Active; 'I' for Inactive)
REMARK    1  A    between atoms: C_1  and  C_2
REMARK    2  A    between atoms: C_2  and  C_3
REMARK    3  A    between atoms: C_2  and  N_4
REMARK    4  A    between atoms: N_4  and  C_5
REMARK    5  A    between atoms: N_4  and  C_23
REMARK    6  A    between atoms: C_5  and  C_6
REMARK    7  A    between atoms: C_6  and  C_7
REMARK    8  A    between atoms: C_7  and  C_8
REMARK    9  A    between atoms: C_7  and  C_11
REMARK   10  A    between atoms: C_7  and  C_17
REMARK   11  A    between atoms: C_23  and  C_24
REMARK   12  A    between atoms: C_23  and  C_25
REMARK                            x       y       z     vdW  Elec       q    Type
REMARK                         _______ _______ _______ _____ _____    ______ ____
ROOT
ATOM      1  C   UNL     1      -7.163   2.075 124.052  0.00  0.00    +0.000 C 
ENDROOT
BRANCH   1   2
ATOM      2  C   UNL     1      -6.670   3.083 122.986  0.00  0.00    +0.000 A 
ATOM      3  C   UNL     1      -7.284   3.192 121.730  0.00  0.00    +0.000 A 
ATOM      4  C   UNL     1      -6.668   3.867 120.690  0.00  0.00    +0.000 A 
ATOM      5  C   UNL     1      -5.443   4.481 120.909  0.00  0.00    +0.000 A 
ATOM      6  C   UNL     1      -4.913   4.529 122.189  0.00  0.00    +0.000 A 
ATOM      7  C   UNL     1      -5.622   3.971 123.238  0.00  0.00    +0.000 A 
ENDBRANCH   1   2
BRANCH   1   8
ATOM      8  C   UNL     1      -7.665   0.674 123.514  0.00  0.00    +0.000 A 
ATOM      9  N   UNL     1      -8.992   0.489 123.273  0.00  0.00    +0.000 NA
ATOM     10  C   UNL     1      -9.414  -0.728 122.841  0.00  0.00    +0.000 A 
ATOM     11  C   UNL     1      -8.599  -1.842 122.761  0.00  0.00    +0.000 A 
ATOM     12  C   UNL     1      -7.263  -1.671 123.046  0.00  0.00    +0.000 A 
ATOM     13  C   UNL     1      -6.793  -0.388 123.281  0.00  0.00    +0.000 A 
ENDBRANCH   1   8
BRANCH   1  14
ATOM     14  C   UNL     1      -8.317   2.596 125.010  0.00  0.00    +0.000 C 
ATOM     15  N   UNL     1      -8.887   1.726 125.903  0.00  0.00    +0.000 N 
ATOM     16  O   UNL     1      -8.773   3.727 124.993  0.00  0.00    +0.000 OA
ATOM     17  H   UNL     1      -8.588   0.775 126.040  0.00  0.00    +0.000 HD
ATOM     18  H   UNL     1      -9.662   2.066 126.454  0.00  0.00    +0.000 HD
ENDBRANCH   1  14
BRANCH   1  19
ATOM     19  C   UNL     1      -5.926   1.819 124.933  0.00  0.00    +0.000 C 
BRANCH  19  20
ATOM     20  C   UNL     1      -5.877   2.544 126.284  0.00  0.00    +0.000 C 
BRANCH  20  21
ATOM     21  N   UNL     1      -4.838   2.158 127.277  0.00  0.00    +0.000 NA
BRANCH  21  23
ATOM     22  C   UNL     1      -4.711   2.181 129.863  0.00  0.00    +0.000 C 
ATOM     23  C   UNL     1      -5.467   1.754 128.583  0.00  0.00    +0.000 C 
ATOM     24  C   UNL     1      -6.824   2.405 128.853  0.00  0.00    +0.000 C 
ENDBRANCH  21  23
BRANCH  21  25
ATOM     25  C   UNL     1      -3.858   3.312 127.376  0.00  0.00    +0.000 C 
ATOM     26  C   UNL     1      -2.530   3.117 126.633  0.00  0.00    +0.000 C 
ATOM     27  C   UNL     1      -4.389   4.645 126.777  0.00  0.00    +0.000 C 
ENDBRANCH  21  25
ENDBRANCH  20  21
ENDBRANCH  19  20
ENDBRANCH   1  19
TORSDOF 8
ENDMDL
