MODEL 1
REMARK VINA RESULT:      -6.4      0.000      0.000
REMARK  Name = Disperse Blue 106
REMARK  10 active torsions:
REMARK  status: ('A' for Active; 'I' for Inactive)
REMARK    1  A    between atoms: C_1  and  C_2
REMARK    2  A    between atoms: C_2  and  N_3
REMARK    3  A    between atoms: N_3  and  C_4
REMARK    4  A    between atoms: N_3  and  C_7
REMARK    5  A    between atoms: C_4  and  C_5
REMARK    6  A    between atoms: C_5  and  O_6
REMARK    7  A    between atoms: C_10  and  N_11
REMARK    8  A    between atoms: N_12  and  C_13
REMARK    9  A    between atoms: C_16  and  N_18
REMARK   10  A    between atoms: C_21  and  C_22
REMARK                            x       y       z     vdW  Elec       q    Type
REMARK                         _______ _______ _______ _____ _____    ______ ____
ROOT
ATOM      1  C   UNL     1     -10.928   7.048 129.652  0.00  0.00    +0.000 A 
ATOM      2  C   UNL     1     -11.497   5.818 130.002  0.00  0.00    +0.000 A 
ATOM      3  C   UNL     1     -10.791   4.845 130.763  0.00  0.00    +0.000 A 
ATOM      4  C   UNL     1      -9.481   5.043 131.248  0.00  0.00    +0.000 A 
ATOM      5  C   UNL     1      -8.897   6.286 130.930  0.00  0.00    +0.000 A 
ATOM      6  C   UNL     1      -7.525   6.726 131.372  0.00  0.00    +0.000 C 
ATOM      7  C   UNL     1      -9.623   7.244 130.137  0.00  0.00    +0.000 A 
ENDROOT
BRANCH   4   8
ATOM      8  N   UNL     1      -8.869   3.932 131.923  0.00  0.00    +0.000 NA
ATOM      9  N   UNL     1      -8.305   3.106 131.174  0.00  0.00    +0.000 NA
BRANCH   9  10
ATOM     10  C   UNL     1      -7.822   1.946 131.719  0.00  0.00    +0.000 A 
ATOM     11  N   UNL     1      -6.646   1.693 132.275  0.00  0.00    +0.000 NA
ATOM     12  C   UNL     1      -6.549   0.359 132.645  0.00  0.00    +0.000 A 
ATOM     13  C   UNL     1      -7.666  -0.395 132.403  0.00  0.00    +0.000 A 
ATOM     14  S   UNL     1      -8.903   0.564 131.747  0.00  0.00    +0.000 S 
BRANCH  13  15
ATOM     15  N   UNL     1      -7.815  -1.801 132.639  0.00  0.00    +0.000 N 
ATOM     16  O   UNL     1      -8.199  -2.179 133.746  0.00  0.00    +0.000 OA
ATOM     17  O   UNL     1      -7.547  -2.544 131.678  0.00  0.00    +0.000 OA
ENDBRANCH  13  15
ENDBRANCH   9  10
ENDBRANCH   4   8
BRANCH   1  18
ATOM     18  N   UNL     1     -11.608   8.025 128.877  0.00  0.00    +0.000 N 
BRANCH  18  20
ATOM     19  C   UNL     1     -13.118  10.012 129.597  0.00  0.00    +0.000 C 
ATOM     20  C   UNL     1     -12.900   8.517 129.419  0.00  0.00    +0.000 C 
ENDBRANCH  18  20
BRANCH  18  21
ATOM     21  C   UNL     1     -10.971   8.405 127.587  0.00  0.00    +0.000 C 
BRANCH  21  22
ATOM     22  C   UNL     1     -10.773   7.330 126.514  0.00  0.00    +0.000 C 
BRANCH  22  23
ATOM     23  O   UNL     1     -11.964   6.621 126.186  0.00  0.00    +0.000 OA
ATOM     24  H   UNL     1     -12.664   6.976 126.760  0.00  0.00    +0.000 HD
ENDBRANCH  22  23
ENDBRANCH  21  22
ENDBRANCH  18  21
ENDBRANCH   1  18
TORSDOF 8
ENDMDL
MODEL 2
REMARK VINA RESULT:      -6.3      6.097      8.927
REMARK  Name = Disperse Blue 106
REMARK  10 active torsions:
REMARK  status: ('A' for Active; 'I' for Inactive)
REMARK    1  A    between atoms: C_1  and  C_2
REMARK    2  A    between atoms: C_2  and  N_3
REMARK    3  A    between atoms: N_3  and  C_4
REMARK    4  A    between atoms: N_3  and  C_7
REMARK    5  A    between atoms: C_4  and  C_5
REMARK    6  A    between atoms: C_5  and  O_6
REMARK    7  A    between atoms: C_10  and  N_11
REMARK    8  A    between atoms: N_12  and  C_13
REMARK    9  A    between atoms: C_16  and  N_18
REMARK   10  A    between atoms: C_21  and  C_22
REMARK                            x       y       z     vdW  Elec       q    Type
REMARK                         _______ _______ _______ _____ _____    ______ ____
ROOT
ATOM      1  C   UNL     1      -7.351  -0.819 125.528  0.00  0.00    +0.000 A 
ATOM      2  C   UNL     1      -8.525  -0.541 126.238  0.00  0.00    +0.000 A 
ATOM      3  C   UNL     1      -8.838   0.766 126.704  0.00  0.00    +0.000 A 
ATOM      4  C   UNL     1      -8.014   1.888 126.472  0.00  0.00    +0.000 A 
ATOM      5  C   UNL     1      -6.838   1.636 125.735  0.00  0.00    +0.000 A 
ATOM      6  C   UNL     1      -5.832   2.688 125.341  0.00  0.00    +0.000 C 
ATOM      7  C   UNL     1      -6.532   0.300 125.296  0.00  0.00    +0.000 A 
ENDROOT
BRANCH   4   8
ATOM      8  N   UNL     1      -8.419   3.124 127.084  0.00  0.00    +0.000 NA
ATOM      9  N   UNL     1      -8.523   3.087 128.328  0.00  0.00    +0.000 NA
BRANCH   9  10
ATOM     10  C   UNL     1      -9.041   4.174 128.978  0.00  0.00    +0.000 A 
ATOM     11  N   UNL     1      -8.970   5.461 128.673  0.00  0.00    +0.000 NA
ATOM     12  C   UNL     1      -9.589   6.238 129.642  0.00  0.00    +0.000 A 
ATOM     13  C   UNL     1     -10.163   5.536 130.669  0.00  0.00    +0.000 A 
ATOM     14  S   UNL     1      -9.990   3.867 130.423  0.00  0.00    +0.000 S 
BRANCH  13  15
ATOM     15  N   UNL     1     -10.816   6.088 131.820  0.00  0.00    +0.000 N 
ATOM     16  O   UNL     1     -12.036   6.257 131.786  0.00  0.00    +0.000 OA
ATOM     17  O   UNL     1     -10.080   6.350 132.788  0.00  0.00    +0.000 OA
ENDBRANCH  13  15
ENDBRANCH   9  10
ENDBRANCH   4   8
BRANCH   1  18
ATOM     18  N   UNL     1      -7.012  -2.121 125.071  0.00  0.00    +0.000 N 
BRANCH  18  20
ATOM     19  C   UNL     1      -5.068  -3.024 123.605  0.00  0.00    +0.000 C 
ATOM     20  C   UNL     1      -5.566  -2.408 124.904  0.00  0.00    +0.000 C 
ENDBRANCH  18  20
BRANCH  18  21
ATOM     21  C   UNL     1      -8.151  -3.030 124.764  0.00  0.00    +0.000 C 
BRANCH  21  22
ATOM     22  C   UNL     1      -8.908  -2.849 123.444  0.00  0.00    +0.000 C 
BRANCH  22  23
ATOM     23  O   UNL     1     -10.201  -3.447 123.439  0.00  0.00    +0.000 OA
ATOM     24  H   UNL     1     -10.706  -3.020 124.152  0.00  0.00    +0.000 HD
ENDBRANCH  22  23
ENDBRANCH  21  22
ENDBRANCH  18  21
ENDBRANCH   1  18
TORSDOF 8
ENDMDL
MODEL 3
REMARK VINA RESULT:      -6.3      4.411      5.282
REMARK  Name = Disperse Blue 106
REMARK  10 active torsions:
REMARK  status: ('A' for Active; 'I' for Inactive)
REMARK    1  A    between atoms: C_1  and  C_2
REMARK    2  A    between atoms: C_2  and  N_3
REMARK    3  A    between atoms: N_3  and  C_4
REMARK    4  A    between atoms: N_3  and  C_7
REMARK    5  A    between atoms: C_4  and  C_5
REMARK    6  A    between atoms: C_5  and  O_6
REMARK    7  A    between atoms: C_10  and  N_11
REMARK    8  A    between atoms: N_12  and  C_13
REMARK    9  A    between atoms: C_16  and  N_18
REMARK   10  A    between atoms: C_21  and  C_22
REMARK                            x       y       z     vdW  Elec       q    Type
REMARK                         _______ _______ _______ _____ _____    ______ ____
ROOT
ATOM      1  C   UNL     1     -11.113   7.247 130.119  0.00  0.00    +0.000 A 
ATOM      2  C   UNL     1      -9.950   7.704 129.487  0.00  0.00    +0.000 A 
ATOM      3  C   UNL     1      -8.650   7.406 129.983  0.00  0.00    +0.000 A 
ATOM      4  C   UNL     1      -8.422   6.612 131.126  0.00  0.00    +0.000 A 
ATOM      5  C   UNL     1      -9.578   6.119 131.764  0.00  0.00    +0.000 A 
ATOM      6  C   UNL     1      -9.572   5.224 132.978  0.00  0.00    +0.000 C 
ATOM      7  C   UNL     1     -10.883   6.455 131.258  0.00  0.00    +0.000 A 
ENDROOT
BRANCH   4   8
ATOM      8  N   UNL     1      -7.057   6.476 131.555  0.00  0.00    +0.000 NA
ATOM      9  N   UNL     1      -6.233   7.172 130.923  0.00  0.00    +0.000 NA
BRANCH   9  10
ATOM     10  C   UNL     1      -4.898   6.996 131.168  0.00  0.00    +0.000 A 
ATOM     11  N   UNL     1      -3.845   7.437 130.496  0.00  0.00    +0.000 NA
ATOM     12  C   UNL     1      -2.665   6.975 131.061  0.00  0.00    +0.000 A 
ATOM     13  C   UNL     1      -2.821   6.210 132.187  0.00  0.00    +0.000 A 
ATOM     14  S   UNL     1      -4.460   6.090 132.606  0.00  0.00    +0.000 S 
BRANCH  13  15
ATOM     15  N   UNL     1      -1.779   5.568 132.933  0.00  0.00    +0.000 N 
ATOM     16  O   UNL     1      -1.510   4.391 132.685  0.00  0.00    +0.000 OA
ATOM     17  O   UNL     1      -1.209   6.271 133.786  0.00  0.00    +0.000 OA
ENDBRANCH  13  15
ENDBRANCH   9  10
ENDBRANCH   4   8
BRANCH   1  18
ATOM     18  N   UNL     1     -12.419   7.549 129.650  0.00  0.00    +0.000 N 
BRANCH  18  20
ATOM     19  C   UNL     1     -13.162  10.038 129.620  0.00  0.00    +0.000 C 
ATOM     20  C   UNL     1     -13.113   8.683 130.310  0.00  0.00    +0.000 C 
ENDBRANCH  18  20
BRANCH  18  21
ATOM     21  C   UNL     1     -12.960   6.662 128.584  0.00  0.00    +0.000 C 
BRANCH  21  22
ATOM     22  C   UNL     1     -12.919   7.142 127.130  0.00  0.00    +0.000 C 
BRANCH  22  23
ATOM     23  O   UNL     1     -11.902   6.520 126.349  0.00  0.00    +0.000 OA
ATOM     24  H   UNL     1     -12.158   5.586 126.257  0.00  0.00    +0.000 HD
ENDBRANCH  22  23
ENDBRANCH  21  22
ENDBRANCH  18  21
ENDBRANCH   1  18
TORSDOF 8
ENDMDL
MODEL 4
REMARK VINA RESULT:      -6.2      4.557      5.438
REMARK  Name = Disperse Blue 106
REMARK  10 active torsions:
REMARK  status: ('A' for Active; 'I' for Inactive)
REMARK    1  A    between atoms: C_1  and  C_2
REMARK    2  A    between atoms: C_2  and  N_3
REMARK    3  A    between atoms: N_3  and  C_4
REMARK    4  A    between atoms: N_3  and  C_7
REMARK    5  A    between atoms: C_4  and  C_5
REMARK    6  A    between atoms: C_5  and  O_6
REMARK    7  A    between atoms: C_10  and  N_11
REMARK    8  A    between atoms: N_12  and  C_13
REMARK    9  A    between atoms: C_16  and  N_18
REMARK   10  A    between atoms: C_21  and  C_22
REMARK                            x       y       z     vdW  Elec       q    Type
REMARK                         _______ _______ _______ _____ _____    ______ ____
ROOT
ATOM      1  C   UNL     1     -11.296   7.546 130.008  0.00  0.00    +0.000 A 
ATOM      2  C   UNL     1     -10.117   7.934 129.362  0.00  0.00    +0.000 A 
ATOM      3  C   UNL     1      -8.830   7.565 129.846  0.00  0.00    +0.000 A 
ATOM      4  C   UNL     1      -8.635   6.764 130.990  0.00  0.00    +0.000 A 
ATOM      5  C   UNL     1      -9.811   6.340 131.643  0.00  0.00    +0.000 A 
ATOM      6  C   UNL     1      -9.842   5.451 132.860  0.00  0.00    +0.000 C 
ATOM      7  C   UNL     1     -11.100   6.747 131.148  0.00  0.00    +0.000 A 
ENDROOT
BRANCH   4   8
ATOM      8  N   UNL     1      -7.276   6.553 131.406  0.00  0.00    +0.000 NA
ATOM      9  N   UNL     1      -6.424   7.224 130.785  0.00  0.00    +0.000 NA
BRANCH   9  10
ATOM     10  C   UNL     1      -5.097   6.980 131.016  0.00  0.00    +0.000 A 
ATOM     11  N   UNL     1      -4.031   7.352 130.323  0.00  0.00    +0.000 NA
ATOM     12  C   UNL     1      -2.870   6.834 130.881  0.00  0.00    +0.000 A 
ATOM     13  C   UNL     1      -3.052   6.097 132.021  0.00  0.00    +0.000 A 
ATOM     14  S   UNL     1      -4.690   6.073 132.462  0.00  0.00    +0.000 S 
BRANCH  13  15
ATOM     15  N   UNL     1      -2.037   5.410 132.764  0.00  0.00    +0.000 N 
ATOM     16  O   UNL     1      -1.298   6.062 133.502  0.00  0.00    +0.000 OA
ATOM     17  O   UNL     1      -1.990   4.176 132.607  0.00  0.00    +0.000 OA
ENDBRANCH  13  15
ENDBRANCH   9  10
ENDBRANCH   4   8
BRANCH   1  18
ATOM     18  N   UNL     1     -12.588   7.920 129.551  0.00  0.00    +0.000 N 
BRANCH  18  20
ATOM     19  C   UNL     1     -13.006   6.988 127.163  0.00  0.00    +0.000 C 
ATOM     20  C   UNL     1     -13.280   6.955 128.660  0.00  0.00    +0.000 C 
ENDBRANCH  18  20
BRANCH  18  21
ATOM     21  C   UNL     1     -13.079   9.258 129.981  0.00  0.00    +0.000 C 
BRANCH  21  22
ATOM     22  C   UNL     1     -13.544  10.253 128.913  0.00  0.00    +0.000 C 
BRANCH  22  23
ATOM     23  O   UNL     1     -13.198  11.606 129.201  0.00  0.00    +0.000 OA
ATOM     24  H   UNL     1     -13.456  11.766 130.124  0.00  0.00    +0.000 HD
ENDBRANCH  22  23
ENDBRANCH  21  22
ENDBRANCH  18  21
ENDBRANCH   1  18
TORSDOF 8
ENDMDL
MODEL 5
REMARK VINA RESULT:      -6.2      1.190      1.928
REMARK  Name = Disperse Blue 106
REMARK  10 active torsions:
REMARK  status: ('A' for Active; 'I' for Inactive)
REMARK    1  A    between atoms: C_1  and  C_2
REMARK    2  A    between atoms: C_2  and  N_3
REMARK    3  A    between atoms: N_3  and  C_4
REMARK    4  A    between atoms: N_3  and  C_7
REMARK    5  A    between atoms: C_4  and  C_5
REMARK    6  A    between atoms: C_5  and  O_6
REMARK    7  A    between atoms: C_10  and  N_11
REMARK    8  A    between atoms: N_12  and  C_13
REMARK    9  A    between atoms: C_16  and  N_18
REMARK   10  A    between atoms: C_21  and  C_22
REMARK                            x       y       z     vdW  Elec       q    Type
REMARK                         _______ _______ _______ _____ _____    ______ ____
ROOT
ATOM      1  C   UNL     1     -10.778   7.068 129.711  0.00  0.00    +0.000 A 
ATOM      2  C   UNL     1     -11.365   5.838 130.033  0.00  0.00    +0.000 A 
ATOM      3  C   UNL     1     -10.669   4.833 130.761  0.00  0.00    +0.000 A 
ATOM      4  C   UNL     1      -9.352   4.997 131.239  0.00  0.00    +0.000 A 
ATOM      5  C   UNL     1      -8.750   6.238 130.949  0.00  0.00    +0.000 A 
ATOM      6  C   UNL     1      -7.367   6.644 131.391  0.00  0.00    +0.000 C 
ATOM      7  C   UNL     1      -9.466   7.229 130.189  0.00  0.00    +0.000 A 
ENDROOT
BRANCH   4   8
ATOM      8  N   UNL     1      -8.752   3.858 131.878  0.00  0.00    +0.000 NA
ATOM      9  N   UNL     1      -8.155   3.075 131.109  0.00  0.00    +0.000 NA
BRANCH   9  10
ATOM     10  C   UNL     1      -7.680   1.893 131.612  0.00  0.00    +0.000 A 
ATOM     11  N   UNL     1      -6.461   1.570 132.017  0.00  0.00    +0.000 NA
ATOM     12  C   UNL     1      -6.401   0.238 132.400  0.00  0.00    +0.000 A 
ATOM     13  C   UNL     1      -7.586  -0.444 132.319  0.00  0.00    +0.000 A 
ATOM     14  S   UNL     1      -8.834   0.585 131.808  0.00  0.00    +0.000 S 
BRANCH  13  15
ATOM     15  N   UNL     1      -7.792  -1.834 132.601  0.00  0.00    +0.000 N 
ATOM     16  O   UNL     1      -8.210  -2.158 133.714  0.00  0.00    +0.000 OA
ATOM     17  O   UNL     1      -7.535  -2.621 131.673  0.00  0.00    +0.000 OA
ENDBRANCH  13  15
ENDBRANCH   9  10
ENDBRANCH   4   8
BRANCH   1  18
ATOM     18  N   UNL     1     -11.449   8.076 128.969  0.00  0.00    +0.000 N 
BRANCH  18  20
ATOM     19  C   UNL     1     -10.916   7.380 126.525  0.00  0.00    +0.000 C 
ATOM     20  C   UNL     1     -10.878   8.412 127.642  0.00  0.00    +0.000 C 
ENDBRANCH  18  20
BRANCH  18  21
ATOM     21  C   UNL     1     -12.621   8.714 129.631  0.00  0.00    +0.000 C 
BRANCH  21  22
ATOM     22  C   UNL     1     -13.442   9.744 128.849  0.00  0.00    +0.000 C 
BRANCH  22  23
ATOM     23  O   UNL     1     -13.234  11.087 129.277  0.00  0.00    +0.000 OA
ATOM     24  H   UNL     1     -12.385  11.370 128.896  0.00  0.00    +0.000 HD
ENDBRANCH  22  23
ENDBRANCH  21  22
ENDBRANCH  18  21
ENDBRANCH   1  18
TORSDOF 8
ENDMDL
MODEL 6
REMARK VINA RESULT:      -6.2      2.847      9.091
REMARK  Name = Disperse Blue 106
REMARK  10 active torsions:
REMARK  status: ('A' for Active; 'I' for Inactive)
REMARK    1  A    between atoms: C_1  and  C_2
REMARK    2  A    between atoms: C_2  and  N_3
REMARK    3  A    between atoms: N_3  and  C_4
REMARK    4  A    between atoms: N_3  and  C_7
REMARK    5  A    between atoms: C_4  and  C_5
REMARK    6  A    between atoms: C_5  and  O_6
REMARK    7  A    between atoms: C_10  and  N_11
REMARK    8  A    between atoms: N_12  and  C_13
REMARK    9  A    between atoms: C_16  and  N_18
REMARK   10  A    between atoms: C_21  and  C_22
REMARK                            x       y       z     vdW  Elec       q    Type
REMARK                         _______ _______ _______ _____ _____    ______ ____
ROOT
ATOM      1  C   UNL     1      -8.403   0.290 130.981  0.00  0.00    +0.000 A 
ATOM      2  C   UNL     1      -9.348   0.944 131.780  0.00  0.00    +0.000 A 
ATOM      3  C   UNL     1      -9.926   2.190 131.407  0.00  0.00    +0.000 A 
ATOM      4  C   UNL     1      -9.619   2.854 130.201  0.00  0.00    +0.000 A 
ATOM      5  C   UNL     1      -8.689   2.201 129.367  0.00  0.00    +0.000 A 
ATOM      6  C   UNL     1      -8.241   2.708 128.020  0.00  0.00    +0.000 C 
ATOM      7  C   UNL     1      -8.099   0.953 129.779  0.00  0.00    +0.000 A 
ENDROOT
BRANCH   4   8
ATOM      8  N   UNL     1     -10.214   4.147 130.008  0.00  0.00    +0.000 NA
ATOM      9  N   UNL     1     -10.745   4.642 131.025  0.00  0.00    +0.000 NA
BRANCH   9  10
ATOM     10  C   UNL     1     -11.459   5.802 130.898  0.00  0.00    +0.000 A 
ATOM     11  N   UNL     1     -12.184   6.457 131.792  0.00  0.00    +0.000 NA
ATOM     12  C   UNL     1     -12.794   7.566 131.222  0.00  0.00    +0.000 A 
ATOM     13  C   UNL     1     -12.503   7.774 129.900  0.00  0.00    +0.000 A 
ATOM     14  S   UNL     1     -11.406   6.609 129.339  0.00  0.00    +0.000 S 
BRANCH  13  15
ATOM     15  N   UNL     1     -13.035   8.807 129.061  0.00  0.00    +0.000 N 
ATOM     16  O   UNL     1     -12.958   9.977 129.439  0.00  0.00    +0.000 OA
ATOM     17  O   UNL     1     -13.537   8.430 127.987  0.00  0.00    +0.000 OA
ENDBRANCH  13  15
ENDBRANCH   9  10
ENDBRANCH   4   8
BRANCH   1  18
ATOM     18  N   UNL     1      -7.801  -0.944 131.345  0.00  0.00    +0.000 N 
BRANCH  18  20
ATOM     19  C   UNL     1      -8.046  -2.848 129.596  0.00  0.00    +0.000 C 
ATOM     20  C   UNL     1      -7.218  -1.747 130.241  0.00  0.00    +0.000 C 
ENDBRANCH  18  20
BRANCH  18  21
ATOM     21  C   UNL     1      -7.869  -1.313 132.785  0.00  0.00    +0.000 C 
BRANCH  21  22
ATOM     22  C   UNL     1      -6.563  -1.480 133.569  0.00  0.00    +0.000 C 
BRANCH  22  23
ATOM     23  O   UNL     1      -6.582  -0.861 134.852  0.00  0.00    +0.000 OA
ATOM     24  H   UNL     1      -5.669  -0.583 135.038  0.00  0.00    +0.000 HD
ENDBRANCH  22  23
ENDBRANCH  21  22
ENDBRANCH  18  21
ENDBRANCH   1  18
TORSDOF 8
ENDMDL
MODEL 7
REMARK VINA RESULT:      -6.1      3.442      8.985
REMARK  Name = Disperse Blue 106
REMARK  10 active torsions:
REMARK  status: ('A' for Active; 'I' for Inactive)
REMARK    1  A    between atoms: C_1  and  C_2
REMARK    2  A    between atoms: C_2  and  N_3
REMARK    3  A    between atoms: N_3  and  C_4
REMARK    4  A    between atoms: N_3  and  C_7
REMARK    5  A    between atoms: C_4  and  C_5
REMARK    6  A    between atoms: C_5  and  O_6
REMARK    7  A    between atoms: C_10  and  N_11
REMARK    8  A    between atoms: N_12  and  C_13
REMARK    9  A    between atoms: C_16  and  N_18
REMARK   10  A    between atoms: C_21  and  C_22
REMARK                            x       y       z     vdW  Elec       q    Type
REMARK                         _______ _______ _______ _____ _____    ______ ____
ROOT
ATOM      1  C   UNL     1      -7.149  -0.320 129.367  0.00  0.00    +0.000 A 
ATOM      2  C   UNL     1      -7.189   0.737 128.451  0.00  0.00    +0.000 A 
ATOM      3  C   UNL     1      -7.997   1.890 128.657  0.00  0.00    +0.000 A 
ATOM      4  C   UNL     1      -8.799   2.077 129.803  0.00  0.00    +0.000 A 
ATOM      5  C   UNL     1      -8.754   1.037 130.753  0.00  0.00    +0.000 A 
ATOM      6  C   UNL     1      -9.499   1.040 132.063  0.00  0.00    +0.000 C 
ATOM      7  C   UNL     1      -7.948  -0.131 130.509  0.00  0.00    +0.000 A 
ENDROOT
BRANCH   4   8
ATOM      8  N   UNL     1      -9.628   3.251 129.824  0.00  0.00    +0.000 NA
ATOM      9  N   UNL     1      -9.086   4.288 129.387  0.00  0.00    +0.000 NA
BRANCH   9  10
ATOM     10  C   UNL     1      -9.752   5.478 129.504  0.00  0.00    +0.000 A 
ATOM     11  N   UNL     1      -9.401   6.692 129.105  0.00  0.00    +0.000 NA
ATOM     12  C   UNL     1     -10.350   7.632 129.480  0.00  0.00    +0.000 A 
ATOM     13  C   UNL     1     -11.442   7.127 130.135  0.00  0.00    +0.000 A 
ATOM     14  S   UNL     1     -11.338   5.438 130.255  0.00  0.00    +0.000 S 
BRANCH  13  15
ATOM     15  N   UNL     1     -12.536   7.879 130.676  0.00  0.00    +0.000 N 
ATOM     16  O   UNL     1     -12.816   8.966 130.170  0.00  0.00    +0.000 OA
ATOM     17  O   UNL     1     -13.137   7.353 131.630  0.00  0.00    +0.000 OA
ENDBRANCH  13  15
ENDBRANCH   9  10
ENDBRANCH   4   8
BRANCH   1  18
ATOM     18  N   UNL     1      -6.364  -1.487 129.171  0.00  0.00    +0.000 N 
BRANCH  18  20
ATOM     19  C   UNL     1      -8.199  -3.060 128.222  0.00  0.00    +0.000 C 
ATOM     20  C   UNL     1      -7.083  -2.784 129.218  0.00  0.00    +0.000 C 
ENDBRANCH  18  20
BRANCH  18  21
ATOM     21  C   UNL     1      -4.901  -1.276 128.989  0.00  0.00    +0.000 C 
BRANCH  21  22
ATOM     22  C   UNL     1      -3.973  -1.454 130.195  0.00  0.00    +0.000 C 
BRANCH  22  23
ATOM     23  O   UNL     1      -2.714  -2.037 129.868  0.00  0.00    +0.000 OA
ATOM     24  H   UNL     1      -2.589  -1.907 128.912  0.00  0.00    +0.000 HD
ENDBRANCH  22  23
ENDBRANCH  21  22
ENDBRANCH  18  21
ENDBRANCH   1  18
TORSDOF 8
ENDMDL
MODEL 8
REMARK VINA RESULT:      -6.0      6.533      8.832
REMARK  Name = Disperse Blue 106
REMARK  10 active torsions:
REMARK  status: ('A' for Active; 'I' for Inactive)
REMARK    1  A    between atoms: C_1  and  C_2
REMARK    2  A    between atoms: C_2  and  N_3
REMARK    3  A    between atoms: N_3  and  C_4
REMARK    4  A    between atoms: N_3  and  C_7
REMARK    5  A    between atoms: C_4  and  C_5
REMARK    6  A    between atoms: C_5  and  O_6
REMARK    7  A    between atoms: C_10  and  N_11
REMARK    8  A    between atoms: N_12  and  C_13
REMARK    9  A    between atoms: C_16  and  N_18
REMARK   10  A    between atoms: C_21  and  C_22
REMARK                            x       y       z     vdW  Elec       q    Type
REMARK                         _______ _______ _______ _____ _____    ______ ____
ROOT
ATOM      1  C   UNL     1      -7.968  -0.361 124.112  0.00  0.00    +0.000 A 
ATOM      2  C   UNL     1      -8.811  -0.427 125.227  0.00  0.00    +0.000 A 
ATOM      3  C   UNL     1      -8.881   0.619 126.189  0.00  0.00    +0.000 A 
ATOM      4  C   UNL     1      -8.135   1.812 126.089  0.00  0.00    +0.000 A 
ATOM      5  C   UNL     1      -7.298   1.913 124.960  0.00  0.00    +0.000 A 
ATOM      6  C   UNL     1      -6.440   3.109 124.632  0.00  0.00    +0.000 C 
ATOM      7  C   UNL     1      -7.226   0.829 124.014  0.00  0.00    +0.000 A 
ENDROOT
BRANCH   4   8
ATOM      8  N   UNL     1      -8.245   2.735 127.186  0.00  0.00    +0.000 NA
ATOM      9  N   UNL     1      -8.683   2.243 128.248  0.00  0.00    +0.000 NA
BRANCH   9  10
ATOM     10  C   UNL     1      -8.955   3.078 129.297  0.00  0.00    +0.000 A 
ATOM     11  N   UNL     1      -9.620   2.846 130.419  0.00  0.00    +0.000 NA
ATOM     12  C   UNL     1      -9.714   3.996 131.189  0.00  0.00    +0.000 A 
ATOM     13  C   UNL     1      -9.088   5.097 130.668  0.00  0.00    +0.000 A 
ATOM     14  S   UNL     1      -8.310   4.709 129.211  0.00  0.00    +0.000 S 
BRANCH  13  15
ATOM     15  N   UNL     1      -9.074   6.417 131.228  0.00  0.00    +0.000 N 
ATOM     16  O   UNL     1      -9.700   6.626 132.268  0.00  0.00    +0.000 OA
ATOM     17  O   UNL     1      -8.405   7.263 130.608  0.00  0.00    +0.000 OA
ENDBRANCH  13  15
ENDBRANCH   9  10
ENDBRANCH   4   8
BRANCH   1  18
ATOM     18  N   UNL     1      -7.870  -1.402 123.151  0.00  0.00    +0.000 N 
BRANCH  18  20
ATOM     19  C   UNL     1      -9.545  -3.357 123.493  0.00  0.00    +0.000 C 
ATOM     20  C   UNL     1      -9.136  -2.079 122.777  0.00  0.00    +0.000 C 
ENDBRANCH  18  20
BRANCH  18  21
ATOM     21  C   UNL     1      -6.500  -1.728 122.668  0.00  0.00    +0.000 C 
BRANCH  21  22
ATOM     22  C   UNL     1      -5.569  -2.539 123.575  0.00  0.00    +0.000 C 
BRANCH  22  23
ATOM     23  O   UNL     1      -6.215  -3.623 124.237  0.00  0.00    +0.000 OA
ATOM     24  H   UNL     1      -5.927  -4.435 123.785  0.00  0.00    +0.000 HD
ENDBRANCH  22  23
ENDBRANCH  21  22
ENDBRANCH  18  21
ENDBRANCH   1  18
TORSDOF 8
ENDMDL
MODEL 9
REMARK VINA RESULT:      -5.9      3.643      3.900
REMARK  Name = Disperse Blue 106
REMARK  10 active torsions:
REMARK  status: ('A' for Active; 'I' for Inactive)
REMARK    1  A    between atoms: C_1  and  C_2
REMARK    2  A    between atoms: C_2  and  N_3
REMARK    3  A    between atoms: N_3  and  C_4
REMARK    4  A    between atoms: N_3  and  C_7
REMARK    5  A    between atoms: C_4  and  C_5
REMARK    6  A    between atoms: C_5  and  O_6
REMARK    7  A    between atoms: C_10  and  N_11
REMARK    8  A    between atoms: N_12  and  C_13
REMARK    9  A    between atoms: C_16  and  N_18
REMARK   10  A    between atoms: C_21  and  C_22
REMARK                            x       y       z     vdW  Elec       q    Type
REMARK                         _______ _______ _______ _____ _____    ______ ____
ROOT
ATOM      1  C   UNL     1     -11.195   7.229 130.217  0.00  0.00    +0.000 A 
ATOM      2  C   UNL     1     -11.638   6.543 131.354  0.00  0.00    +0.000 A 
ATOM      3  C   UNL     1     -10.736   5.968 132.292  0.00  0.00    +0.000 A 
ATOM      4  C   UNL     1      -9.333   6.061 132.174  0.00  0.00    +0.000 A 
ATOM      5  C   UNL     1      -8.864   6.771 131.049  0.00  0.00    +0.000 A 
ATOM      6  C   UNL     1      -7.410   7.025 130.741  0.00  0.00    +0.000 C 
ATOM      7  C   UNL     1      -9.797   7.322 130.101  0.00  0.00    +0.000 A 
ENDROOT
BRANCH   4   8
ATOM      8  N   UNL     1      -8.555   5.352 133.151  0.00  0.00    +0.000 NA
ATOM      9  N   UNL     1      -8.186   6.036 134.130  0.00  0.00    +0.000 NA
BRANCH   9  10
ATOM     10  C   UNL     1      -7.322   5.480 135.034  0.00  0.00    +0.000 A 
ATOM     11  N   UNL     1      -6.984   5.886 136.249  0.00  0.00    +0.000 NA
ATOM     12  C   UNL     1      -6.022   5.054 136.802  0.00  0.00    +0.000 A 
ATOM     13  C   UNL     1      -5.654   3.991 136.020  0.00  0.00    +0.000 A 
ATOM     14  S   UNL     1      -6.547   3.972 134.578  0.00  0.00    +0.000 S 
BRANCH  13  15
ATOM     15  N   UNL     1      -4.650   3.014 136.325  0.00  0.00    +0.000 N 
ATOM     16  O   UNL     1      -4.775   2.333 137.344  0.00  0.00    +0.000 OA
ATOM     17  O   UNL     1      -3.715   2.923 135.509  0.00  0.00    +0.000 OA
ENDBRANCH  13  15
ENDBRANCH   9  10
ENDBRANCH   4   8
BRANCH   1  18
ATOM     18  N   UNL     1     -12.079   7.794 129.259  0.00  0.00    +0.000 N 
BRANCH  18  20
ATOM     19  C   UNL     1     -13.624   9.795 128.666  0.00  0.00    +0.000 C 
ATOM     20  C   UNL     1     -12.485   9.203 129.483  0.00  0.00    +0.000 C 
ENDBRANCH  18  20
BRANCH  18  21
ATOM     21  C   UNL     1     -12.536   6.889 128.168  0.00  0.00    +0.000 C 
BRANCH  21  22
ATOM     22  C   UNL     1     -12.082   7.174 126.733  0.00  0.00    +0.000 C 
BRANCH  22  23
ATOM     23  O   UNL     1     -10.904   6.468 126.353  0.00  0.00    +0.000 OA
ATOM     24  H   UNL     1     -10.733   6.695 125.423  0.00  0.00    +0.000 HD
ENDBRANCH  22  23
ENDBRANCH  21  22
ENDBRANCH  18  21
ENDBRANCH   1  18
TORSDOF 8
ENDMDL
