MODEL 1
REMARK VINA RESULT:      -5.1      0.000      0.000
REMARK  Name = Distearyldimonium
REMARK  38 active torsions:
REMARK  status: ('A' for Active; 'I' for Inactive)
REMARK    1  A    between atoms: C_1  and  C_2
REMARK    2  A    between atoms: C_2  and  C_3
REMARK    3  A    between atoms: C_3  and  C_4
REMARK    4  A    between atoms: C_4  and  C_5
REMARK    5  A    between atoms: C_5  and  C_6
REMARK    6  A    between atoms: C_6  and  C_7
REMARK    7  A    between atoms: C_7  and  C_8
REMARK    8  A    between atoms: C_8  and  C_9
REMARK    9  A    between atoms: C_9  and  C_10
REMARK   10  A    between atoms: C_10  and  C_11
REMARK   11  A    between atoms: C_11  and  C_12
REMARK   12  A    between atoms: C_12  and  C_13
REMARK   13  A    between atoms: C_13  and  C_14
REMARK   14  A    between atoms: C_14  and  C_15
REMARK   15  A    between atoms: C_15  and  C_16
REMARK   16  A    between atoms: C_16  and  C_17
REMARK   17  A    between atoms: C_17  and  C_18
REMARK   18  A    between atoms: C_18  and  N_19
REMARK   19  A    between atoms: N_19  and  C_20
REMARK   20  A    between atoms: N_19  and  C_21
REMARK   21  A    between atoms: N_19  and  C_22
REMARK   22  A    between atoms: C_22  and  C_23
REMARK   23  A    between atoms: C_23  and  C_24
REMARK   24  A    between atoms: C_24  and  C_25
REMARK   25  A    between atoms: C_25  and  C_26
REMARK   26  A    between atoms: C_26  and  C_27
REMARK   27  A    between atoms: C_27  and  C_28
REMARK   28  A    between atoms: C_28  and  C_29
REMARK   29  A    between atoms: C_29  and  C_30
REMARK   30  A    between atoms: C_30  and  C_31
REMARK   31  A    between atoms: C_31  and  C_32
REMARK   32  A    between atoms: C_32  and  C_33
REMARK   33  A    between atoms: C_33  and  C_34
REMARK   34  A    between atoms: C_34  and  C_35
REMARK   35  A    between atoms: C_35  and  C_36
REMARK   36  A    between atoms: C_36  and  C_37
REMARK   37  A    between atoms: C_37  and  C_38
REMARK   38  A    between atoms: C_38  and  C_39
REMARK                            x       y       z     vdW  Elec       q    Type
REMARK                         _______ _______ _______ _____ _____    ______ ____
ROOT
ATOM      1  N   UNL     1      -5.868  -2.704 130.019  0.00  0.00    +0.000 N 
ATOM      2  C   UNL     1      -6.507  -3.481 131.174  0.00  0.00    +0.000 C 
ATOM      3  C   UNL     1      -4.498  -3.290 129.667  0.00  0.00    +0.000 C 
ENDROOT
BRANCH   1   4
ATOM      4  C   UNL     1      -5.723  -1.219 130.401  0.00  0.00    +0.000 C 
BRANCH   4   5
ATOM      5  C   UNL     1      -4.350  -0.691 130.030  0.00  0.00    +0.000 C 
BRANCH   5   6
ATOM      6  C   UNL     1      -4.330   0.818 129.987  0.00  0.00    +0.000 C 
BRANCH   6   7
ATOM      7  C   UNL     1      -5.769   1.291 130.108  0.00  0.00    +0.000 C 
BRANCH   7   8
ATOM      8  C   UNL     1      -5.865   2.726 129.651  0.00  0.00    +0.000 C 
BRANCH   8   9
ATOM      9  C   UNL     1      -7.304   3.189 129.745  0.00  0.00    +0.000 C 
BRANCH   9  10
ATOM     10  C   UNL     1      -7.322   4.691 129.928  0.00  0.00    +0.000 C 
BRANCH  10  11
ATOM     11  C   UNL     1      -6.483   5.068 131.130  0.00  0.00    +0.000 C 
BRANCH  11  12
ATOM     12  C   UNL     1      -6.250   6.567 131.132  0.00  0.00    +0.000 C 
BRANCH  12  13
ATOM     13  C   UNL     1      -4.761   6.851 131.139  0.00  0.00    +0.000 C 
BRANCH  13  14
ATOM     14  C   UNL     1      -4.247   6.923 129.713  0.00  0.00    +0.000 C 
BRANCH  14  15
ATOM     15  C   UNL     1      -2.845   6.347 129.642  0.00  0.00    +0.000 C 
BRANCH  15  16
ATOM     16  C   UNL     1      -2.910   4.859 129.342  0.00  0.00    +0.000 C 
BRANCH  16  17
ATOM     17  C   UNL     1      -2.703   4.616 127.856  0.00  0.00    +0.000 C 
BRANCH  17  18
ATOM     18  C   UNL     1      -2.643   3.123 127.571  0.00  0.00    +0.000 C 
BRANCH  18  19
ATOM     19  C   UNL     1      -3.608   2.760 126.451  0.00  0.00    +0.000 C 
BRANCH  19  20
ATOM     20  C   UNL     1      -4.739   3.776 126.361  0.00  0.00    +0.000 C 
ATOM     21  C   UNL     1      -5.482   3.638 125.046  0.00  0.00    +0.000 C 
ENDBRANCH  19  20
ENDBRANCH  18  19
ENDBRANCH  17  18
ENDBRANCH  16  17
ENDBRANCH  15  16
ENDBRANCH  14  15
ENDBRANCH  13  14
ENDBRANCH  12  13
ENDBRANCH  11  12
ENDBRANCH  10  11
ENDBRANCH   9  10
ENDBRANCH   8   9
ENDBRANCH   7   8
ENDBRANCH   6   7
ENDBRANCH   5   6
ENDBRANCH   4   5
ENDBRANCH   1   4
BRANCH   1  22
ATOM     22  C   UNL     1      -6.789  -2.741 128.785  0.00  0.00    +0.000 C 
BRANCH  22  23
ATOM     23  C   UNL     1      -8.190  -3.186 129.163  0.00  0.00    +0.000 C 
BRANCH  23  24
ATOM     24  C   UNL     1      -8.878  -3.882 128.013  0.00  0.00    +0.000 C 
BRANCH  24  25
ATOM     25  C   UNL     1      -8.314  -3.296 126.730  0.00  0.00    +0.000 C 
BRANCH  25  26
ATOM     26  C   UNL     1      -9.449  -2.841 125.845  0.00  0.00    +0.000 C 
BRANCH  26  27
ATOM     27  C   UNL     1      -9.161  -3.239 124.413  0.00  0.00    +0.000 C 
BRANCH  27  28
ATOM     28  C   UNL     1      -9.050  -1.985 123.571  0.00  0.00    +0.000 C 
BRANCH  28  29
ATOM     29  C   UNL     1      -7.858  -2.097 122.644  0.00  0.00    +0.000 C 
BRANCH  29  30
ATOM     30  C   UNL     1      -6.721  -1.251 123.182  0.00  0.00    +0.000 C 
BRANCH  30  31
ATOM     31  C   UNL     1      -5.758  -2.127 123.959  0.00  0.00    +0.000 C 
BRANCH  31  32
ATOM     32  C   UNL     1      -5.468  -1.499 125.308  0.00  0.00    +0.000 C 
BRANCH  32  33
ATOM     33  C   UNL     1      -5.990  -0.074 125.337  0.00  0.00    +0.000 C 
BRANCH  33  34
ATOM     34  C   UNL     1      -6.308   0.333 126.765  0.00  0.00    +0.000 C 
BRANCH  34  35
ATOM     35  C   UNL     1      -7.804   0.249 127.011  0.00  0.00    +0.000 C 
BRANCH  35  36
ATOM     36  C   UNL     1      -8.487   1.526 126.542  0.00  0.00    +0.000 C 
BRANCH  36  37
ATOM     37  C   UNL     1      -9.381   1.238 125.345  0.00  0.00    +0.000 C 
BRANCH  37  39
ATOM     38  C   UNL     1      -9.409   1.656 122.878  0.00  0.00    +0.000 C 
ATOM     39  C   UNL     1      -9.158   2.267 124.244  0.00  0.00    +0.000 C 
ENDBRANCH  37  39
ENDBRANCH  36  37
ENDBRANCH  35  36
ENDBRANCH  34  35
ENDBRANCH  33  34
ENDBRANCH  32  33
ENDBRANCH  31  32
ENDBRANCH  30  31
ENDBRANCH  29  30
ENDBRANCH  28  29
ENDBRANCH  27  28
ENDBRANCH  26  27
ENDBRANCH  25  26
ENDBRANCH  24  25
ENDBRANCH  23  24
ENDBRANCH  22  23
ENDBRANCH   1  22
TORSDOF 34
ENDMDL
MODEL 2
REMARK VINA RESULT:      -5.0      2.920      8.472
REMARK  Name = Distearyldimonium
REMARK  38 active torsions:
REMARK  status: ('A' for Active; 'I' for Inactive)
REMARK    1  A    between atoms: C_1  and  C_2
REMARK    2  A    between atoms: C_2  and  C_3
REMARK    3  A    between atoms: C_3  and  C_4
REMARK    4  A    between atoms: C_4  and  C_5
REMARK    5  A    between atoms: C_5  and  C_6
REMARK    6  A    between atoms: C_6  and  C_7
REMARK    7  A    between atoms: C_7  and  C_8
REMARK    8  A    between atoms: C_8  and  C_9
REMARK    9  A    between atoms: C_9  and  C_10
REMARK   10  A    between atoms: C_10  and  C_11
REMARK   11  A    between atoms: C_11  and  C_12
REMARK   12  A    between atoms: C_12  and  C_13
REMARK   13  A    between atoms: C_13  and  C_14
REMARK   14  A    between atoms: C_14  and  C_15
REMARK   15  A    between atoms: C_15  and  C_16
REMARK   16  A    between atoms: C_16  and  C_17
REMARK   17  A    between atoms: C_17  and  C_18
REMARK   18  A    between atoms: C_18  and  N_19
REMARK   19  A    between atoms: N_19  and  C_20
REMARK   20  A    between atoms: N_19  and  C_21
REMARK   21  A    between atoms: N_19  and  C_22
REMARK   22  A    between atoms: C_22  and  C_23
REMARK   23  A    between atoms: C_23  and  C_24
REMARK   24  A    between atoms: C_24  and  C_25
REMARK   25  A    between atoms: C_25  and  C_26
REMARK   26  A    between atoms: C_26  and  C_27
REMARK   27  A    between atoms: C_27  and  C_28
REMARK   28  A    between atoms: C_28  and  C_29
REMARK   29  A    between atoms: C_29  and  C_30
REMARK   30  A    between atoms: C_30  and  C_31
REMARK   31  A    between atoms: C_31  and  C_32
REMARK   32  A    between atoms: C_32  and  C_33
REMARK   33  A    between atoms: C_33  and  C_34
REMARK   34  A    between atoms: C_34  and  C_35
REMARK   35  A    between atoms: C_35  and  C_36
REMARK   36  A    between atoms: C_36  and  C_37
REMARK   37  A    between atoms: C_37  and  C_38
REMARK   38  A    between atoms: C_38  and  C_39
REMARK                            x       y       z     vdW  Elec       q    Type
REMARK                         _______ _______ _______ _____ _____    ______ ____
ROOT
ATOM      1  N   UNL     1      -7.490   1.885 124.490  0.00  0.00    +0.000 N 
ATOM      2  C   UNL     1      -8.911   2.449 124.399  0.00  0.00    +0.000 C 
ATOM      3  C   UNL     1      -6.455   3.005 124.364  0.00  0.00    +0.000 C 
ENDROOT
BRANCH   1   4
ATOM      4  C   UNL     1      -7.269   0.836 123.383  0.00  0.00    +0.000 C 
BRANCH   4   5
ATOM      5  C   UNL     1      -6.747  -0.466 123.961  0.00  0.00    +0.000 C 
BRANCH   5   6
ATOM      6  C   UNL     1      -6.576  -1.517 122.891  0.00  0.00    +0.000 C 
BRANCH   6   7
ATOM      7  C   UNL     1      -5.962  -2.738 123.553  0.00  0.00    +0.000 C 
BRANCH   7   8
ATOM      8  C   UNL     1      -6.666  -3.008 124.860  0.00  0.00    +0.000 C 
BRANCH   8   9
ATOM      9  C   UNL     1      -7.908  -3.835 124.602  0.00  0.00    +0.000 C 
BRANCH   9  10
ATOM     10  C   UNL     1      -8.957  -3.474 125.633  0.00  0.00    +0.000 C 
BRANCH  10  11
ATOM     11  C   UNL     1      -8.304  -2.754 126.793  0.00  0.00    +0.000 C 
BRANCH  11  12
ATOM     12  C   UNL     1      -8.642  -3.471 128.086  0.00  0.00    +0.000 C 
BRANCH  12  13
ATOM     13  C   UNL     1      -7.417  -3.517 128.978  0.00  0.00    +0.000 C 
BRANCH  13  14
ATOM     14  C   UNL     1      -7.756  -2.951 130.344  0.00  0.00    +0.000 C 
BRANCH  14  15
ATOM     15  C   UNL     1      -7.794  -1.436 130.279  0.00  0.00    +0.000 C 
BRANCH  15  16
ATOM     16  C   UNL     1      -8.054  -0.864 131.662  0.00  0.00    +0.000 C 
BRANCH  16  17
ATOM     17  C   UNL     1      -6.777  -0.888 132.486  0.00  0.00    +0.000 C 
BRANCH  17  18
ATOM     18  C   UNL     1      -6.384   0.525 132.887  0.00  0.00    +0.000 C 
BRANCH  18  19
ATOM     19  C   UNL     1      -5.884   1.299 131.676  0.00  0.00    +0.000 C 
BRANCH  19  20
ATOM     20  C   UNL     1      -4.668   0.617 131.062  0.00  0.00    +0.000 C 
ATOM     21  C   UNL     1      -4.710   0.705 129.548  0.00  0.00    +0.000 C 
ENDBRANCH  19  20
ENDBRANCH  18  19
ENDBRANCH  17  18
ENDBRANCH  16  17
ENDBRANCH  15  16
ENDBRANCH  14  15
ENDBRANCH  13  14
ENDBRANCH  12  13
ENDBRANCH  11  12
ENDBRANCH  10  11
ENDBRANCH   9  10
ENDBRANCH   8   9
ENDBRANCH   7   8
ENDBRANCH   6   7
ENDBRANCH   5   6
ENDBRANCH   4   5
ENDBRANCH   1   4
BRANCH   1  22
ATOM     22  C   UNL     1      -7.303   1.143 125.827  0.00  0.00    +0.000 C 
BRANCH  22  23
ATOM     23  C   UNL     1      -8.534   1.280 126.704  0.00  0.00    +0.000 C 
BRANCH  23  24
ATOM     24  C   UNL     1      -8.164   1.383 128.164  0.00  0.00    +0.000 C 
BRANCH  24  25
ATOM     25  C   UNL     1      -7.705   2.809 128.412  0.00  0.00    +0.000 C 
BRANCH  25  26
ATOM     26  C   UNL     1      -8.239   3.284 129.741  0.00  0.00    +0.000 C 
BRANCH  26  27
ATOM     27  C   UNL     1      -9.272   2.300 130.250  0.00  0.00    +0.000 C 
BRANCH  27  28
ATOM     28  C   UNL     1     -10.004   2.921 131.421  0.00  0.00    +0.000 C 
BRANCH  28  29
ATOM     29  C   UNL     1      -9.448   2.375 132.719  0.00  0.00    +0.000 C 
BRANCH  29  30
ATOM     30  C   UNL     1      -9.160   3.522 133.666  0.00  0.00    +0.000 C 
BRANCH  30  31
ATOM     31  C   UNL     1      -7.763   4.054 133.413  0.00  0.00    +0.000 C 
BRANCH  31  32
ATOM     32  C   UNL     1      -7.770   5.568 133.480  0.00  0.00    +0.000 C 
BRANCH  32  33
ATOM     33  C   UNL     1      -9.052   6.105 132.869  0.00  0.00    +0.000 C 
BRANCH  33  34
ATOM     34  C   UNL     1      -8.814   6.490 131.419  0.00  0.00    +0.000 C 
BRANCH  34  35
ATOM     35  C   UNL     1     -10.138   6.581 130.680  0.00  0.00    +0.000 C 
BRANCH  35  36
ATOM     36  C   UNL     1     -11.297   6.437 131.656  0.00  0.00    +0.000 C 
BRANCH  36  37
ATOM     37  C   UNL     1     -12.566   7.029 131.059  0.00  0.00    +0.000 C 
BRANCH  37  39
ATOM     38  C   UNL     1     -13.044   8.089 128.844  0.00  0.00    +0.000 C 
ATOM     39  C   UNL     1     -12.601   6.822 129.550  0.00  0.00    +0.000 C 
ENDBRANCH  37  39
ENDBRANCH  36  37
ENDBRANCH  35  36
ENDBRANCH  34  35
ENDBRANCH  33  34
ENDBRANCH  32  33
ENDBRANCH  31  32
ENDBRANCH  30  31
ENDBRANCH  29  30
ENDBRANCH  28  29
ENDBRANCH  27  28
ENDBRANCH  26  27
ENDBRANCH  25  26
ENDBRANCH  24  25
ENDBRANCH  23  24
ENDBRANCH  22  23
ENDBRANCH   1  22
TORSDOF 34
ENDMDL
MODEL 3
REMARK VINA RESULT:      -5.0      2.742      5.759
REMARK  Name = Distearyldimonium
REMARK  38 active torsions:
REMARK  status: ('A' for Active; 'I' for Inactive)
REMARK    1  A    between atoms: C_1  and  C_2
REMARK    2  A    between atoms: C_2  and  C_3
REMARK    3  A    between atoms: C_3  and  C_4
REMARK    4  A    between atoms: C_4  and  C_5
REMARK    5  A    between atoms: C_5  and  C_6
REMARK    6  A    between atoms: C_6  and  C_7
REMARK    7  A    between atoms: C_7  and  C_8
REMARK    8  A    between atoms: C_8  and  C_9
REMARK    9  A    between atoms: C_9  and  C_10
REMARK   10  A    between atoms: C_10  and  C_11
REMARK   11  A    between atoms: C_11  and  C_12
REMARK   12  A    between atoms: C_12  and  C_13
REMARK   13  A    between atoms: C_13  and  C_14
REMARK   14  A    between atoms: C_14  and  C_15
REMARK   15  A    between atoms: C_15  and  C_16
REMARK   16  A    between atoms: C_16  and  C_17
REMARK   17  A    between atoms: C_17  and  C_18
REMARK   18  A    between atoms: C_18  and  N_19
REMARK   19  A    between atoms: N_19  and  C_20
REMARK   20  A    between atoms: N_19  and  C_21
REMARK   21  A    between atoms: N_19  and  C_22
REMARK   22  A    between atoms: C_22  and  C_23
REMARK   23  A    between atoms: C_23  and  C_24
REMARK   24  A    between atoms: C_24  and  C_25
REMARK   25  A    between atoms: C_25  and  C_26
REMARK   26  A    between atoms: C_26  and  C_27
REMARK   27  A    between atoms: C_27  and  C_28
REMARK   28  A    between atoms: C_28  and  C_29
REMARK   29  A    between atoms: C_29  and  C_30
REMARK   30  A    between atoms: C_30  and  C_31
REMARK   31  A    between atoms: C_31  and  C_32
REMARK   32  A    between atoms: C_32  and  C_33
REMARK   33  A    between atoms: C_33  and  C_34
REMARK   34  A    between atoms: C_34  and  C_35
REMARK   35  A    between atoms: C_35  and  C_36
REMARK   36  A    between atoms: C_36  and  C_37
REMARK   37  A    between atoms: C_37  and  C_38
REMARK   38  A    between atoms: C_38  and  C_39
REMARK                            x       y       z     vdW  Elec       q    Type
REMARK                         _______ _______ _______ _____ _____    ______ ____
ROOT
ATOM      1  N   UNL     1      -5.650   2.311 127.411  0.00  0.00    +0.000 N 
ATOM      2  C   UNL     1      -4.602   2.353 126.295  0.00  0.00    +0.000 C 
ATOM      3  C   UNL     1      -6.080   3.727 127.802  0.00  0.00    +0.000 C 
ENDROOT
BRANCH   1   4
ATOM      4  C   UNL     1      -5.081   1.575 128.640  0.00  0.00    +0.000 C 
BRANCH   4   5
ATOM      5  C   UNL     1      -6.142   0.716 129.301  0.00  0.00    +0.000 C 
BRANCH   5   6
ATOM      6  C   UNL     1      -6.597   1.309 130.613  0.00  0.00    +0.000 C 
BRANCH   6   7
ATOM      7  C   UNL     1      -8.113   1.225 130.643  0.00  0.00    +0.000 C 
BRANCH   7   8
ATOM      8  C   UNL     1      -8.698   2.588 130.364  0.00  0.00    +0.000 C 
BRANCH   8   9
ATOM      9  C   UNL     1      -9.795   2.880 131.366  0.00  0.00    +0.000 C 
BRANCH   9  10
ATOM     10  C   UNL     1      -9.337   2.426 132.736  0.00  0.00    +0.000 C 
BRANCH  10  11
ATOM     11  C   UNL     1      -9.351   3.599 133.693  0.00  0.00    +0.000 C 
BRANCH  11  12
ATOM     12  C   UNL     1      -7.974   4.232 133.734  0.00  0.00    +0.000 C 
BRANCH  12  13
ATOM     13  C   UNL     1      -8.058   5.668 133.255  0.00  0.00    +0.000 C 
BRANCH  13  14
ATOM     14  C   UNL     1      -7.277   5.823 131.963  0.00  0.00    +0.000 C 
BRANCH  14  15
ATOM     15  C   UNL     1      -8.007   6.773 131.031  0.00  0.00    +0.000 C 
BRANCH  15  16
ATOM     16  C   UNL     1      -9.508   6.592 131.177  0.00  0.00    +0.000 C 
BRANCH  16  17
ATOM     17  C   UNL     1     -10.166   6.568 129.807  0.00  0.00    +0.000 C 
BRANCH  17  18
ATOM     18  C   UNL     1     -10.044   7.930 129.142  0.00  0.00    +0.000 C 
BRANCH  18  19
ATOM     19  C   UNL     1     -11.249   8.192 128.250  0.00  0.00    +0.000 C 
BRANCH  19  20
ATOM     20  C   UNL     1     -12.543   8.096 129.047  0.00  0.00    +0.000 C 
ATOM     21  C   UNL     1     -13.612   7.370 128.252  0.00  0.00    +0.000 C 
ENDBRANCH  19  20
ENDBRANCH  18  19
ENDBRANCH  17  18
ENDBRANCH  16  17
ENDBRANCH  15  16
ENDBRANCH  14  15
ENDBRANCH  13  14
ENDBRANCH  12  13
ENDBRANCH  11  12
ENDBRANCH  10  11
ENDBRANCH   9  10
ENDBRANCH   8   9
ENDBRANCH   7   8
ENDBRANCH   6   7
ENDBRANCH   5   6
ENDBRANCH   4   5
ENDBRANCH   1   4
BRANCH   1  22
ATOM     22  C   UNL     1      -6.876   1.496 126.953  0.00  0.00    +0.000 C 
BRANCH  22  23
ATOM     23  C   UNL     1      -6.805   1.193 125.468  0.00  0.00    +0.000 C 
BRANCH  23  24
ATOM     24  C   UNL     1      -8.127   1.456 124.787  0.00  0.00    +0.000 C 
BRANCH  24  25
ATOM     25  C   UNL     1      -8.190   0.556 123.565  0.00  0.00    +0.000 C 
BRANCH  25  26
ATOM     26  C   UNL     1      -6.928  -0.267 123.483  0.00  0.00    +0.000 C 
BRANCH  26  27
ATOM     27  C   UNL     1      -7.268  -1.666 123.012  0.00  0.00    +0.000 C 
BRANCH  27  28
ATOM     28  C   UNL     1      -8.773  -1.795 122.912  0.00  0.00    +0.000 C 
BRANCH  28  29
ATOM     29  C   UNL     1      -9.195  -3.186 123.337  0.00  0.00    +0.000 C 
BRANCH  29  30
ATOM     30  C   UNL     1      -8.813  -3.408 124.787  0.00  0.00    +0.000 C 
BRANCH  30  31
ATOM     31  C   UNL     1      -9.573  -2.438 125.669  0.00  0.00    +0.000 C 
BRANCH  31  32
ATOM     32  C   UNL     1      -8.622  -1.786 126.654  0.00  0.00    +0.000 C 
BRANCH  32  33
ATOM     33  C   UNL     1      -7.563  -2.785 127.085  0.00  0.00    +0.000 C 
BRANCH  33  34
ATOM     34  C   UNL     1      -7.962  -3.425 128.404  0.00  0.00    +0.000 C 
BRANCH  34  35
ATOM     35  C   UNL     1      -8.017  -2.373 129.498  0.00  0.00    +0.000 C 
BRANCH  35  36
ATOM     36  C   UNL     1      -7.506  -2.951 130.810  0.00  0.00    +0.000 C 
BRANCH  36  37
ATOM     37  C   UNL     1      -6.019  -2.664 130.969  0.00  0.00    +0.000 C 
BRANCH  37  39
ATOM     38  C   UNL     1      -4.224  -3.574 129.483  0.00  0.00    +0.000 C 
ATOM     39  C   UNL     1      -5.192  -3.891 130.608  0.00  0.00    +0.000 C 
ENDBRANCH  37  39
ENDBRANCH  36  37
ENDBRANCH  35  36
ENDBRANCH  34  35
ENDBRANCH  33  34
ENDBRANCH  32  33
ENDBRANCH  31  32
ENDBRANCH  30  31
ENDBRANCH  29  30
ENDBRANCH  28  29
ENDBRANCH  27  28
ENDBRANCH  26  27
ENDBRANCH  25  26
ENDBRANCH  24  25
ENDBRANCH  23  24
ENDBRANCH  22  23
ENDBRANCH   1  22
TORSDOF 34
ENDMDL
MODEL 4
REMARK VINA RESULT:      -4.9      2.693      4.400
REMARK  Name = Distearyldimonium
REMARK  38 active torsions:
REMARK  status: ('A' for Active; 'I' for Inactive)
REMARK    1  A    between atoms: C_1  and  C_2
REMARK    2  A    between atoms: C_2  and  C_3
REMARK    3  A    between atoms: C_3  and  C_4
REMARK    4  A    between atoms: C_4  and  C_5
REMARK    5  A    between atoms: C_5  and  C_6
REMARK    6  A    between atoms: C_6  and  C_7
REMARK    7  A    between atoms: C_7  and  C_8
REMARK    8  A    between atoms: C_8  and  C_9
REMARK    9  A    between atoms: C_9  and  C_10
REMARK   10  A    between atoms: C_10  and  C_11
REMARK   11  A    between atoms: C_11  and  C_12
REMARK   12  A    between atoms: C_12  and  C_13
REMARK   13  A    between atoms: C_13  and  C_14
REMARK   14  A    between atoms: C_14  and  C_15
REMARK   15  A    between atoms: C_15  and  C_16
REMARK   16  A    between atoms: C_16  and  C_17
REMARK   17  A    between atoms: C_17  and  C_18
REMARK   18  A    between atoms: C_18  and  N_19
REMARK   19  A    between atoms: N_19  and  C_20
REMARK   20  A    between atoms: N_19  and  C_21
REMARK   21  A    between atoms: N_19  and  C_22
REMARK   22  A    between atoms: C_22  and  C_23
REMARK   23  A    between atoms: C_23  and  C_24
REMARK   24  A    between atoms: C_24  and  C_25
REMARK   25  A    between atoms: C_25  and  C_26
REMARK   26  A    between atoms: C_26  and  C_27
REMARK   27  A    between atoms: C_27  and  C_28
REMARK   28  A    between atoms: C_28  and  C_29
REMARK   29  A    between atoms: C_29  and  C_30
REMARK   30  A    between atoms: C_30  and  C_31
REMARK   31  A    between atoms: C_31  and  C_32
REMARK   32  A    between atoms: C_32  and  C_33
REMARK   33  A    between atoms: C_33  and  C_34
REMARK   34  A    between atoms: C_34  and  C_35
REMARK   35  A    between atoms: C_35  and  C_36
REMARK   36  A    between atoms: C_36  and  C_37
REMARK   37  A    between atoms: C_37  and  C_38
REMARK   38  A    between atoms: C_38  and  C_39
REMARK                            x       y       z     vdW  Elec       q    Type
REMARK                         _______ _______ _______ _____ _____    ______ ____
ROOT
ATOM      1  N   UNL     1      -5.655  -3.083 129.657  0.00  0.00    +0.000 N 
ATOM      2  C   UNL     1      -5.952  -4.375 130.422  0.00  0.00    +0.000 C 
ATOM      3  C   UNL     1      -4.370  -3.224 128.837  0.00  0.00    +0.000 C 
ENDROOT
BRANCH   1   4
ATOM      4  C   UNL     1      -5.524  -1.905 130.642  0.00  0.00    +0.000 C 
BRANCH   4   5
ATOM      5  C   UNL     1      -5.025  -0.657 129.939  0.00  0.00    +0.000 C 
BRANCH   5   6
ATOM      6  C   UNL     1      -5.845   0.554 130.312  0.00  0.00    +0.000 C 
BRANCH   6   7
ATOM      7  C   UNL     1      -7.010   0.066 131.156  0.00  0.00    +0.000 C 
BRANCH   7   8
ATOM      8  C   UNL     1      -8.276   0.758 130.712  0.00  0.00    +0.000 C 
BRANCH   8   9
ATOM      9  C   UNL     1      -9.347   0.574 131.768  0.00  0.00    +0.000 C 
BRANCH   9  10
ATOM     10  C   UNL     1      -9.868   1.935 132.176  0.00  0.00    +0.000 C 
BRANCH  10  11
ATOM     11  C   UNL     1      -8.726   2.785 132.689  0.00  0.00    +0.000 C 
BRANCH  11  12
ATOM     12  C   UNL     1      -9.241   3.731 133.758  0.00  0.00    +0.000 C 
BRANCH  12  13
ATOM     13  C   UNL     1      -8.580   5.085 133.602  0.00  0.00    +0.000 C 
BRANCH  13  14
ATOM     14  C   UNL     1      -9.435   5.974 132.718  0.00  0.00    +0.000 C 
BRANCH  14  15
ATOM     15  C   UNL     1      -8.647   6.388 131.488  0.00  0.00    +0.000 C 
BRANCH  15  16
ATOM     16  C   UNL     1      -9.131   5.610 130.276  0.00  0.00    +0.000 C 
BRANCH  16  17
ATOM     17  C   UNL     1     -10.650   5.629 130.216  0.00  0.00    +0.000 C 
BRANCH  17  18
ATOM     18  C   UNL     1     -11.133   6.896 129.527  0.00  0.00    +0.000 C 
BRANCH  18  19
ATOM     19  C   UNL     1     -12.217   7.569 130.357  0.00  0.00    +0.000 C 
BRANCH  19  20
ATOM     20  C   UNL     1     -12.677   8.863 129.698  0.00  0.00    +0.000 C 
ATOM     21  C   UNL     1     -13.320   8.582 128.353  0.00  0.00    +0.000 C 
ENDBRANCH  19  20
ENDBRANCH  18  19
ENDBRANCH  17  18
ENDBRANCH  16  17
ENDBRANCH  15  16
ENDBRANCH  14  15
ENDBRANCH  13  14
ENDBRANCH  12  13
ENDBRANCH  11  12
ENDBRANCH  10  11
ENDBRANCH   9  10
ENDBRANCH   8   9
ENDBRANCH   7   8
ENDBRANCH   6   7
ENDBRANCH   5   6
ENDBRANCH   4   5
ENDBRANCH   1   4
BRANCH   1  22
ATOM     22  C   UNL     1      -6.836  -2.736 128.729  0.00  0.00    +0.000 C 
BRANCH  22  23
ATOM     23  C   UNL     1      -8.118  -3.386 129.214  0.00  0.00    +0.000 C 
BRANCH  23  24
ATOM     24  C   UNL     1      -8.968  -3.860 128.059  0.00  0.00    +0.000 C 
BRANCH  24  25
ATOM     25  C   UNL     1      -8.336  -3.324 126.786  0.00  0.00    +0.000 C 
BRANCH  25  26
ATOM     26  C   UNL     1      -9.422  -2.903 125.826  0.00  0.00    +0.000 C 
BRANCH  26  27
ATOM     27  C   UNL     1      -9.030  -3.299 124.418  0.00  0.00    +0.000 C 
BRANCH  27  28
ATOM     28  C   UNL     1      -8.977  -2.055 123.557  0.00  0.00    +0.000 C 
BRANCH  28  29
ATOM     29  C   UNL     1      -7.746  -2.096 122.676  0.00  0.00    +0.000 C 
BRANCH  29  30
ATOM     30  C   UNL     1      -6.700  -1.147 123.227  0.00  0.00    +0.000 C 
BRANCH  30  31
ATOM     31  C   UNL     1      -5.691  -1.922 124.050  0.00  0.00    +0.000 C 
BRANCH  31  32
ATOM     32  C   UNL     1      -5.671  -1.391 125.470  0.00  0.00    +0.000 C 
BRANCH  32  33
ATOM     33  C   UNL     1      -6.162   0.045 125.491  0.00  0.00    +0.000 C 
BRANCH  33  34
ATOM     34  C   UNL     1      -7.158   0.236 126.621  0.00  0.00    +0.000 C 
BRANCH  34  35
ATOM     35  C   UNL     1      -7.973   1.497 126.391  0.00  0.00    +0.000 C 
BRANCH  35  36
ATOM     36  C   UNL     1      -7.994   2.348 127.652  0.00  0.00    +0.000 C 
BRANCH  36  37
ATOM     37  C   UNL     1      -7.635   3.790 127.323  0.00  0.00    +0.000 C 
BRANCH  37  39
ATOM     38  C   UNL     1      -6.652   4.731 125.224  0.00  0.00    +0.000 C 
ATOM     39  C   UNL     1      -6.400   3.849 126.432  0.00  0.00    +0.000 C 
ENDBRANCH  37  39
ENDBRANCH  36  37
ENDBRANCH  35  36
ENDBRANCH  34  35
ENDBRANCH  33  34
ENDBRANCH  32  33
ENDBRANCH  31  32
ENDBRANCH  30  31
ENDBRANCH  29  30
ENDBRANCH  28  29
ENDBRANCH  27  28
ENDBRANCH  26  27
ENDBRANCH  25  26
ENDBRANCH  24  25
ENDBRANCH  23  24
ENDBRANCH  22  23
ENDBRANCH   1  22
TORSDOF 34
ENDMDL
MODEL 5
REMARK VINA RESULT:      -4.8      2.138      5.520
REMARK  Name = Distearyldimonium
REMARK  38 active torsions:
REMARK  status: ('A' for Active; 'I' for Inactive)
REMARK    1  A    between atoms: C_1  and  C_2
REMARK    2  A    between atoms: C_2  and  C_3
REMARK    3  A    between atoms: C_3  and  C_4
REMARK    4  A    between atoms: C_4  and  C_5
REMARK    5  A    between atoms: C_5  and  C_6
REMARK    6  A    between atoms: C_6  and  C_7
REMARK    7  A    between atoms: C_7  and  C_8
REMARK    8  A    between atoms: C_8  and  C_9
REMARK    9  A    between atoms: C_9  and  C_10
REMARK   10  A    between atoms: C_10  and  C_11
REMARK   11  A    between atoms: C_11  and  C_12
REMARK   12  A    between atoms: C_12  and  C_13
REMARK   13  A    between atoms: C_13  and  C_14
REMARK   14  A    between atoms: C_14  and  C_15
REMARK   15  A    between atoms: C_15  and  C_16
REMARK   16  A    between atoms: C_16  and  C_17
REMARK   17  A    between atoms: C_17  and  C_18
REMARK   18  A    between atoms: C_18  and  N_19
REMARK   19  A    between atoms: N_19  and  C_20
REMARK   20  A    between atoms: N_19  and  C_21
REMARK   21  A    between atoms: N_19  and  C_22
REMARK   22  A    between atoms: C_22  and  C_23
REMARK   23  A    between atoms: C_23  and  C_24
REMARK   24  A    between atoms: C_24  and  C_25
REMARK   25  A    between atoms: C_25  and  C_26
REMARK   26  A    between atoms: C_26  and  C_27
REMARK   27  A    between atoms: C_27  and  C_28
REMARK   28  A    between atoms: C_28  and  C_29
REMARK   29  A    between atoms: C_29  and  C_30
REMARK   30  A    between atoms: C_30  and  C_31
REMARK   31  A    between atoms: C_31  and  C_32
REMARK   32  A    between atoms: C_32  and  C_33
REMARK   33  A    between atoms: C_33  and  C_34
REMARK   34  A    between atoms: C_34  and  C_35
REMARK   35  A    between atoms: C_35  and  C_36
REMARK   36  A    between atoms: C_36  and  C_37
REMARK   37  A    between atoms: C_37  and  C_38
REMARK   38  A    between atoms: C_38  and  C_39
REMARK                            x       y       z     vdW  Elec       q    Type
REMARK                         _______ _______ _______ _____ _____    ______ ____
ROOT
ATOM      1  N   UNL     1      -7.384   2.318 124.487  0.00  0.00    +0.000 N 
ATOM      2  C   UNL     1      -6.983   2.442 123.014  0.00  0.00    +0.000 C 
ATOM      3  C   UNL     1      -8.236   3.515 124.917  0.00  0.00    +0.000 C 
ENDROOT
BRANCH   1   4
ATOM      4  C   UNL     1      -6.125   2.223 125.369  0.00  0.00    +0.000 C 
BRANCH   4   5
ATOM      5  C   UNL     1      -5.259   3.460 125.221  0.00  0.00    +0.000 C 
BRANCH   5   6
ATOM      6  C   UNL     1      -4.566   3.808 126.515  0.00  0.00    +0.000 C 
BRANCH   6   7
ATOM      7  C   UNL     1      -4.331   2.508 127.265  0.00  0.00    +0.000 C 
BRANCH   7   8
ATOM      8  C   UNL     1      -4.229   2.793 128.744  0.00  0.00    +0.000 C 
BRANCH   8   9
ATOM      9  C   UNL     1      -4.176   1.485 129.505  0.00  0.00    +0.000 C 
BRANCH   9  10
ATOM     10  C   UNL     1      -4.977   1.631 130.782  0.00  0.00    +0.000 C 
BRANCH  10  11
ATOM     11  C   UNL     1      -4.116   2.264 131.854  0.00  0.00    +0.000 C 
BRANCH  11  12
ATOM     12  C   UNL     1      -4.994   3.055 132.805  0.00  0.00    +0.000 C 
BRANCH  12  13
ATOM     13  C   UNL     1      -5.830   4.046 132.021  0.00  0.00    +0.000 C 
BRANCH  13  14
ATOM     14  C   UNL     1      -7.139   4.298 132.745  0.00  0.00    +0.000 C 
BRANCH  14  15
ATOM     15  C   UNL     1      -7.502   3.089 133.588  0.00  0.00    +0.000 C 
BRANCH  15  16
ATOM     16  C   UNL     1      -8.669   2.349 132.958  0.00  0.00    +0.000 C 
BRANCH  16  17
ATOM     17  C   UNL     1      -8.185   1.057 132.319  0.00  0.00    +0.000 C 
BRANCH  17  18
ATOM     18  C   UNL     1      -8.728   0.935 130.904  0.00  0.00    +0.000 C 
BRANCH  18  19
ATOM     19  C   UNL     1      -8.790   2.304 130.242  0.00  0.00    +0.000 C 
BRANCH  19  20
ATOM     20  C   UNL     1      -8.026   2.303 128.924  0.00  0.00    +0.000 C 
ATOM     21  C   UNL     1      -8.058   0.927 128.286  0.00  0.00    +0.000 C 
ENDBRANCH  19  20
ENDBRANCH  18  19
ENDBRANCH  17  18
ENDBRANCH  16  17
ENDBRANCH  15  16
ENDBRANCH  14  15
ENDBRANCH  13  14
ENDBRANCH  12  13
ENDBRANCH  11  12
ENDBRANCH  10  11
ENDBRANCH   9  10
ENDBRANCH   8   9
ENDBRANCH   7   8
ENDBRANCH   6   7
ENDBRANCH   5   6
ENDBRANCH   4   5
ENDBRANCH   1   4
BRANCH   1  22
ATOM     22  C   UNL     1      -8.165   1.008 124.712  0.00  0.00    +0.000 C 
BRANCH  22  23
ATOM     23  C   UNL     1      -8.116   0.126 123.479  0.00  0.00    +0.000 C 
BRANCH  23  24
ATOM     24  C   UNL     1      -9.276  -0.841 123.445  0.00  0.00    +0.000 C 
BRANCH  24  25
ATOM     25  C   UNL     1      -8.731  -2.181 122.981  0.00  0.00    +0.000 C 
BRANCH  25  26
ATOM     26  C   UNL     1      -9.314  -3.282 123.833  0.00  0.00    +0.000 C 
BRANCH  26  27
ATOM     27  C   UNL     1      -9.375  -2.824 125.275  0.00  0.00    +0.000 C 
BRANCH  27  28
ATOM     28  C   UNL     1      -8.423  -3.667 126.096  0.00  0.00    +0.000 C 
BRANCH  28  29
ATOM     29  C   UNL     1      -9.008  -3.903 127.473  0.00  0.00    +0.000 C 
BRANCH  29  30
ATOM     30  C   UNL     1      -8.519  -2.826 128.420  0.00  0.00    +0.000 C 
BRANCH  30  31
ATOM     31  C   UNL     1      -7.709  -3.458 129.535  0.00  0.00    +0.000 C 
BRANCH  31  32
ATOM     32  C   UNL     1      -7.089  -2.374 130.396  0.00  0.00    +0.000 C 
BRANCH  32  33
ATOM     33  C   UNL     1      -5.945  -1.713 129.648  0.00  0.00    +0.000 C 
BRANCH  33  34
ATOM     34  C   UNL     1      -4.981  -2.770 129.138  0.00  0.00    +0.000 C 
BRANCH  34  35
ATOM     35  C   UNL     1      -4.840  -2.662 127.629  0.00  0.00    +0.000 C 
BRANCH  35  36
ATOM     36  C   UNL     1      -5.387  -1.328 127.144  0.00  0.00    +0.000 C 
BRANCH  36  37
ATOM     37  C   UNL     1      -5.564  -1.348 125.632  0.00  0.00    +0.000 C 
BRANCH  37  39
ATOM     38  C   UNL     1      -5.332  -2.726 123.557  0.00  0.00    +0.000 C 
ATOM     39  C   UNL     1      -5.264  -2.733 125.072  0.00  0.00    +0.000 C 
ENDBRANCH  37  39
ENDBRANCH  36  37
ENDBRANCH  35  36
ENDBRANCH  34  35
ENDBRANCH  33  34
ENDBRANCH  32  33
ENDBRANCH  31  32
ENDBRANCH  30  31
ENDBRANCH  29  30
ENDBRANCH  28  29
ENDBRANCH  27  28
ENDBRANCH  26  27
ENDBRANCH  25  26
ENDBRANCH  24  25
ENDBRANCH  23  24
ENDBRANCH  22  23
ENDBRANCH   1  22
TORSDOF 34
ENDMDL
MODEL 6
REMARK VINA RESULT:      -4.8      2.224      6.234
REMARK  Name = Distearyldimonium
REMARK  38 active torsions:
REMARK  status: ('A' for Active; 'I' for Inactive)
REMARK    1  A    between atoms: C_1  and  C_2
REMARK    2  A    between atoms: C_2  and  C_3
REMARK    3  A    between atoms: C_3  and  C_4
REMARK    4  A    between atoms: C_4  and  C_5
REMARK    5  A    between atoms: C_5  and  C_6
REMARK    6  A    between atoms: C_6  and  C_7
REMARK    7  A    between atoms: C_7  and  C_8
REMARK    8  A    between atoms: C_8  and  C_9
REMARK    9  A    between atoms: C_9  and  C_10
REMARK   10  A    between atoms: C_10  and  C_11
REMARK   11  A    between atoms: C_11  and  C_12
REMARK   12  A    between atoms: C_12  and  C_13
REMARK   13  A    between atoms: C_13  and  C_14
REMARK   14  A    between atoms: C_14  and  C_15
REMARK   15  A    between atoms: C_15  and  C_16
REMARK   16  A    between atoms: C_16  and  C_17
REMARK   17  A    between atoms: C_17  and  C_18
REMARK   18  A    between atoms: C_18  and  N_19
REMARK   19  A    between atoms: N_19  and  C_20
REMARK   20  A    between atoms: N_19  and  C_21
REMARK   21  A    between atoms: N_19  and  C_22
REMARK   22  A    between atoms: C_22  and  C_23
REMARK   23  A    between atoms: C_23  and  C_24
REMARK   24  A    between atoms: C_24  and  C_25
REMARK   25  A    between atoms: C_25  and  C_26
REMARK   26  A    between atoms: C_26  and  C_27
REMARK   27  A    between atoms: C_27  and  C_28
REMARK   28  A    between atoms: C_28  and  C_29
REMARK   29  A    between atoms: C_29  and  C_30
REMARK   30  A    between atoms: C_30  and  C_31
REMARK   31  A    between atoms: C_31  and  C_32
REMARK   32  A    between atoms: C_32  and  C_33
REMARK   33  A    between atoms: C_33  and  C_34
REMARK   34  A    between atoms: C_34  and  C_35
REMARK   35  A    between atoms: C_35  and  C_36
REMARK   36  A    between atoms: C_36  and  C_37
REMARK   37  A    between atoms: C_37  and  C_38
REMARK   38  A    between atoms: C_38  and  C_39
REMARK                            x       y       z     vdW  Elec       q    Type
REMARK                         _______ _______ _______ _____ _____    ______ ____
ROOT
ATOM      1  N   UNL     1      -9.226   3.996 131.495  0.00  0.00    +0.000 N 
ATOM      2  C   UNL     1     -10.554   3.896 130.738  0.00  0.00    +0.000 C 
ATOM      3  C   UNL     1      -9.192   5.257 132.361  0.00  0.00    +0.000 C 
ENDROOT
BRANCH   1   4
ATOM      4  C   UNL     1      -8.052   4.010 130.498  0.00  0.00    +0.000 C 
BRANCH   4   5
ATOM      5  C   UNL     1      -8.532   3.746 129.083  0.00  0.00    +0.000 C 
BRANCH   5   6
ATOM      6  C   UNL     1      -8.513   2.273 128.758  0.00  0.00    +0.000 C 
BRANCH   6   7
ATOM      7  C   UNL     1      -7.278   2.014 127.911  0.00  0.00    +0.000 C 
BRANCH   7   8
ATOM      8  C   UNL     1      -6.986   0.534 127.889  0.00  0.00    +0.000 C 
BRANCH   8   9
ATOM      9  C   UNL     1      -6.550   0.128 126.497  0.00  0.00    +0.000 C 
BRANCH   9  10
ATOM     10  C   UNL     1      -7.588   0.604 125.503  0.00  0.00    +0.000 C 
BRANCH  10  11
ATOM     11  C   UNL     1      -6.927   0.882 124.170  0.00  0.00    +0.000 C 
BRANCH  11  12
ATOM     12  C   UNL     1      -7.231   2.306 123.743  0.00  0.00    +0.000 C 
BRANCH  12  13
ATOM     13  C   UNL     1      -5.982   3.155 123.876  0.00  0.00    +0.000 C 
BRANCH  13  14
ATOM     14  C   UNL     1      -6.310   4.434 124.623  0.00  0.00    +0.000 C 
BRANCH  14  15
ATOM     15  C   UNL     1      -5.360   4.604 125.795  0.00  0.00    +0.000 C 
BRANCH  15  16
ATOM     16  C   UNL     1      -4.555   3.332 125.998  0.00  0.00    +0.000 C 
BRANCH  16  17
ATOM     17  C   UNL     1      -3.126   3.675 126.384  0.00  0.00    +0.000 C 
BRANCH  17  18
ATOM     18  C   UNL     1      -2.894   3.381 127.859  0.00  0.00    +0.000 C 
BRANCH  18  19
ATOM     19  C   UNL     1      -4.225   3.250 128.586  0.00  0.00    +0.000 C 
BRANCH  19  20
ATOM     20  C   UNL     1      -4.025   2.655 129.974  0.00  0.00    +0.000 C 
ATOM     21  C   UNL     1      -4.187   1.147 129.941  0.00  0.00    +0.000 C 
ENDBRANCH  19  20
ENDBRANCH  18  19
ENDBRANCH  17  18
ENDBRANCH  16  17
ENDBRANCH  15  16
ENDBRANCH  14  15
ENDBRANCH  13  14
ENDBRANCH  12  13
ENDBRANCH  11  12
ENDBRANCH  10  11
ENDBRANCH   9  10
ENDBRANCH   8   9
ENDBRANCH   7   8
ENDBRANCH   6   7
ENDBRANCH   5   6
ENDBRANCH   4   5
ENDBRANCH   1   4
BRANCH   1  22
ATOM     22  C   UNL     1      -9.026   2.747 132.375  0.00  0.00    +0.000 C 
BRANCH  22  23
ATOM     23  C   UNL     1      -9.969   1.632 131.962  0.00  0.00    +0.000 C 
BRANCH  23  24
ATOM     24  C   UNL     1      -9.239   0.320 131.806  0.00  0.00    +0.000 C 
BRANCH  24  25
ATOM     25  C   UNL     1      -7.774   0.581 132.114  0.00  0.00    +0.000 C 
BRANCH  25  26
ATOM     26  C   UNL     1      -6.985  -0.689 131.908  0.00  0.00    +0.000 C 
BRANCH  26  27
ATOM     27  C   UNL     1      -7.426  -1.726 132.919  0.00  0.00    +0.000 C 
BRANCH  27  28
ATOM     28  C   UNL     1      -7.238  -3.104 132.319  0.00  0.00    +0.000 C 
BRANCH  28  29
ATOM     29  C   UNL     1      -6.110  -3.072 131.310  0.00  0.00    +0.000 C 
BRANCH  29  30
ATOM     30  C   UNL     1      -6.484  -3.918 130.109  0.00  0.00    +0.000 C 
BRANCH  30  31
ATOM     31  C   UNL     1      -7.051  -3.033 129.017  0.00  0.00    +0.000 C 
BRANCH  31  32
ATOM     32  C   UNL     1      -8.528  -3.326 128.835  0.00  0.00    +0.000 C 
BRANCH  32  33
ATOM     33  C   UNL     1      -8.769  -3.925 127.461  0.00  0.00    +0.000 C 
BRANCH  33  34
ATOM     34  C   UNL     1      -8.462  -2.896 126.387  0.00  0.00    +0.000 C 
BRANCH  34  35
ATOM     35  C   UNL     1      -8.636  -3.513 125.010  0.00  0.00    +0.000 C 
BRANCH  35  36
ATOM     36  C   UNL     1      -7.601  -2.950 124.046  0.00  0.00    +0.000 C 
BRANCH  36  37
ATOM     37  C   UNL     1      -6.209  -3.036 124.657  0.00  0.00    +0.000 C 
BRANCH  37  39
ATOM     38  C   UNL     1      -4.439  -4.494 123.656  0.00  0.00    +0.000 C 
ATOM     39  C   UNL     1      -5.149  -3.156 123.569  0.00  0.00    +0.000 C 
ENDBRANCH  37  39
ENDBRANCH  36  37
ENDBRANCH  35  36
ENDBRANCH  34  35
ENDBRANCH  33  34
ENDBRANCH  32  33
ENDBRANCH  31  32
ENDBRANCH  30  31
ENDBRANCH  29  30
ENDBRANCH  28  29
ENDBRANCH  27  28
ENDBRANCH  26  27
ENDBRANCH  25  26
ENDBRANCH  24  25
ENDBRANCH  23  24
ENDBRANCH  22  23
ENDBRANCH   1  22
TORSDOF 34
ENDMDL
MODEL 7
REMARK VINA RESULT:      -4.8      2.174      6.141
REMARK  Name = Distearyldimonium
REMARK  38 active torsions:
REMARK  status: ('A' for Active; 'I' for Inactive)
REMARK    1  A    between atoms: C_1  and  C_2
REMARK    2  A    between atoms: C_2  and  C_3
REMARK    3  A    between atoms: C_3  and  C_4
REMARK    4  A    between atoms: C_4  and  C_5
REMARK    5  A    between atoms: C_5  and  C_6
REMARK    6  A    between atoms: C_6  and  C_7
REMARK    7  A    between atoms: C_7  and  C_8
REMARK    8  A    between atoms: C_8  and  C_9
REMARK    9  A    between atoms: C_9  and  C_10
REMARK   10  A    between atoms: C_10  and  C_11
REMARK   11  A    between atoms: C_11  and  C_12
REMARK   12  A    between atoms: C_12  and  C_13
REMARK   13  A    between atoms: C_13  and  C_14
REMARK   14  A    between atoms: C_14  and  C_15
REMARK   15  A    between atoms: C_15  and  C_16
REMARK   16  A    between atoms: C_16  and  C_17
REMARK   17  A    between atoms: C_17  and  C_18
REMARK   18  A    between atoms: C_18  and  N_19
REMARK   19  A    between atoms: N_19  and  C_20
REMARK   20  A    between atoms: N_19  and  C_21
REMARK   21  A    between atoms: N_19  and  C_22
REMARK   22  A    between atoms: C_22  and  C_23
REMARK   23  A    between atoms: C_23  and  C_24
REMARK   24  A    between atoms: C_24  and  C_25
REMARK   25  A    between atoms: C_25  and  C_26
REMARK   26  A    between atoms: C_26  and  C_27
REMARK   27  A    between atoms: C_27  and  C_28
REMARK   28  A    between atoms: C_28  and  C_29
REMARK   29  A    between atoms: C_29  and  C_30
REMARK   30  A    between atoms: C_30  and  C_31
REMARK   31  A    between atoms: C_31  and  C_32
REMARK   32  A    between atoms: C_32  and  C_33
REMARK   33  A    between atoms: C_33  and  C_34
REMARK   34  A    between atoms: C_34  and  C_35
REMARK   35  A    between atoms: C_35  and  C_36
REMARK   36  A    between atoms: C_36  and  C_37
REMARK   37  A    between atoms: C_37  and  C_38
REMARK   38  A    between atoms: C_38  and  C_39
REMARK                            x       y       z     vdW  Elec       q    Type
REMARK                         _______ _______ _______ _____ _____    ______ ____
ROOT
ATOM      1  N   UNL     1      -7.747   1.829 124.582  0.00  0.00    +0.000 N 
ATOM      2  C   UNL     1      -7.130   1.879 123.181  0.00  0.00    +0.000 C 
ATOM      3  C   UNL     1      -9.244   2.141 124.523  0.00  0.00    +0.000 C 
ENDROOT
BRANCH   1   4
ATOM      4  C   UNL     1      -7.035   2.835 125.506  0.00  0.00    +0.000 C 
BRANCH   4   5
ATOM      5  C   UNL     1      -6.343   3.921 124.703  0.00  0.00    +0.000 C 
BRANCH   5   6
ATOM      6  C   UNL     1      -4.859   3.948 124.975  0.00  0.00    +0.000 C 
BRANCH   6   7
ATOM      7  C   UNL     1      -4.660   3.575 126.434  0.00  0.00    +0.000 C 
BRANCH   7   8
ATOM      8  C   UNL     1      -3.273   3.011 126.623  0.00  0.00    +0.000 C 
BRANCH   8   9
ATOM      9  C   UNL     1      -2.630   3.652 127.835  0.00  0.00    +0.000 C 
BRANCH   9  10
ATOM     10  C   UNL     1      -3.205   5.042 128.014  0.00  0.00    +0.000 C 
BRANCH  10  11
ATOM     11  C   UNL     1      -3.108   5.450 129.468  0.00  0.00    +0.000 C 
BRANCH  11  12
ATOM     12  C   UNL     1      -3.933   6.703 129.696  0.00  0.00    +0.000 C 
BRANCH  12  13
ATOM     13  C   UNL     1      -4.712   6.571 130.989  0.00  0.00    +0.000 C 
BRANCH  13  14
ATOM     14  C   UNL     1      -6.102   7.154 130.811  0.00  0.00    +0.000 C 
BRANCH  14  15
ATOM     15  C   UNL     1      -7.094   6.392 131.669  0.00  0.00    +0.000 C 
BRANCH  15  16
ATOM     16  C   UNL     1      -8.511   6.674 131.198  0.00  0.00    +0.000 C 
BRANCH  16  17
ATOM     17  C   UNL     1      -8.850   5.796 130.005  0.00  0.00    +0.000 C 
BRANCH  17  18
ATOM     18  C   UNL     1     -10.108   6.305 129.318  0.00  0.00    +0.000 C 
BRANCH  18  19
ATOM     19  C   UNL     1     -10.178   7.823 129.401  0.00  0.00    +0.000 C 
BRANCH  19  20
ATOM     20  C   UNL     1     -10.577   8.420 128.058  0.00  0.00    +0.000 C 
ATOM     21  C   UNL     1     -10.622   7.348 126.986  0.00  0.00    +0.000 C 
ENDBRANCH  19  20
ENDBRANCH  18  19
ENDBRANCH  17  18
ENDBRANCH  16  17
ENDBRANCH  15  16
ENDBRANCH  14  15
ENDBRANCH  13  14
ENDBRANCH  12  13
ENDBRANCH  11  12
ENDBRANCH  10  11
ENDBRANCH   9  10
ENDBRANCH   8   9
ENDBRANCH   7   8
ENDBRANCH   6   7
ENDBRANCH   5   6
ENDBRANCH   4   5
ENDBRANCH   1   4
BRANCH   1  22
ATOM     22  C   UNL     1      -7.523   0.439 125.208  0.00  0.00    +0.000 C 
BRANCH  22  23
ATOM     23  C   UNL     1      -6.616   0.527 126.421  0.00  0.00    +0.000 C 
BRANCH  23  24
ATOM     24  C   UNL     1      -5.335  -0.245 126.211  0.00  0.00    +0.000 C 
BRANCH  24  25
ATOM     25  C   UNL     1      -5.496  -1.043 124.929  0.00  0.00    +0.000 C 
BRANCH  25  26
ATOM     26  C   UNL     1      -5.620  -2.509 125.264  0.00  0.00    +0.000 C 
BRANCH  26  27
ATOM     27  C   UNL     1      -6.316  -3.229 124.128  0.00  0.00    +0.000 C 
BRANCH  27  28
ATOM     28  C   UNL     1      -7.813  -3.081 124.301  0.00  0.00    +0.000 C 
BRANCH  28  29
ATOM     29  C   UNL     1      -8.283  -3.948 125.450  0.00  0.00    +0.000 C 
BRANCH  29  30
ATOM     30  C   UNL     1      -8.709  -3.064 126.605  0.00  0.00    +0.000 C 
BRANCH  30  31
ATOM     31  C   UNL     1      -9.004  -3.922 127.821  0.00  0.00    +0.000 C 
BRANCH  31  32
ATOM     32  C   UNL     1      -8.378  -3.298 129.052  0.00  0.00    +0.000 C 
BRANCH  32  33
ATOM     33  C   UNL     1      -7.525  -2.108 128.651  0.00  0.00    +0.000 C 
BRANCH  33  34
ATOM     34  C   UNL     1      -6.251  -2.081 129.479  0.00  0.00    +0.000 C 
BRANCH  34  35
ATOM     35  C   UNL     1      -5.168  -2.897 128.795  0.00  0.00    +0.000 C 
BRANCH  35  36
ATOM     36  C   UNL     1      -4.435  -3.758 129.814  0.00  0.00    +0.000 C 
BRANCH  36  37
ATOM     37  C   UNL     1      -5.421  -4.645 130.562  0.00  0.00    +0.000 C 
BRANCH  37  39
ATOM     38  C   UNL     1      -6.334  -4.070 132.818  0.00  0.00    +0.000 C 
ATOM     39  C   UNL     1      -5.141  -4.619 132.059  0.00  0.00    +0.000 C 
ENDBRANCH  37  39
ENDBRANCH  36  37
ENDBRANCH  35  36
ENDBRANCH  34  35
ENDBRANCH  33  34
ENDBRANCH  32  33
ENDBRANCH  31  32
ENDBRANCH  30  31
ENDBRANCH  29  30
ENDBRANCH  28  29
ENDBRANCH  27  28
ENDBRANCH  26  27
ENDBRANCH  25  26
ENDBRANCH  24  25
ENDBRANCH  23  24
ENDBRANCH  22  23
ENDBRANCH   1  22
TORSDOF 34
ENDMDL
MODEL 8
REMARK VINA RESULT:      -4.8      3.225      9.680
REMARK  Name = Distearyldimonium
REMARK  38 active torsions:
REMARK  status: ('A' for Active; 'I' for Inactive)
REMARK    1  A    between atoms: C_1  and  C_2
REMARK    2  A    between atoms: C_2  and  C_3
REMARK    3  A    between atoms: C_3  and  C_4
REMARK    4  A    between atoms: C_4  and  C_5
REMARK    5  A    between atoms: C_5  and  C_6
REMARK    6  A    between atoms: C_6  and  C_7
REMARK    7  A    between atoms: C_7  and  C_8
REMARK    8  A    between atoms: C_8  and  C_9
REMARK    9  A    between atoms: C_9  and  C_10
REMARK   10  A    between atoms: C_10  and  C_11
REMARK   11  A    between atoms: C_11  and  C_12
REMARK   12  A    between atoms: C_12  and  C_13
REMARK   13  A    between atoms: C_13  and  C_14
REMARK   14  A    between atoms: C_14  and  C_15
REMARK   15  A    between atoms: C_15  and  C_16
REMARK   16  A    between atoms: C_16  and  C_17
REMARK   17  A    between atoms: C_17  and  C_18
REMARK   18  A    between atoms: C_18  and  N_19
REMARK   19  A    between atoms: N_19  and  C_20
REMARK   20  A    between atoms: N_19  and  C_21
REMARK   21  A    between atoms: N_19  and  C_22
REMARK   22  A    between atoms: C_22  and  C_23
REMARK   23  A    between atoms: C_23  and  C_24
REMARK   24  A    between atoms: C_24  and  C_25
REMARK   25  A    between atoms: C_25  and  C_26
REMARK   26  A    between atoms: C_26  and  C_27
REMARK   27  A    between atoms: C_27  and  C_28
REMARK   28  A    between atoms: C_28  and  C_29
REMARK   29  A    between atoms: C_29  and  C_30
REMARK   30  A    between atoms: C_30  and  C_31
REMARK   31  A    between atoms: C_31  and  C_32
REMARK   32  A    between atoms: C_32  and  C_33
REMARK   33  A    between atoms: C_33  and  C_34
REMARK   34  A    between atoms: C_34  and  C_35
REMARK   35  A    between atoms: C_35  and  C_36
REMARK   36  A    between atoms: C_36  and  C_37
REMARK   37  A    between atoms: C_37  and  C_38
REMARK   38  A    between atoms: C_38  and  C_39
REMARK                            x       y       z     vdW  Elec       q    Type
REMARK                         _______ _______ _______ _____ _____    ______ ____
ROOT
ATOM      1  N   UNL     1     -10.821   6.192 130.715  0.00  0.00    +0.000 N 
ATOM      2  C   UNL     1     -11.986   6.824 131.483  0.00  0.00    +0.000 C 
ATOM      3  C   UNL     1     -10.569   6.941 129.404  0.00  0.00    +0.000 C 
ENDROOT
BRANCH   1   4
ATOM      4  C   UNL     1     -11.125   4.710 130.425  0.00  0.00    +0.000 C 
BRANCH   4   5
ATOM      5  C   UNL     1     -10.028   3.811 130.963  0.00  0.00    +0.000 C 
BRANCH   5   6
ATOM      6  C   UNL     1      -9.579   2.806 129.930  0.00  0.00    +0.000 C 
BRANCH   6   7
ATOM      7  C   UNL     1      -8.086   2.603 130.118  0.00  0.00    +0.000 C 
BRANCH   7   8
ATOM      8  C   UNL     1      -7.743   1.152 129.884  0.00  0.00    +0.000 C 
BRANCH   8   9
ATOM      9  C   UNL     1      -8.447   0.296 130.917  0.00  0.00    +0.000 C 
BRANCH   9  10
ATOM     10  C   UNL     1      -7.512  -0.814 131.349  0.00  0.00    +0.000 C 
BRANCH  10  11
ATOM     11  C   UNL     1      -6.908  -1.475 130.129  0.00  0.00    +0.000 C 
BRANCH  11  12
ATOM     12  C   UNL     1      -6.975  -2.983 130.287  0.00  0.00    +0.000 C 
BRANCH  12  13
ATOM     13  C   UNL     1      -8.010  -3.549 129.335  0.00  0.00    +0.000 C 
BRANCH  13  14
ATOM     14  C   UNL     1      -8.076  -2.695 128.084  0.00  0.00    +0.000 C 
BRANCH  14  15
ATOM     15  C   UNL     1      -8.949  -3.373 127.043  0.00  0.00    +0.000 C 
BRANCH  15  16
ATOM     16  C   UNL     1      -9.268  -2.400 125.921  0.00  0.00    +0.000 C 
BRANCH  16  17
ATOM     17  C   UNL     1      -9.095  -3.081 124.574  0.00  0.00    +0.000 C 
BRANCH  17  18
ATOM     18  C   UNL     1      -7.746  -3.782 124.509  0.00  0.00    +0.000 C 
BRANCH  18  19
ATOM     19  C   UNL     1      -6.724  -2.897 123.811  0.00  0.00    +0.000 C 
BRANCH  19  20
ATOM     20  C   UNL     1      -5.345  -3.067 124.437  0.00  0.00    +0.000 C 
ATOM     21  C   UNL     1      -4.541  -4.112 123.688  0.00  0.00    +0.000 C 
ENDBRANCH  19  20
ENDBRANCH  18  19
ENDBRANCH  17  18
ENDBRANCH  16  17
ENDBRANCH  15  16
ENDBRANCH  14  15
ENDBRANCH  13  14
ENDBRANCH  12  13
ENDBRANCH  11  12
ENDBRANCH  10  11
ENDBRANCH   9  10
ENDBRANCH   8   9
ENDBRANCH   7   8
ENDBRANCH   6   7
ENDBRANCH   5   6
ENDBRANCH   4   5
ENDBRANCH   1   4
BRANCH   1  22
ATOM     22  C   UNL     1      -9.548   6.206 131.583  0.00  0.00    +0.000 C 
BRANCH  22  23
ATOM     23  C   UNL     1      -8.425   6.957 130.892  0.00  0.00    +0.000 C 
BRANCH  23  24
ATOM     24  C   UNL     1      -7.186   6.104 130.765  0.00  0.00    +0.000 C 
BRANCH  24  25
ATOM     25  C   UNL     1      -6.031   6.900 131.350  0.00  0.00    +0.000 C 
BRANCH  25  26
ATOM     26  C   UNL     1      -4.736   6.428 130.736  0.00  0.00    +0.000 C 
BRANCH  26  27
ATOM     27  C   UNL     1      -3.624   7.387 131.107  0.00  0.00    +0.000 C 
BRANCH  27  28
ATOM     28  C   UNL     1      -2.730   6.725 132.135  0.00  0.00    +0.000 C 
BRANCH  28  29
ATOM     29  C   UNL     1      -2.040   5.528 131.516  0.00  0.00    +0.000 C 
BRANCH  29  30
ATOM     30  C   UNL     1      -1.738   4.508 132.596  0.00  0.00    +0.000 C 
BRANCH  30  31
ATOM     31  C   UNL     1      -3.034   3.991 133.188  0.00  0.00    +0.000 C 
BRANCH  31  32
ATOM     32  C   UNL     1      -3.106   2.485 133.029  0.00  0.00    +0.000 C 
BRANCH  32  33
ATOM     33  C   UNL     1      -4.268   2.117 132.125  0.00  0.00    +0.000 C 
BRANCH  33  34
ATOM     34  C   UNL     1      -5.441   3.048 132.383  0.00  0.00    +0.000 C 
BRANCH  34  35
ATOM     35  C   UNL     1      -6.428   2.391 133.332  0.00  0.00    +0.000 C 
BRANCH  35  36
ATOM     36  C   UNL     1      -7.177   3.451 134.128  0.00  0.00    +0.000 C 
BRANCH  36  37
ATOM     37  C   UNL     1      -6.448   4.784 134.048  0.00  0.00    +0.000 C 
BRANCH  37  39
ATOM     38  C   UNL     1      -7.626   5.590 136.103  0.00  0.00    +0.000 C 
ATOM     39  C   UNL     1      -7.291   5.898 134.655  0.00  0.00    +0.000 C 
ENDBRANCH  37  39
ENDBRANCH  36  37
ENDBRANCH  35  36
ENDBRANCH  34  35
ENDBRANCH  33  34
ENDBRANCH  32  33
ENDBRANCH  31  32
ENDBRANCH  30  31
ENDBRANCH  29  30
ENDBRANCH  28  29
ENDBRANCH  27  28
ENDBRANCH  26  27
ENDBRANCH  25  26
ENDBRANCH  24  25
ENDBRANCH  23  24
ENDBRANCH  22  23
ENDBRANCH   1  22
TORSDOF 34
ENDMDL
MODEL 9
REMARK VINA RESULT:      -4.7      2.030      5.783
REMARK  Name = Distearyldimonium
REMARK  38 active torsions:
REMARK  status: ('A' for Active; 'I' for Inactive)
REMARK    1  A    between atoms: C_1  and  C_2
REMARK    2  A    between atoms: C_2  and  C_3
REMARK    3  A    between atoms: C_3  and  C_4
REMARK    4  A    between atoms: C_4  and  C_5
REMARK    5  A    between atoms: C_5  and  C_6
REMARK    6  A    between atoms: C_6  and  C_7
REMARK    7  A    between atoms: C_7  and  C_8
REMARK    8  A    between atoms: C_8  and  C_9
REMARK    9  A    between atoms: C_9  and  C_10
REMARK   10  A    between atoms: C_10  and  C_11
REMARK   11  A    between atoms: C_11  and  C_12
REMARK   12  A    between atoms: C_12  and  C_13
REMARK   13  A    between atoms: C_13  and  C_14
REMARK   14  A    between atoms: C_14  and  C_15
REMARK   15  A    between atoms: C_15  and  C_16
REMARK   16  A    between atoms: C_16  and  C_17
REMARK   17  A    between atoms: C_17  and  C_18
REMARK   18  A    between atoms: C_18  and  N_19
REMARK   19  A    between atoms: N_19  and  C_20
REMARK   20  A    between atoms: N_19  and  C_21
REMARK   21  A    between atoms: N_19  and  C_22
REMARK   22  A    between atoms: C_22  and  C_23
REMARK   23  A    between atoms: C_23  and  C_24
REMARK   24  A    between atoms: C_24  and  C_25
REMARK   25  A    between atoms: C_25  and  C_26
REMARK   26  A    between atoms: C_26  and  C_27
REMARK   27  A    between atoms: C_27  and  C_28
REMARK   28  A    between atoms: C_28  and  C_29
REMARK   29  A    between atoms: C_29  and  C_30
REMARK   30  A    between atoms: C_30  and  C_31
REMARK   31  A    between atoms: C_31  and  C_32
REMARK   32  A    between atoms: C_32  and  C_33
REMARK   33  A    between atoms: C_33  and  C_34
REMARK   34  A    between atoms: C_34  and  C_35
REMARK   35  A    between atoms: C_35  and  C_36
REMARK   36  A    between atoms: C_36  and  C_37
REMARK   37  A    between atoms: C_37  and  C_38
REMARK   38  A    between atoms: C_38  and  C_39
REMARK                            x       y       z     vdW  Elec       q    Type
REMARK                         _______ _______ _______ _____ _____    ______ ____
ROOT
ATOM      1  N   UNL     1      -7.376   2.561 124.165  0.00  0.00    +0.000 N 
ATOM      2  C   UNL     1      -7.474   2.662 122.640  0.00  0.00    +0.000 C 
ATOM      3  C   UNL     1      -8.559   3.270 124.830  0.00  0.00    +0.000 C 
ENDROOT
BRANCH   1   4
ATOM      4  C   UNL     1      -6.051   3.181 124.649  0.00  0.00    +0.000 C 
BRANCH   4   5
ATOM      5  C   UNL     1      -5.637   2.606 125.991  0.00  0.00    +0.000 C 
BRANCH   5   6
ATOM      6  C   UNL     1      -4.161   2.795 126.242  0.00  0.00    +0.000 C 
BRANCH   6   7
ATOM      7  C   UNL     1      -3.925   2.574 127.726  0.00  0.00    +0.000 C 
BRANCH   7   8
ATOM      8  C   UNL     1      -2.840   3.507 128.206  0.00  0.00    +0.000 C 
BRANCH   8   9
ATOM      9  C   UNL     1      -2.912   4.805 127.428  0.00  0.00    +0.000 C 
BRANCH   9  10
ATOM     10  C   UNL     1      -3.663   5.827 128.255  0.00  0.00    +0.000 C 
BRANCH  10  11
ATOM     11  C   UNL     1      -2.960   6.025 129.581  0.00  0.00    +0.000 C 
BRANCH  11  12
ATOM     12  C   UNL     1      -3.985   6.025 130.700  0.00  0.00    +0.000 C 
BRANCH  12  13
ATOM     13  C   UNL     1      -5.245   5.322 130.236  0.00  0.00    +0.000 C 
BRANCH  13  14
ATOM     14  C   UNL     1      -5.621   4.237 131.227  0.00  0.00    +0.000 C 
BRANCH  14  15
ATOM     15  C   UNL     1      -6.302   3.090 130.503  0.00  0.00    +0.000 C 
BRANCH  15  16
ATOM     16  C   UNL     1      -7.095   3.621 129.321  0.00  0.00    +0.000 C 
BRANCH  16  17
ATOM     17  C   UNL     1      -8.499   3.041 129.331  0.00  0.00    +0.000 C 
BRANCH  17  18
ATOM     18  C   UNL     1      -9.239   3.475 130.586  0.00  0.00    +0.000 C 
BRANCH  18  19
ATOM     19  C   UNL     1      -9.811   2.264 131.309  0.00  0.00    +0.000 C 
BRANCH  19  20
ATOM     20  C   UNL     1      -9.414   2.274 132.779  0.00  0.00    +0.000 C 
ATOM     21  C   UNL     1      -9.119   3.687 133.246  0.00  0.00    +0.000 C 
ENDBRANCH  19  20
ENDBRANCH  18  19
ENDBRANCH  17  18
ENDBRANCH  16  17
ENDBRANCH  15  16
ENDBRANCH  14  15
ENDBRANCH  13  14
ENDBRANCH  12  13
ENDBRANCH  11  12
ENDBRANCH  10  11
ENDBRANCH   9  10
ENDBRANCH   8   9
ENDBRANCH   7   8
ENDBRANCH   6   7
ENDBRANCH   5   6
ENDBRANCH   4   5
ENDBRANCH   1   4
BRANCH   1  22
ATOM     22  C   UNL     1      -7.340   1.082 124.594  0.00  0.00    +0.000 C 
BRANCH  22  23
ATOM     23  C   UNL     1      -7.611   0.165 123.415  0.00  0.00    +0.000 C 
BRANCH  23  24
ATOM     24  C   UNL     1      -8.832  -0.692 123.652  0.00  0.00    +0.000 C 
BRANCH  24  25
ATOM     25  C   UNL     1      -8.578  -2.031 122.980  0.00  0.00    +0.000 C 
BRANCH  25  26
ATOM     26  C   UNL     1      -9.064  -3.142 123.878  0.00  0.00    +0.000 C 
BRANCH  26  27
ATOM     27  C   UNL     1      -7.991  -3.478 124.891  0.00  0.00    +0.000 C 
BRANCH  27  28
ATOM     28  C   UNL     1      -6.646  -3.483 124.196  0.00  0.00    +0.000 C 
BRANCH  28  29
ATOM     29  C   UNL     1      -5.631  -2.741 125.039  0.00  0.00    +0.000 C 
BRANCH  29  30
ATOM     30  C   UNL     1      -6.331  -2.099 126.221  0.00  0.00    +0.000 C 
BRANCH  30  31
ATOM     31  C   UNL     1      -5.439  -1.032 126.824  0.00  0.00    +0.000 C 
BRANCH  31  32
ATOM     32  C   UNL     1      -6.100  -0.448 128.057  0.00  0.00    +0.000 C 
BRANCH  32  33
ATOM     33  C   UNL     1      -7.538  -0.924 128.146  0.00  0.00    +0.000 C 
BRANCH  33  34
ATOM     34  C   UNL     1      -7.834  -1.419 129.551  0.00  0.00    +0.000 C 
BRANCH  34  35
ATOM     35  C   UNL     1      -8.121  -2.911 129.529  0.00  0.00    +0.000 C 
BRANCH  35  36
ATOM     36  C   UNL     1      -6.818  -3.697 129.542  0.00  0.00    +0.000 C 
BRANCH  36  37
ATOM     37  C   UNL     1      -6.068  -3.454 130.843  0.00  0.00    +0.000 C 
BRANCH  37  39
ATOM     38  C   UNL     1      -4.141  -3.504 129.249  0.00  0.00    +0.000 C 
ATOM     39  C   UNL     1      -4.655  -2.956 130.567  0.00  0.00    +0.000 C 
ENDBRANCH  37  39
ENDBRANCH  36  37
ENDBRANCH  35  36
ENDBRANCH  34  35
ENDBRANCH  33  34
ENDBRANCH  32  33
ENDBRANCH  31  32
ENDBRANCH  30  31
ENDBRANCH  29  30
ENDBRANCH  28  29
ENDBRANCH  27  28
ENDBRANCH  26  27
ENDBRANCH  25  26
ENDBRANCH  24  25
ENDBRANCH  23  24
ENDBRANCH  22  23
ENDBRANCH   1  22
TORSDOF 34
ENDMDL
