MODEL 1
REMARK VINA RESULT:      -4.5      0.000      0.000
REMARK  Name = Disulfiram
REMARK  13 active torsions:
REMARK  status: ('A' for Active; 'I' for Inactive)
REMARK    1  A    between atoms: C_1  and  C_2
REMARK    2  A    between atoms: C_2  and  N_3
REMARK    3  A    between atoms: N_3  and  C_4
REMARK    4  A    between atoms: N_3  and  C_6
REMARK    5  A    between atoms: C_4  and  C_5
REMARK    6  A    between atoms: C_6  and  S_8
REMARK    7  A    between atoms: S_8  and  S_9
REMARK    8  A    between atoms: S_9  and  C_10
REMARK    9  A    between atoms: C_10  and  N_12
REMARK   10  A    between atoms: N_12  and  C_13
REMARK   11  A    between atoms: N_12  and  C_15
REMARK   12  A    between atoms: C_13  and  C_14
REMARK   13  A    between atoms: C_15  and  C_16
REMARK                            x       y       z     vdW  Elec       q    Type
REMARK                         _______ _______ _______ _____ _____    ______ ____
ROOT
ATOM      1  S   UNL     1      -5.653  -0.599 125.569  0.00  0.00    +0.000 S 
ENDROOT
BRANCH   1   2
ATOM      2  C   UNL     1      -6.831  -1.980 125.776  0.00  0.00    +0.000 C 
ATOM      3  S   UNL     1      -7.771  -2.149 127.184  0.00  0.00    +0.000 S 
BRANCH   2   4
ATOM      4  N   UNL     1      -6.910  -2.911 124.672  0.00  0.00    +0.000 N 
BRANCH   4   6
ATOM      5  C   UNL     1      -4.634  -3.993 123.857  0.00  0.00    +0.000 C 
ATOM      6  C   UNL     1      -5.754  -2.979 123.729  0.00  0.00    +0.000 C 
ENDBRANCH   4   6
BRANCH   4   7
ATOM      7  C   UNL     1      -8.127  -3.744 124.537  0.00  0.00    +0.000 C 
ATOM      8  C   UNL     1      -9.347  -3.304 123.761  0.00  0.00    +0.000 C 
ENDBRANCH   4   7
ENDBRANCH   2   4
ENDBRANCH   1   2
BRANCH   1   9
ATOM      9  S   UNL     1      -6.748   1.128 125.736  0.00  0.00    +0.000 S 
BRANCH   9  10
ATOM     10  C   UNL     1      -5.941   2.579 125.123  0.00  0.00    +0.000 C 
ATOM     11  S   UNL     1      -4.848   3.429 126.101  0.00  0.00    +0.000 S 
BRANCH  10  12
ATOM     12  N   UNL     1      -6.266   2.981 123.774  0.00  0.00    +0.000 N 
BRANCH  12  13
ATOM     13  C   UNL     1      -5.732   4.137 122.996  0.00  0.00    +0.000 C 
ATOM     14  C   UNL     1      -5.397   4.076 121.520  0.00  0.00    +0.000 C 
ENDBRANCH  12  13
BRANCH  12  15
ATOM     15  C   UNL     1      -7.265   2.162 123.020  0.00  0.00    +0.000 C 
ATOM     16  C   UNL     1      -8.692   2.705 122.869  0.00  0.00    +0.000 C 
ENDBRANCH  12  15
ENDBRANCH  10  12
ENDBRANCH   9  10
ENDBRANCH   1   9
TORSDOF 9
ENDMDL
MODEL 2
REMARK VINA RESULT:      -4.4      3.219      5.339
REMARK  Name = Disulfiram
REMARK  13 active torsions:
REMARK  status: ('A' for Active; 'I' for Inactive)
REMARK    1  A    between atoms: C_1  and  C_2
REMARK    2  A    between atoms: C_2  and  N_3
REMARK    3  A    between atoms: N_3  and  C_4
REMARK    4  A    between atoms: N_3  and  C_6
REMARK    5  A    between atoms: C_4  and  C_5
REMARK    6  A    between atoms: C_6  and  S_8
REMARK    7  A    between atoms: S_8  and  S_9
REMARK    8  A    between atoms: S_9  and  C_10
REMARK    9  A    between atoms: C_10  and  N_12
REMARK   10  A    between atoms: N_12  and  C_13
REMARK   11  A    between atoms: N_12  and  C_15
REMARK   12  A    between atoms: C_13  and  C_14
REMARK   13  A    between atoms: C_15  and  C_16
REMARK                            x       y       z     vdW  Elec       q    Type
REMARK                         _______ _______ _______ _____ _____    ______ ____
ROOT
ATOM      1  S   UNL     1      -5.627  -1.411 127.202  0.00  0.00    +0.000 S 
ENDROOT
BRANCH   1   2
ATOM      2  C   UNL     1      -6.083  -1.552 128.964  0.00  0.00    +0.000 C 
ATOM      3  S   UNL     1      -6.073  -0.203 130.001  0.00  0.00    +0.000 S 
BRANCH   2   4
ATOM      4  N   UNL     1      -6.450  -2.877 129.416  0.00  0.00    +0.000 N 
BRANCH   4   6
ATOM      5  C   UNL     1      -5.558  -4.900 130.874  0.00  0.00    +0.000 C 
ATOM      6  C   UNL     1      -5.358  -3.795 129.854  0.00  0.00    +0.000 C 
ENDBRANCH   4   6
BRANCH   4   7
ATOM      7  C   UNL     1      -7.883  -3.249 129.418  0.00  0.00    +0.000 C 
ATOM      8  C   UNL     1      -8.616  -3.722 128.184  0.00  0.00    +0.000 C 
ENDBRANCH   4   7
ENDBRANCH   2   4
ENDBRANCH   1   2
BRANCH   1   9
ATOM      9  S   UNL     1      -7.243  -0.580 126.249  0.00  0.00    +0.000 S 
BRANCH   9  10
ATOM     10  C   UNL     1      -7.211  -0.710 124.484  0.00  0.00    +0.000 C 
ATOM     11  S   UNL     1      -7.316   0.681 123.520  0.00  0.00    +0.000 S 
BRANCH  10  12
ATOM     12  N   UNL     1      -7.092  -2.041 123.934  0.00  0.00    +0.000 N 
BRANCH  12  13
ATOM     13  C   UNL     1      -7.978  -3.220 124.160  0.00  0.00    +0.000 C 
ATOM     14  C   UNL     1      -9.405  -3.309 123.661  0.00  0.00    +0.000 C 
ENDBRANCH  12  13
BRANCH  12  15
ATOM     15  C   UNL     1      -5.947  -2.319 123.013  0.00  0.00    +0.000 C 
ATOM     16  C   UNL     1      -4.827  -3.248 123.499  0.00  0.00    +0.000 C 
ENDBRANCH  12  15
ENDBRANCH  10  12
ENDBRANCH   9  10
ENDBRANCH   1   9
TORSDOF 9
ENDMDL
MODEL 3
REMARK VINA RESULT:      -4.4      3.145      5.956
REMARK  Name = Disulfiram
REMARK  13 active torsions:
REMARK  status: ('A' for Active; 'I' for Inactive)
REMARK    1  A    between atoms: C_1  and  C_2
REMARK    2  A    between atoms: C_2  and  N_3
REMARK    3  A    between atoms: N_3  and  C_4
REMARK    4  A    between atoms: N_3  and  C_6
REMARK    5  A    between atoms: C_4  and  C_5
REMARK    6  A    between atoms: C_6  and  S_8
REMARK    7  A    between atoms: S_8  and  S_9
REMARK    8  A    between atoms: S_9  and  C_10
REMARK    9  A    between atoms: C_10  and  N_12
REMARK   10  A    between atoms: N_12  and  C_13
REMARK   11  A    between atoms: N_12  and  C_15
REMARK   12  A    between atoms: C_13  and  C_14
REMARK   13  A    between atoms: C_15  and  C_16
REMARK                            x       y       z     vdW  Elec       q    Type
REMARK                         _______ _______ _______ _____ _____    ______ ____
ROOT
ATOM      1  S   UNL     1      -5.734  -0.381 125.831  0.00  0.00    +0.000 S 
ENDROOT
BRANCH   1   2
ATOM      2  C   UNL     1      -6.812  -0.771 124.409  0.00  0.00    +0.000 C 
ATOM      3  S   UNL     1      -7.790   0.413 123.678  0.00  0.00    +0.000 S 
BRANCH   2   4
ATOM      4  N   UNL     1      -6.779  -2.144 123.952  0.00  0.00    +0.000 N 
BRANCH   4   6
ATOM      5  C   UNL     1      -4.702  -3.759 123.651  0.00  0.00    +0.000 C 
ATOM      6  C   UNL     1      -5.573  -2.603 123.200  0.00  0.00    +0.000 C 
ENDBRANCH   4   6
BRANCH   4   7
ATOM      7  C   UNL     1      -7.937  -3.015 124.253  0.00  0.00    +0.000 C 
ATOM      8  C   UNL     1      -9.189  -3.048 123.406  0.00  0.00    +0.000 C 
ENDBRANCH   4   7
ENDBRANCH   2   4
ENDBRANCH   1   2
BRANCH   1   9
ATOM      9  S   UNL     1      -5.620  -2.092 126.959  0.00  0.00    +0.000 S 
BRANCH   9  10
ATOM     10  C   UNL     1      -6.061  -1.888 128.661  0.00  0.00    +0.000 C 
ATOM     11  S   UNL     1      -5.599  -0.492 129.505  0.00  0.00    +0.000 S 
BRANCH  10  12
ATOM     12  N   UNL     1      -6.819  -2.959 129.267  0.00  0.00    +0.000 N 
BRANCH  12  13
ATOM     13  C   UNL     1      -6.325  -4.072 130.129  0.00  0.00    +0.000 C 
ATOM     14  C   UNL     1      -4.910  -4.159 130.663  0.00  0.00    +0.000 C 
ENDBRANCH  12  13
BRANCH  12  15
ATOM     15  C   UNL     1      -8.295  -2.998 129.025  0.00  0.00    +0.000 C 
ATOM     16  C   UNL     1      -8.833  -3.937 127.938  0.00  0.00    +0.000 C 
ENDBRANCH  12  15
ENDBRANCH  10  12
ENDBRANCH   9  10
ENDBRANCH   1   9
TORSDOF 9
ENDMDL
MODEL 4
REMARK VINA RESULT:      -4.4      3.810      5.584
REMARK  Name = Disulfiram
REMARK  13 active torsions:
REMARK  status: ('A' for Active; 'I' for Inactive)
REMARK    1  A    between atoms: C_1  and  C_2
REMARK    2  A    between atoms: C_2  and  N_3
REMARK    3  A    between atoms: N_3  and  C_4
REMARK    4  A    between atoms: N_3  and  C_6
REMARK    5  A    between atoms: C_4  and  C_5
REMARK    6  A    between atoms: C_6  and  S_8
REMARK    7  A    between atoms: S_8  and  S_9
REMARK    8  A    between atoms: S_9  and  C_10
REMARK    9  A    between atoms: C_10  and  N_12
REMARK   10  A    between atoms: N_12  and  C_13
REMARK   11  A    between atoms: N_12  and  C_15
REMARK   12  A    between atoms: C_13  and  C_14
REMARK   13  A    between atoms: C_15  and  C_16
REMARK                            x       y       z     vdW  Elec       q    Type
REMARK                         _______ _______ _______ _____ _____    ______ ____
ROOT
ATOM      1  S   UNL     1      -5.894  -0.467 128.545  0.00  0.00    +0.000 S 
ENDROOT
BRANCH   1   2
ATOM      2  C   UNL     1      -5.851  -1.534 130.027  0.00  0.00    +0.000 C 
ATOM      3  S   UNL     1      -5.098  -1.033 131.467  0.00  0.00    +0.000 S 
BRANCH   2   4
ATOM      4  N   UNL     1      -6.496  -2.823 129.893  0.00  0.00    +0.000 N 
BRANCH   4   6
ATOM      5  C   UNL     1      -5.551  -4.925 131.198  0.00  0.00    +0.000 C 
ATOM      6  C   UNL     1      -5.641  -4.044 129.966  0.00  0.00    +0.000 C 
ENDBRANCH   4   6
BRANCH   4   7
ATOM      7  C   UNL     1      -7.962  -2.860 129.691  0.00  0.00    +0.000 C 
ATOM      8  C   UNL     1      -8.623  -3.635 128.574  0.00  0.00    +0.000 C 
ENDBRANCH   4   7
ENDBRANCH   2   4
ENDBRANCH   1   2
BRANCH   1   9
ATOM      9  S   UNL     1      -5.734  -1.716 126.925  0.00  0.00    +0.000 S 
BRANCH   9  10
ATOM     10  C   UNL     1      -7.107  -1.661 125.809  0.00  0.00    +0.000 C 
ATOM     11  S   UNL     1      -8.414  -0.624 126.108  0.00  0.00    +0.000 S 
BRANCH  10  12
ATOM     12  N   UNL     1      -7.043  -2.535 124.660  0.00  0.00    +0.000 N 
BRANCH  12  13
ATOM     13  C   UNL     1      -6.049  -2.532 123.547  0.00  0.00    +0.000 C 
ATOM     14  C   UNL     1      -4.812  -3.406 123.522  0.00  0.00    +0.000 C 
ENDBRANCH  12  13
BRANCH  12  15
ATOM     15  C   UNL     1      -8.091  -3.594 124.525  0.00  0.00    +0.000 C 
ATOM     16  C   UNL     1      -9.317  -3.303 123.651  0.00  0.00    +0.000 C 
ENDBRANCH  12  15
ENDBRANCH  10  12
ENDBRANCH   9  10
ENDBRANCH   1   9
TORSDOF 9
ENDMDL
MODEL 5
REMARK VINA RESULT:      -4.4      3.032      5.219
REMARK  Name = Disulfiram
REMARK  13 active torsions:
REMARK  status: ('A' for Active; 'I' for Inactive)
REMARK    1  A    between atoms: C_1  and  C_2
REMARK    2  A    between atoms: C_2  and  N_3
REMARK    3  A    between atoms: N_3  and  C_4
REMARK    4  A    between atoms: N_3  and  C_6
REMARK    5  A    between atoms: C_4  and  C_5
REMARK    6  A    between atoms: C_6  and  S_8
REMARK    7  A    between atoms: S_8  and  S_9
REMARK    8  A    between atoms: S_9  and  C_10
REMARK    9  A    between atoms: C_10  and  N_12
REMARK   10  A    between atoms: N_12  and  C_13
REMARK   11  A    between atoms: N_12  and  C_15
REMARK   12  A    between atoms: C_13  and  C_14
REMARK   13  A    between atoms: C_15  and  C_16
REMARK                            x       y       z     vdW  Elec       q    Type
REMARK                         _______ _______ _______ _____ _____    ______ ____
ROOT
ATOM      1  S   UNL     1      -6.544  -0.400 127.493  0.00  0.00    +0.000 S 
ENDROOT
BRANCH   1   2
ATOM      2  C   UNL     1      -7.182  -1.085 129.061  0.00  0.00    +0.000 C 
ATOM      3  S   UNL     1      -7.753  -0.079 130.309  0.00  0.00    +0.000 S 
BRANCH   2   4
ATOM      4  N   UNL     1      -7.169  -2.528 129.169  0.00  0.00    +0.000 N 
BRANCH   4   6
ATOM      5  C   UNL     1      -8.914  -3.973 127.799  0.00  0.00    +0.000 C 
ATOM      6  C   UNL     1      -8.469  -3.251 129.056  0.00  0.00    +0.000 C 
ENDBRANCH   4   6
BRANCH   4   7
ATOM      7  C   UNL     1      -5.870  -3.206 129.385  0.00  0.00    +0.000 C 
ATOM      8  C   UNL     1      -5.616  -4.158 130.530  0.00  0.00    +0.000 C 
ENDBRANCH   4   7
ENDBRANCH   2   4
ENDBRANCH   1   2
BRANCH   1   9
ATOM      9  S   UNL     1      -8.039  -0.633 126.107  0.00  0.00    +0.000 S 
BRANCH   9  10
ATOM     10  C   UNL     1      -7.587  -0.206 124.450  0.00  0.00    +0.000 C 
ATOM     11  S   UNL     1      -7.031   1.355 124.089  0.00  0.00    +0.000 S 
BRANCH  10  12
ATOM     12  N   UNL     1      -7.719  -1.244 123.453  0.00  0.00    +0.000 N 
BRANCH  12  13
ATOM     13  C   UNL     1      -8.951  -1.972 123.031  0.00  0.00    +0.000 C 
ATOM     14  C   UNL     1      -9.390  -3.297 123.622  0.00  0.00    +0.000 C 
ENDBRANCH  12  13
BRANCH  12  15
ATOM     15  C   UNL     1      -6.487  -1.677 122.725  0.00  0.00    +0.000 C 
ATOM     16  C   UNL     1      -5.555  -2.690 123.403  0.00  0.00    +0.000 C 
ENDBRANCH  12  15
ENDBRANCH  10  12
ENDBRANCH   9  10
ENDBRANCH   1   9
TORSDOF 9
ENDMDL
MODEL 6
REMARK VINA RESULT:      -4.4      0.658      2.521
REMARK  Name = Disulfiram
REMARK  13 active torsions:
REMARK  status: ('A' for Active; 'I' for Inactive)
REMARK    1  A    between atoms: C_1  and  C_2
REMARK    2  A    between atoms: C_2  and  N_3
REMARK    3  A    between atoms: N_3  and  C_4
REMARK    4  A    between atoms: N_3  and  C_6
REMARK    5  A    between atoms: C_4  and  C_5
REMARK    6  A    between atoms: C_6  and  S_8
REMARK    7  A    between atoms: S_8  and  S_9
REMARK    8  A    between atoms: S_9  and  C_10
REMARK    9  A    between atoms: C_10  and  N_12
REMARK   10  A    between atoms: N_12  and  C_13
REMARK   11  A    between atoms: N_12  and  C_15
REMARK   12  A    between atoms: C_13  and  C_14
REMARK   13  A    between atoms: C_15  and  C_16
REMARK                            x       y       z     vdW  Elec       q    Type
REMARK                         _______ _______ _______ _____ _____    ______ ____
ROOT
ATOM      1  S   UNL     1      -5.926  -0.284 126.149  0.00  0.00    +0.000 S 
ENDROOT
BRANCH   1   2
ATOM      2  C   UNL     1      -7.058  -1.680 125.824  0.00  0.00    +0.000 C 
ATOM      3  S   UNL     1      -7.826  -2.520 127.088  0.00  0.00    +0.000 S 
BRANCH   2   4
ATOM      4  N   UNL     1      -7.255  -2.020 124.431  0.00  0.00    +0.000 N 
BRANCH   4   6
ATOM      5  C   UNL     1      -9.408  -3.188 123.424  0.00  0.00    +0.000 C 
ATOM      6  C   UNL     1      -8.644  -1.963 123.886  0.00  0.00    +0.000 C 
ENDBRANCH   4   6
BRANCH   4   7
ATOM      7  C   UNL     1      -6.074  -2.403 123.626  0.00  0.00    +0.000 C 
ATOM      8  C   UNL     1      -5.087  -3.463 124.060  0.00  0.00    +0.000 C 
ENDBRANCH   4   7
ENDBRANCH   2   4
ENDBRANCH   1   2
BRANCH   1   9
ATOM      9  S   UNL     1      -6.968   1.426 125.697  0.00  0.00    +0.000 S 
BRANCH   9  10
ATOM     10  C   UNL     1      -5.983   2.745 125.049  0.00  0.00    +0.000 C 
ATOM     11  S   UNL     1      -4.829   3.512 126.026  0.00  0.00    +0.000 S 
BRANCH  10  12
ATOM     12  N   UNL     1      -6.220   3.116 123.673  0.00  0.00    +0.000 N 
BRANCH  12  13
ATOM     13  C   UNL     1      -7.161   2.496 122.694  0.00  0.00    +0.000 C 
ATOM     14  C   UNL     1      -8.594   2.947 122.502  0.00  0.00    +0.000 C 
ENDBRANCH  12  13
BRANCH  12  15
ATOM     15  C   UNL     1      -5.444   4.266 123.113  0.00  0.00    +0.000 C 
ATOM     16  C   UNL     1      -5.178   4.301 121.602  0.00  0.00    +0.000 C 
ENDBRANCH  12  15
ENDBRANCH  10  12
ENDBRANCH   9  10
ENDBRANCH   1   9
TORSDOF 9
ENDMDL
MODEL 7
REMARK VINA RESULT:      -4.4      1.391      2.759
REMARK  Name = Disulfiram
REMARK  13 active torsions:
REMARK  status: ('A' for Active; 'I' for Inactive)
REMARK    1  A    between atoms: C_1  and  C_2
REMARK    2  A    between atoms: C_2  and  N_3
REMARK    3  A    between atoms: N_3  and  C_4
REMARK    4  A    between atoms: N_3  and  C_6
REMARK    5  A    between atoms: C_4  and  C_5
REMARK    6  A    between atoms: C_6  and  S_8
REMARK    7  A    between atoms: S_8  and  S_9
REMARK    8  A    between atoms: S_9  and  C_10
REMARK    9  A    between atoms: C_10  and  N_12
REMARK   10  A    between atoms: N_12  and  C_13
REMARK   11  A    between atoms: N_12  and  C_15
REMARK   12  A    between atoms: C_13  and  C_14
REMARK   13  A    between atoms: C_15  and  C_16
REMARK                            x       y       z     vdW  Elec       q    Type
REMARK                         _______ _______ _______ _____ _____    ______ ____
ROOT
ATOM      1  S   UNL     1      -6.601  -0.115 125.704  0.00  0.00    +0.000 S 
ENDROOT
BRANCH   1   2
ATOM      2  C   UNL     1      -7.112  -1.843 126.003  0.00  0.00    +0.000 C 
ATOM      3  S   UNL     1      -7.951  -2.296 127.412  0.00  0.00    +0.000 S 
BRANCH   2   4
ATOM      4  N   UNL     1      -6.757  -2.793 124.970  0.00  0.00    +0.000 N 
BRANCH   4   6
ATOM      5  C   UNL     1      -8.909  -3.082 123.455  0.00  0.00    +0.000 C 
ATOM      6  C   UNL     1      -7.845  -3.631 124.385  0.00  0.00    +0.000 C 
ENDBRANCH   4   6
BRANCH   4   7
ATOM      7  C   UNL     1      -5.340  -2.880 124.551  0.00  0.00    +0.000 C 
ATOM      8  C   UNL     1      -4.797  -4.007 123.702  0.00  0.00    +0.000 C 
ENDBRANCH   4   7
ENDBRANCH   2   4
ENDBRANCH   1   2
BRANCH   1   9
ATOM      9  S   UNL     1      -7.033   0.285 123.738  0.00  0.00    +0.000 S 
BRANCH   9  10
ATOM     10  C   UNL     1      -7.603   1.932 123.425  0.00  0.00    +0.000 C 
ATOM     11  S   UNL     1      -9.228   2.217 123.041  0.00  0.00    +0.000 S 
BRANCH  10  12
ATOM     12  N   UNL     1      -6.619   2.986 123.516  0.00  0.00    +0.000 N 
BRANCH  12  13
ATOM     13  C   UNL     1      -5.883   3.666 122.410  0.00  0.00    +0.000 C 
ATOM     14  C   UNL     1      -5.773   3.109 121.005  0.00  0.00    +0.000 C 
ENDBRANCH  12  13
BRANCH  12  15
ATOM     15  C   UNL     1      -6.258   3.494 124.876  0.00  0.00    +0.000 C 
ATOM     16  C   UNL     1      -6.106   5.008 125.074  0.00  0.00    +0.000 C 
ENDBRANCH  12  15
ENDBRANCH  10  12
ENDBRANCH   9  10
ENDBRANCH   1   9
TORSDOF 9
ENDMDL
MODEL 8
REMARK VINA RESULT:      -4.3      1.568      2.448
REMARK  Name = Disulfiram
REMARK  13 active torsions:
REMARK  status: ('A' for Active; 'I' for Inactive)
REMARK    1  A    between atoms: C_1  and  C_2
REMARK    2  A    between atoms: C_2  and  N_3
REMARK    3  A    between atoms: N_3  and  C_4
REMARK    4  A    between atoms: N_3  and  C_6
REMARK    5  A    between atoms: C_4  and  C_5
REMARK    6  A    between atoms: C_6  and  S_8
REMARK    7  A    between atoms: S_8  and  S_9
REMARK    8  A    between atoms: S_9  and  C_10
REMARK    9  A    between atoms: C_10  and  N_12
REMARK   10  A    between atoms: N_12  and  C_13
REMARK   11  A    between atoms: N_12  and  C_15
REMARK   12  A    between atoms: C_13  and  C_14
REMARK   13  A    between atoms: C_15  and  C_16
REMARK                            x       y       z     vdW  Elec       q    Type
REMARK                         _______ _______ _______ _____ _____    ______ ____
ROOT
ATOM      1  S   UNL     1      -6.239   0.157 125.591  0.00  0.00    +0.000 S 
ENDROOT
BRANCH   1   2
ATOM      2  C   UNL     1      -7.111  -1.442 125.461  0.00  0.00    +0.000 C 
ATOM      3  S   UNL     1      -7.770  -2.214 126.826  0.00  0.00    +0.000 S 
BRANCH   2   4
ATOM      4  N   UNL     1      -7.203  -2.003 124.130  0.00  0.00    +0.000 N 
BRANCH   4   6
ATOM      5  C   UNL     1      -5.047  -3.539 124.061  0.00  0.00    +0.000 C 
ATOM      6  C   UNL     1      -5.943  -2.465 123.476  0.00  0.00    +0.000 C 
ENDBRANCH   4   6
BRANCH   4   7
ATOM      7  C   UNL     1      -8.535  -2.087 123.491  0.00  0.00    +0.000 C 
ATOM      8  C   UNL     1      -9.422  -3.307 123.588  0.00  0.00    +0.000 C 
ENDBRANCH   4   7
ENDBRANCH   2   4
ENDBRANCH   1   2
BRANCH   1   9
ATOM      9  S   UNL     1      -7.558   1.470 126.455  0.00  0.00    +0.000 S 
BRANCH   9  10
ATOM     10  C   UNL     1      -8.089   2.789 125.400  0.00  0.00    +0.000 C 
ATOM     11  S   UNL     1      -7.838   4.403 125.854  0.00  0.00    +0.000 S 
BRANCH  10  12
ATOM     12  N   UNL     1      -8.732   2.411 124.162  0.00  0.00    +0.000 N 
BRANCH  12  13
ATOM     13  C   UNL     1      -9.892   1.494 123.963  0.00  0.00    +0.000 C 
ATOM     14  C   UNL     1     -10.273   0.897 122.623  0.00  0.00    +0.000 C 
ENDBRANCH  12  13
BRANCH  12  15
ATOM     15  C   UNL     1      -8.199   2.989 122.890  0.00  0.00    +0.000 C 
ATOM     16  C   UNL     1      -6.751   2.670 122.493  0.00  0.00    +0.000 C 
ENDBRANCH  12  15
ENDBRANCH  10  12
ENDBRANCH   9  10
ENDBRANCH   1   9
TORSDOF 9
ENDMDL
MODEL 9
REMARK VINA RESULT:      -4.3      1.614      6.139
REMARK  Name = Disulfiram
REMARK  13 active torsions:
REMARK  status: ('A' for Active; 'I' for Inactive)
REMARK    1  A    between atoms: C_1  and  C_2
REMARK    2  A    between atoms: C_2  and  N_3
REMARK    3  A    between atoms: N_3  and  C_4
REMARK    4  A    between atoms: N_3  and  C_6
REMARK    5  A    between atoms: C_4  and  C_5
REMARK    6  A    between atoms: C_6  and  S_8
REMARK    7  A    between atoms: S_8  and  S_9
REMARK    8  A    between atoms: S_9  and  C_10
REMARK    9  A    between atoms: C_10  and  N_12
REMARK   10  A    between atoms: N_12  and  C_13
REMARK   11  A    between atoms: N_12  and  C_15
REMARK   12  A    between atoms: C_13  and  C_14
REMARK   13  A    between atoms: C_15  and  C_16
REMARK                            x       y       z     vdW  Elec       q    Type
REMARK                         _______ _______ _______ _____ _____    ______ ____
ROOT
ATOM      1  S   UNL     1      -7.916   1.772 125.690  0.00  0.00    +0.000 S 
ENDROOT
BRANCH   1   2
ATOM      2  C   UNL     1      -7.997   2.371 123.967  0.00  0.00    +0.000 C 
ATOM      3  S   UNL     1      -9.274   1.939 122.930  0.00  0.00    +0.000 S 
BRANCH   2   4
ATOM      4  N   UNL     1      -6.910   3.230 123.548  0.00  0.00    +0.000 N 
BRANCH   4   6
ATOM      5  C   UNL     1      -4.989   4.020 125.190  0.00  0.00    +0.000 C 
ATOM      6  C   UNL     1      -6.351   4.189 124.545  0.00  0.00    +0.000 C 
ENDBRANCH   4   6
BRANCH   4   7
ATOM      7  C   UNL     1      -6.415   3.111 122.158  0.00  0.00    +0.000 C 
ATOM      8  C   UNL     1      -5.465   4.106 121.531  0.00  0.00    +0.000 C 
ENDBRANCH   4   7
ENDBRANCH   2   4
ENDBRANCH   1   2
BRANCH   1   9
ATOM      9  S   UNL     1      -8.945  -0.003 125.737  0.00  0.00    +0.000 S 
BRANCH   9  10
ATOM     10  C   UNL     1      -7.930  -1.444 125.907  0.00  0.00    +0.000 C 
ATOM     11  S   UNL     1      -7.828  -2.248 127.396  0.00  0.00    +0.000 S 
BRANCH  10  12
ATOM     12  N   UNL     1      -7.214  -1.876 124.729  0.00  0.00    +0.000 N 
BRANCH  12  13
ATOM     13  C   UNL     1      -5.776  -2.253 124.604  0.00  0.00    +0.000 C 
ATOM     14  C   UNL     1      -5.207  -3.028 123.433  0.00  0.00    +0.000 C 
ENDBRANCH  12  13
BRANCH  12  15
ATOM     15  C   UNL     1      -7.973  -1.971 123.443  0.00  0.00    +0.000 C 
ATOM     16  C   UNL     1      -9.079  -3.027 123.324  0.00  0.00    +0.000 C 
ENDBRANCH  12  15
ENDBRANCH  10  12
ENDBRANCH   9  10
ENDBRANCH   1   9
TORSDOF 9
ENDMDL
