MODEL 1
REMARK VINA RESULT:      -7.1      0.000      0.000
REMARK  Name = DL-alpha-Tocopherol
REMARK  21 active torsions:
REMARK  status: ('A' for Active; 'I' for Inactive)
REMARK    1  A    between atoms: C_1  and  C_2
REMARK    2  A    between atoms: C_2  and  C_3
REMARK    3  A    between atoms: C_2  and  C_4
REMARK    4  A    between atoms: C_4  and  C_5
REMARK    5  A    between atoms: C_5  and  C_6
REMARK    6  A    between atoms: C_6  and  C_7
REMARK    7  A    between atoms: C_7  and  C_8
REMARK    8  A    between atoms: C_7  and  C_9
REMARK    9  A    between atoms: C_9  and  C_10
REMARK   10  A    between atoms: C_10  and  C_11
REMARK   11  A    between atoms: C_11  and  C_12
REMARK   12  A    between atoms: C_12  and  C_13
REMARK   13  A    between atoms: C_12  and  C_14
REMARK   14  A    between atoms: C_14  and  C_15
REMARK   15  A    between atoms: C_15  and  C_16
REMARK   16  A    between atoms: C_16  and  C_17
REMARK   17  A    between atoms: C_17  and  C_18
REMARK   18  A    between atoms: C_22  and  C_23
REMARK   19  A    between atoms: C_24  and  O_25
REMARK   20  A    between atoms: C_26  and  C_27
REMARK   21  A    between atoms: C_28  and  C_29
REMARK                            x       y       z     vdW  Elec       q    Type
REMARK                         _______ _______ _______ _____ _____    ______ ____
ROOT
ATOM      1  C   UNL     1      -6.391  -0.986 130.548  0.00  0.00    +0.000 C 
ENDROOT
BRANCH   1   2
ATOM      2  C   UNL     1      -7.490   0.055 130.911  0.00  0.00    +0.000 C 
ATOM      3  C   UNL     1      -8.715  -0.692 131.491  0.00  0.00    +0.000 C 
ATOM      4  C   UNL     1      -7.794   0.870 129.651  0.00  0.00    +0.000 C 
ATOM      5  C   UNL     1      -8.936   1.802 129.925  0.00  0.00    +0.000 C 
ATOM      6  C   UNL     1      -8.730   2.537 131.217  0.00  0.00    +0.000 A 
ATOM      7  C   UNL     1      -9.558   3.640 131.511  0.00  0.00    +0.000 A 
ATOM      8  C   UNL     1     -10.647   4.067 130.562  0.00  0.00    +0.000 C 
ATOM      9  C   UNL     1      -9.345   4.324 132.716  0.00  0.00    +0.000 A 
ATOM     10  C   UNL     1      -8.354   3.938 133.631  0.00  0.00    +0.000 A 
ATOM     11  C   UNL     1      -8.174   4.721 134.911  0.00  0.00    +0.000 C 
ATOM     12  C   UNL     1      -7.543   2.808 133.346  0.00  0.00    +0.000 A 
ATOM     13  C   UNL     1      -6.469   2.352 134.302  0.00  0.00    +0.000 C 
ATOM     14  C   UNL     1      -7.758   2.098 132.144  0.00  0.00    +0.000 A 
ATOM     15  O   UNL     1      -6.987   0.961 131.927  0.00  0.00    +0.000 OA
BRANCH   9  16
ATOM     16  O   UNL     1     -10.115   5.416 133.041  0.00  0.00    +0.000 OA
ATOM     17  H   UNL     1      -9.716   6.221 132.695  0.00  0.00    +0.000 HD
ENDBRANCH   9  16
ENDBRANCH   1   2
BRANCH   1  18
ATOM     18  C   UNL     1      -6.947  -2.410 130.611  0.00  0.00    +0.000 C 
BRANCH  18  19
ATOM     19  C   UNL     1      -6.900  -3.177 129.310  0.00  0.00    +0.000 C 
BRANCH  19  20
ATOM     20  C   UNL     1      -8.075  -2.750 128.413  0.00  0.00    +0.000 C 
ATOM     21  C   UNL     1      -8.918  -3.955 127.947  0.00  0.00    +0.000 C 
BRANCH  20  22
ATOM     22  C   UNL     1      -7.499  -1.965 127.232  0.00  0.00    +0.000 C 
BRANCH  22  23
ATOM     23  C   UNL     1      -8.614  -1.417 126.372  0.00  0.00    +0.000 C 
BRANCH  23  24
ATOM     24  C   UNL     1      -8.265  -0.064 125.793  0.00  0.00    +0.000 C 
BRANCH  24  25
ATOM     25  C   UNL     1      -6.871  -0.108 125.162  0.00  0.00    +0.000 C 
ATOM     26  C   UNL     1      -6.015   1.104 125.580  0.00  0.00    +0.000 C 
BRANCH  25  27
ATOM     27  C   UNL     1      -7.043  -0.185 123.642  0.00  0.00    +0.000 C 
BRANCH  27  28
ATOM     28  C   UNL     1      -6.843  -1.608 123.163  0.00  0.00    +0.000 C 
BRANCH  28  29
ATOM     29  C   UNL     1      -5.466  -2.139 123.506  0.00  0.00    +0.000 C 
BRANCH  29  31
ATOM     30  C   UNL     1      -7.021  -3.921 124.291  0.00  0.00    +0.000 C 
ATOM     31  C   UNL     1      -5.572  -3.451 124.297  0.00  0.00    +0.000 C 
ATOM     32  C   UNL     1      -4.667  -4.550 123.730  0.00  0.00    +0.000 C 
ENDBRANCH  29  31
ENDBRANCH  28  29
ENDBRANCH  27  28
ENDBRANCH  25  27
ENDBRANCH  24  25
ENDBRANCH  23  24
ENDBRANCH  22  23
ENDBRANCH  20  22
ENDBRANCH  19  20
ENDBRANCH  18  19
ENDBRANCH   1  18
TORSDOF 13
ENDMDL
MODEL 2
REMARK VINA RESULT:      -7.1      1.735      3.427
REMARK  Name = DL-alpha-Tocopherol
REMARK  21 active torsions:
REMARK  status: ('A' for Active; 'I' for Inactive)
REMARK    1  A    between atoms: C_1  and  C_2
REMARK    2  A    between atoms: C_2  and  C_3
REMARK    3  A    between atoms: C_2  and  C_4
REMARK    4  A    between atoms: C_4  and  C_5
REMARK    5  A    between atoms: C_5  and  C_6
REMARK    6  A    between atoms: C_6  and  C_7
REMARK    7  A    between atoms: C_7  and  C_8
REMARK    8  A    between atoms: C_7  and  C_9
REMARK    9  A    between atoms: C_9  and  C_10
REMARK   10  A    between atoms: C_10  and  C_11
REMARK   11  A    between atoms: C_11  and  C_12
REMARK   12  A    between atoms: C_12  and  C_13
REMARK   13  A    between atoms: C_12  and  C_14
REMARK   14  A    between atoms: C_14  and  C_15
REMARK   15  A    between atoms: C_15  and  C_16
REMARK   16  A    between atoms: C_16  and  C_17
REMARK   17  A    between atoms: C_17  and  C_18
REMARK   18  A    between atoms: C_22  and  C_23
REMARK   19  A    between atoms: C_24  and  O_25
REMARK   20  A    between atoms: C_26  and  C_27
REMARK   21  A    between atoms: C_28  and  C_29
REMARK                            x       y       z     vdW  Elec       q    Type
REMARK                         _______ _______ _______ _____ _____    ______ ____
ROOT
ATOM      1  C   UNL     1      -7.702  -3.467 128.970  0.00  0.00    +0.000 C 
ENDROOT
BRANCH   1   2
ATOM      2  C   UNL     1      -7.089  -2.454 129.981  0.00  0.00    +0.000 C 
ATOM      3  C   UNL     1      -5.588  -2.265 129.652  0.00  0.00    +0.000 C 
ATOM      4  C   UNL     1      -7.356  -2.985 131.392  0.00  0.00    +0.000 C 
ATOM      5  C   UNL     1      -6.674  -2.103 132.394  0.00  0.00    +0.000 C 
ATOM      6  C   UNL     1      -6.953  -0.656 132.112  0.00  0.00    +0.000 A 
ATOM      7  C   UNL     1      -6.618   0.305 133.088  0.00  0.00    +0.000 A 
ATOM      8  C   UNL     1      -5.972  -0.102 134.387  0.00  0.00    +0.000 C 
ATOM      9  C   UNL     1      -6.897   1.651 132.816  0.00  0.00    +0.000 A 
ATOM     10  C   UNL     1      -7.478   2.065 131.607  0.00  0.00    +0.000 A 
ATOM     11  C   UNL     1      -7.756   3.532 131.377  0.00  0.00    +0.000 C 
ATOM     12  C   UNL     1      -7.784   1.099 130.613  0.00  0.00    +0.000 A 
ATOM     13  C   UNL     1      -8.404   1.497 129.297  0.00  0.00    +0.000 C 
ATOM     14  C   UNL     1      -7.493  -0.259 130.867  0.00  0.00    +0.000 A 
ATOM     15  O   UNL     1      -7.749  -1.169 129.847  0.00  0.00    +0.000 OA
BRANCH   9  16
ATOM     16  O   UNL     1      -6.606   2.624 133.743  0.00  0.00    +0.000 OA
ATOM     17  H   UNL     1      -5.897   3.190 133.422  0.00  0.00    +0.000 HD
ENDBRANCH   9  16
ENDBRANCH   1   2
BRANCH   1  18
ATOM     18  C   UNL     1      -8.265  -2.741 127.746  0.00  0.00    +0.000 C 
BRANCH  18  19
ATOM     19  C   UNL     1      -8.807  -3.640 126.659  0.00  0.00    +0.000 C 
BRANCH  19  20
ATOM     20  C   UNL     1      -9.499  -2.790 125.579  0.00  0.00    +0.000 C 
ATOM     21  C   UNL     1      -9.150  -3.265 124.154  0.00  0.00    +0.000 C 
BRANCH  20  22
ATOM     22  C   UNL     1      -9.102  -1.331 125.809  0.00  0.00    +0.000 C 
BRANCH  22  23
ATOM     23  C   UNL     1      -8.873  -0.633 124.488  0.00  0.00    +0.000 C 
BRANCH  23  24
ATOM     24  C   UNL     1      -7.523   0.046 124.436  0.00  0.00    +0.000 C 
BRANCH  24  25
ATOM     25  C   UNL     1      -7.069   0.417 125.851  0.00  0.00    +0.000 C 
ATOM     26  C   UNL     1      -6.734   1.917 125.970  0.00  0.00    +0.000 C 
BRANCH  25  27
ATOM     27  C   UNL     1      -5.867  -0.463 126.206  0.00  0.00    +0.000 C 
BRANCH  27  28
ATOM     28  C   UNL     1      -5.435  -1.274 125.002  0.00  0.00    +0.000 C 
BRANCH  28  29
ATOM     29  C   UNL     1      -5.448  -2.764 125.281  0.00  0.00    +0.000 C 
BRANCH  29  31
ATOM     30  C   UNL     1      -5.619  -2.591 122.801  0.00  0.00    +0.000 C 
ATOM     31  C   UNL     1      -5.496  -3.560 123.970  0.00  0.00    +0.000 C 
ATOM     32  C   UNL     1      -4.260  -4.448 123.780  0.00  0.00    +0.000 C 
ENDBRANCH  29  31
ENDBRANCH  28  29
ENDBRANCH  27  28
ENDBRANCH  25  27
ENDBRANCH  24  25
ENDBRANCH  23  24
ENDBRANCH  22  23
ENDBRANCH  20  22
ENDBRANCH  19  20
ENDBRANCH  18  19
ENDBRANCH   1  18
TORSDOF 13
ENDMDL
MODEL 3
REMARK VINA RESULT:      -7.1      3.919      7.940
REMARK  Name = DL-alpha-Tocopherol
REMARK  21 active torsions:
REMARK  status: ('A' for Active; 'I' for Inactive)
REMARK    1  A    between atoms: C_1  and  C_2
REMARK    2  A    between atoms: C_2  and  C_3
REMARK    3  A    between atoms: C_2  and  C_4
REMARK    4  A    between atoms: C_4  and  C_5
REMARK    5  A    between atoms: C_5  and  C_6
REMARK    6  A    between atoms: C_6  and  C_7
REMARK    7  A    between atoms: C_7  and  C_8
REMARK    8  A    between atoms: C_7  and  C_9
REMARK    9  A    between atoms: C_9  and  C_10
REMARK   10  A    between atoms: C_10  and  C_11
REMARK   11  A    between atoms: C_11  and  C_12
REMARK   12  A    between atoms: C_12  and  C_13
REMARK   13  A    between atoms: C_12  and  C_14
REMARK   14  A    between atoms: C_14  and  C_15
REMARK   15  A    between atoms: C_15  and  C_16
REMARK   16  A    between atoms: C_16  and  C_17
REMARK   17  A    between atoms: C_17  and  C_18
REMARK   18  A    between atoms: C_22  and  C_23
REMARK   19  A    between atoms: C_24  and  O_25
REMARK   20  A    between atoms: C_26  and  C_27
REMARK   21  A    between atoms: C_28  and  C_29
REMARK                            x       y       z     vdW  Elec       q    Type
REMARK                         _______ _______ _______ _____ _____    ______ ____
ROOT
ATOM      1  C   UNL     1      -8.967  -2.131 126.372  0.00  0.00    +0.000 C 
ENDROOT
BRANCH   1   2
ATOM      2  C   UNL     1      -8.077  -1.029 125.726  0.00  0.00    +0.000 C 
ATOM      3  C   UNL     1      -6.930  -1.709 124.939  0.00  0.00    +0.000 C 
ATOM      4  C   UNL     1      -7.600  -0.099 126.845  0.00  0.00    +0.000 C 
ATOM      5  C   UNL     1      -6.639   0.905 126.284  0.00  0.00    +0.000 C 
ATOM      6  C   UNL     1      -7.181   1.521 125.027  0.00  0.00    +0.000 A 
ATOM      7  C   UNL     1      -6.547   2.666 124.503  0.00  0.00    +0.000 A 
ATOM      8  C   UNL     1      -5.333   3.255 125.172  0.00  0.00    +0.000 C 
ATOM      9  C   UNL     1      -7.073   3.238 123.336  0.00  0.00    +0.000 A 
ATOM     10  C   UNL     1      -8.189   2.701 122.676  0.00  0.00    +0.000 A 
ATOM     11  C   UNL     1      -8.709   3.368 121.424  0.00  0.00    +0.000 C 
ATOM     12  C   UNL     1      -8.806   1.530 123.190  0.00  0.00    +0.000 A 
ATOM     13  C   UNL     1     -10.004   0.913 122.512  0.00  0.00    +0.000 C 
ATOM     14  C   UNL     1      -8.277   0.932 124.354  0.00  0.00    +0.000 A 
ATOM     15  O   UNL     1      -8.868  -0.248 124.793  0.00  0.00    +0.000 OA
BRANCH   9  16
ATOM     16  O   UNL     1      -6.501   4.365 122.795  0.00  0.00    +0.000 OA
ATOM     17  H   UNL     1      -5.816   4.706 123.379  0.00  0.00    +0.000 HD
ENDBRANCH   9  16
ENDBRANCH   1   2
BRANCH   1  18
ATOM     18  C   UNL     1      -8.109  -3.161 127.111  0.00  0.00    +0.000 C 
BRANCH  18  19
ATOM     19  C   UNL     1      -8.589  -3.521 128.497  0.00  0.00    +0.000 C 
BRANCH  19  20
ATOM     20  C   UNL     1      -7.584  -3.011 129.544  0.00  0.00    +0.000 C 
ATOM     21  C   UNL     1      -8.028  -1.675 130.173  0.00  0.00    +0.000 C 
BRANCH  20  22
ATOM     22  C   UNL     1      -6.218  -2.896 128.863  0.00  0.00    +0.000 C 
BRANCH  22  23
ATOM     23  C   UNL     1      -5.179  -3.678 129.632  0.00  0.00    +0.000 C 
BRANCH  23  24
ATOM     24  C   UNL     1      -5.808  -4.706 130.544  0.00  0.00    +0.000 C 
BRANCH  24  25
ATOM     25  C   UNL     1      -5.121  -4.684 131.913  0.00  0.00    +0.000 C 
ATOM     26  C   UNL     1      -6.064  -4.172 133.019  0.00  0.00    +0.000 C 
BRANCH  25  27
ATOM     27  C   UNL     1      -3.862  -3.820 131.794  0.00  0.00    +0.000 C 
BRANCH  27  28
ATOM     28  C   UNL     1      -3.888  -2.709 132.823  0.00  0.00    +0.000 C 
BRANCH  28  29
ATOM     29  C   UNL     1      -3.119  -1.487 132.364  0.00  0.00    +0.000 C 
BRANCH  29  31
ATOM     30  C   UNL     1      -4.154  -0.238 130.472  0.00  0.00    +0.000 C 
ATOM     31  C   UNL     1      -4.080  -0.350 131.989  0.00  0.00    +0.000 C 
ATOM     32  C   UNL     1      -5.486  -0.562 132.563  0.00  0.00    +0.000 C 
ENDBRANCH  29  31
ENDBRANCH  28  29
ENDBRANCH  27  28
ENDBRANCH  25  27
ENDBRANCH  24  25
ENDBRANCH  23  24
ENDBRANCH  22  23
ENDBRANCH  20  22
ENDBRANCH  19  20
ENDBRANCH  18  19
ENDBRANCH   1  18
TORSDOF 13
ENDMDL
MODEL 4
REMARK VINA RESULT:      -7.0      2.080      3.740
REMARK  Name = DL-alpha-Tocopherol
REMARK  21 active torsions:
REMARK  status: ('A' for Active; 'I' for Inactive)
REMARK    1  A    between atoms: C_1  and  C_2
REMARK    2  A    between atoms: C_2  and  C_3
REMARK    3  A    between atoms: C_2  and  C_4
REMARK    4  A    between atoms: C_4  and  C_5
REMARK    5  A    between atoms: C_5  and  C_6
REMARK    6  A    between atoms: C_6  and  C_7
REMARK    7  A    between atoms: C_7  and  C_8
REMARK    8  A    between atoms: C_7  and  C_9
REMARK    9  A    between atoms: C_9  and  C_10
REMARK   10  A    between atoms: C_10  and  C_11
REMARK   11  A    between atoms: C_11  and  C_12
REMARK   12  A    between atoms: C_12  and  C_13
REMARK   13  A    between atoms: C_12  and  C_14
REMARK   14  A    between atoms: C_14  and  C_15
REMARK   15  A    between atoms: C_15  and  C_16
REMARK   16  A    between atoms: C_16  and  C_17
REMARK   17  A    between atoms: C_17  and  C_18
REMARK   18  A    between atoms: C_22  and  C_23
REMARK   19  A    between atoms: C_24  and  O_25
REMARK   20  A    between atoms: C_26  and  C_27
REMARK   21  A    between atoms: C_28  and  C_29
REMARK                            x       y       z     vdW  Elec       q    Type
REMARK                         _______ _______ _______ _____ _____    ______ ____
ROOT
ATOM      1  C   UNL     1      -4.173  -1.632 132.484  0.00  0.00    +0.000 C 
ENDROOT
BRANCH   1   2
ATOM      2  C   UNL     1      -5.271  -0.549 132.273  0.00  0.00    +0.000 C 
ATOM      3  C   UNL     1      -4.871   0.728 133.053  0.00  0.00    +0.000 C 
ATOM      4  C   UNL     1      -6.610  -1.152 132.707  0.00  0.00    +0.000 C 
ATOM      5  C   UNL     1      -7.676  -0.101 132.637  0.00  0.00    +0.000 C 
ATOM      6  C   UNL     1      -7.616   0.638 131.332  0.00  0.00    +0.000 A 
ATOM      7  C   UNL     1      -8.691   1.476 130.974  0.00  0.00    +0.000 A 
ATOM      8  C   UNL     1      -9.875   1.652 131.890  0.00  0.00    +0.000 C 
ATOM      9  C   UNL     1      -8.627   2.149 129.746  0.00  0.00    +0.000 A 
ATOM     10  C   UNL     1      -7.529   2.024 128.881  0.00  0.00    +0.000 A 
ATOM     11  C   UNL     1      -7.523   2.773 127.569  0.00  0.00    +0.000 C 
ATOM     12  C   UNL     1      -6.434   1.203 129.258  0.00  0.00    +0.000 A 
ATOM     13  C   UNL     1      -5.230   1.043 128.364  0.00  0.00    +0.000 C 
ATOM     14  C   UNL     1      -6.477   0.533 130.500  0.00  0.00    +0.000 A 
ATOM     15  O   UNL     1      -5.360  -0.212 130.864  0.00  0.00    +0.000 OA
BRANCH   9  16
ATOM     16  O   UNL     1      -9.659   2.965 129.344  0.00  0.00    +0.000 OA
ATOM     17  H   UNL     1     -10.031   2.649 128.515  0.00  0.00    +0.000 HD
ENDBRANCH   9  16
ENDBRANCH   1   2
BRANCH   1  18
ATOM     18  C   UNL     1      -3.829  -2.324 131.163  0.00  0.00    +0.000 C 
BRANCH  18  19
ATOM     19  C   UNL     1      -4.378  -3.723 131.009  0.00  0.00    +0.000 C 
BRANCH  19  20
ATOM     20  C   UNL     1      -5.185  -3.823 129.702  0.00  0.00    +0.000 C 
ATOM     21  C   UNL     1      -4.804  -2.716 128.698  0.00  0.00    +0.000 C 
BRANCH  20  22
ATOM     22  C   UNL     1      -6.670  -3.778 130.066  0.00  0.00    +0.000 C 
BRANCH  22  23
ATOM     23  C   UNL     1      -7.377  -2.711 129.262  0.00  0.00    +0.000 C 
BRANCH  23  24
ATOM     24  C   UNL     1      -8.307  -3.306 128.230  0.00  0.00    +0.000 C 
BRANCH  24  25
ATOM     25  C   UNL     1      -8.047  -2.669 126.862  0.00  0.00    +0.000 C 
ATOM     26  C   UNL     1      -8.048  -1.130 126.935  0.00  0.00    +0.000 C 
BRANCH  25  27
ATOM     27  C   UNL     1      -9.109  -3.193 125.889  0.00  0.00    +0.000 C 
BRANCH  27  28
ATOM     28  C   UNL     1      -8.585  -3.153 124.469  0.00  0.00    +0.000 C 
BRANCH  28  29
ATOM     29  C   UNL     1      -7.209  -3.777 124.348  0.00  0.00    +0.000 C 
BRANCH  29  31
ATOM     30  C   UNL     1      -4.870  -3.426 123.563  0.00  0.00    +0.000 C 
ATOM     31  C   UNL     1      -6.172  -2.725 123.927  0.00  0.00    +0.000 C 
ATOM     32  C   UNL     1      -6.651  -1.873 122.746  0.00  0.00    +0.000 C 
ENDBRANCH  29  31
ENDBRANCH  28  29
ENDBRANCH  27  28
ENDBRANCH  25  27
ENDBRANCH  24  25
ENDBRANCH  23  24
ENDBRANCH  22  23
ENDBRANCH  20  22
ENDBRANCH  19  20
ENDBRANCH  18  19
ENDBRANCH   1  18
TORSDOF 13
ENDMDL
MODEL 5
REMARK VINA RESULT:      -7.0      3.203      4.159
REMARK  Name = DL-alpha-Tocopherol
REMARK  21 active torsions:
REMARK  status: ('A' for Active; 'I' for Inactive)
REMARK    1  A    between atoms: C_1  and  C_2
REMARK    2  A    between atoms: C_2  and  C_3
REMARK    3  A    between atoms: C_2  and  C_4
REMARK    4  A    between atoms: C_4  and  C_5
REMARK    5  A    between atoms: C_5  and  C_6
REMARK    6  A    between atoms: C_6  and  C_7
REMARK    7  A    between atoms: C_7  and  C_8
REMARK    8  A    between atoms: C_7  and  C_9
REMARK    9  A    between atoms: C_9  and  C_10
REMARK   10  A    between atoms: C_10  and  C_11
REMARK   11  A    between atoms: C_11  and  C_12
REMARK   12  A    between atoms: C_12  and  C_13
REMARK   13  A    between atoms: C_12  and  C_14
REMARK   14  A    between atoms: C_14  and  C_15
REMARK   15  A    between atoms: C_15  and  C_16
REMARK   16  A    between atoms: C_16  and  C_17
REMARK   17  A    between atoms: C_17  and  C_18
REMARK   18  A    between atoms: C_22  and  C_23
REMARK   19  A    between atoms: C_24  and  O_25
REMARK   20  A    between atoms: C_26  and  C_27
REMARK   21  A    between atoms: C_28  and  C_29
REMARK                            x       y       z     vdW  Elec       q    Type
REMARK                         _______ _______ _______ _____ _____    ______ ____
ROOT
ATOM      1  C   UNL     1      -5.448  -0.478 127.076  0.00  0.00    +0.000 C 
ENDROOT
BRANCH   1   2
ATOM      2  C   UNL     1      -5.486   0.783 127.989  0.00  0.00    +0.000 C 
ATOM      3  C   UNL     1      -5.126   0.364 129.436  0.00  0.00    +0.000 C 
ATOM      4  C   UNL     1      -6.871   1.418 127.849  0.00  0.00    +0.000 C 
ATOM      5  C   UNL     1      -6.993   2.565 128.806  0.00  0.00    +0.000 C 
ATOM      6  C   UNL     1      -5.788   3.457 128.729  0.00  0.00    +0.000 A 
ATOM      7  C   UNL     1      -5.835   4.719 129.356  0.00  0.00    +0.000 A 
ATOM      8  C   UNL     1      -7.061   5.165 130.111  0.00  0.00    +0.000 C 
ATOM      9  C   UNL     1      -4.708   5.547 129.264  0.00  0.00    +0.000 A 
ATOM     10  C   UNL     1      -3.543   5.152 128.588  0.00  0.00    +0.000 A 
ATOM     11  C   UNL     1      -2.363   6.093 128.522  0.00  0.00    +0.000 C 
ATOM     12  C   UNL     1      -3.488   3.869 127.984  0.00  0.00    +0.000 A 
ATOM     13  C   UNL     1      -2.257   3.399 127.251  0.00  0.00    +0.000 C 
ATOM     14  C   UNL     1      -4.610   3.017 128.084  0.00  0.00    +0.000 A 
ATOM     15  O   UNL     1      -4.498   1.744 127.535  0.00  0.00    +0.000 OA
BRANCH   9  16
ATOM     16  O   UNL     1      -4.710   6.794 129.844  0.00  0.00    +0.000 OA
ATOM     17  H   UNL     1      -3.815   7.053 130.082  0.00  0.00    +0.000 HD
ENDBRANCH   9  16
ENDBRANCH   1   2
BRANCH   1  18
ATOM     18  C   UNL     1      -5.196  -1.741 127.902  0.00  0.00    +0.000 C 
BRANCH  18  19
ATOM     19  C   UNL     1      -6.185  -2.862 127.680  0.00  0.00    +0.000 C 
BRANCH  19  20
ATOM     20  C   UNL     1      -7.620  -2.316 127.786  0.00  0.00    +0.000 C 
ATOM     21  C   UNL     1      -8.084  -2.181 129.251  0.00  0.00    +0.000 C 
BRANCH  20  22
ATOM     22  C   UNL     1      -8.533  -3.244 126.981  0.00  0.00    +0.000 C 
BRANCH  22  23
ATOM     23  C   UNL     1      -9.372  -2.445 126.011  0.00  0.00    +0.000 C 
BRANCH  23  24
ATOM     24  C   UNL     1      -8.668  -1.185 125.561  0.00  0.00    +0.000 C 
BRANCH  24  25
ATOM     25  C   UNL     1      -8.639  -1.118 124.032  0.00  0.00    +0.000 C 
ATOM     26  C   UNL     1      -9.174  -2.412 123.391  0.00  0.00    +0.000 C 
BRANCH  25  27
ATOM     27  C   UNL     1      -7.199  -0.823 123.601  0.00  0.00    +0.000 C 
BRANCH  27  28
ATOM     28  C   UNL     1      -6.524  -2.091 123.119  0.00  0.00    +0.000 C 
BRANCH  28  29
ATOM     29  C   UNL     1      -5.184  -2.315 123.790  0.00  0.00    +0.000 C 
BRANCH  29  31
ATOM     30  C   UNL     1      -6.464  -4.378 124.351  0.00  0.00    +0.000 C 
ATOM     31  C   UNL     1      -5.075  -3.753 124.317  0.00  0.00    +0.000 C 
ATOM     32  C   UNL     1      -4.137  -4.618 123.466  0.00  0.00    +0.000 C 
ENDBRANCH  29  31
ENDBRANCH  28  29
ENDBRANCH  27  28
ENDBRANCH  25  27
ENDBRANCH  24  25
ENDBRANCH  23  24
ENDBRANCH  22  23
ENDBRANCH  20  22
ENDBRANCH  19  20
ENDBRANCH  18  19
ENDBRANCH   1  18
TORSDOF 13
ENDMDL
MODEL 6
REMARK VINA RESULT:      -7.0      2.015      3.811
REMARK  Name = DL-alpha-Tocopherol
REMARK  21 active torsions:
REMARK  status: ('A' for Active; 'I' for Inactive)
REMARK    1  A    between atoms: C_1  and  C_2
REMARK    2  A    between atoms: C_2  and  C_3
REMARK    3  A    between atoms: C_2  and  C_4
REMARK    4  A    between atoms: C_4  and  C_5
REMARK    5  A    between atoms: C_5  and  C_6
REMARK    6  A    between atoms: C_6  and  C_7
REMARK    7  A    between atoms: C_7  and  C_8
REMARK    8  A    between atoms: C_7  and  C_9
REMARK    9  A    between atoms: C_9  and  C_10
REMARK   10  A    between atoms: C_10  and  C_11
REMARK   11  A    between atoms: C_11  and  C_12
REMARK   12  A    between atoms: C_12  and  C_13
REMARK   13  A    between atoms: C_12  and  C_14
REMARK   14  A    between atoms: C_14  and  C_15
REMARK   15  A    between atoms: C_15  and  C_16
REMARK   16  A    between atoms: C_16  and  C_17
REMARK   17  A    between atoms: C_17  and  C_18
REMARK   18  A    between atoms: C_22  and  C_23
REMARK   19  A    between atoms: C_24  and  O_25
REMARK   20  A    between atoms: C_26  and  C_27
REMARK   21  A    between atoms: C_28  and  C_29
REMARK                            x       y       z     vdW  Elec       q    Type
REMARK                         _______ _______ _______ _____ _____    ______ ____
ROOT
ATOM      1  C   UNL     1      -6.554  -1.916 131.656  0.00  0.00    +0.000 C 
ENDROOT
BRANCH   1   2
ATOM      2  C   UNL     1      -6.983  -0.448 131.365  0.00  0.00    +0.000 C 
ATOM      3  C   UNL     1      -6.277   0.489 132.376  0.00  0.00    +0.000 C 
ATOM      4  C   UNL     1      -8.512  -0.389 131.421  0.00  0.00    +0.000 C 
ATOM      5  C   UNL     1      -8.962   1.033 131.269  0.00  0.00    +0.000 C 
ATOM      6  C   UNL     1      -8.265   1.695 130.117  0.00  0.00    +0.000 A 
ATOM      7  C   UNL     1      -8.743   2.939 129.657  0.00  0.00    +0.000 A 
ATOM      8  C   UNL     1      -9.920   3.610 130.316  0.00  0.00    +0.000 C 
ATOM      9  C   UNL     1      -8.090   3.539 128.571  0.00  0.00    +0.000 A 
ATOM     10  C   UNL     1      -6.977   2.952 127.949  0.00  0.00    +0.000 A 
ATOM     11  C   UNL     1      -6.321   3.649 126.781  0.00  0.00    +0.000 C 
ATOM     12  C   UNL     1      -6.479   1.715 128.436  0.00  0.00    +0.000 A 
ATOM     13  C   UNL     1      -5.284   1.048 127.803  0.00  0.00    +0.000 C 
ATOM     14  C   UNL     1      -7.116   1.107 129.539  0.00  0.00    +0.000 A 
ATOM     15  O   UNL     1      -6.563  -0.072 130.028  0.00  0.00    +0.000 OA
BRANCH   9  16
ATOM     16  O   UNL     1      -8.529   4.744 128.074  0.00  0.00    +0.000 OA
ATOM     17  H   UNL     1      -7.853   5.143 127.518  0.00  0.00    +0.000 HD
ENDBRANCH   9  16
ENDBRANCH   1   2
BRANCH   1  18
ATOM     18  C   UNL     1      -7.514  -2.906 130.992  0.00  0.00    +0.000 C 
BRANCH  18  19
ATOM     19  C   UNL     1      -7.135  -3.329 129.593  0.00  0.00    +0.000 C 
BRANCH  19  20
ATOM     20  C   UNL     1      -8.223  -2.880 128.601  0.00  0.00    +0.000 C 
ATOM     21  C   UNL     1      -9.007  -4.073 128.019  0.00  0.00    +0.000 C 
BRANCH  20  22
ATOM     22  C   UNL     1      -7.544  -2.053 127.507  0.00  0.00    +0.000 C 
BRANCH  22  23
ATOM     23  C   UNL     1      -7.767  -2.688 126.154  0.00  0.00    +0.000 C 
BRANCH  23  24
ATOM     24  C   UNL     1      -6.493  -2.750 125.343  0.00  0.00    +0.000 C 
BRANCH  24  25
ATOM     25  C   UNL     1      -6.815  -2.642 123.850  0.00  0.00    +0.000 C 
ATOM     26  C   UNL     1      -5.537  -2.582 122.991  0.00  0.00    +0.000 C 
BRANCH  25  27
ATOM     27  C   UNL     1      -7.695  -1.405 123.647  0.00  0.00    +0.000 C 
BRANCH  27  28
ATOM     28  C   UNL     1      -6.852  -0.147 123.687  0.00  0.00    +0.000 C 
BRANCH  28  29
ATOM     29  C   UNL     1      -7.496   0.947 124.515  0.00  0.00    +0.000 C 
BRANCH  29  31
ATOM     30  C   UNL     1      -9.315   0.806 126.213  0.00  0.00    +0.000 C 
ATOM     31  C   UNL     1      -8.988   0.655 124.732  0.00  0.00    +0.000 C 
ATOM     32  C   UNL     1      -9.890   1.579 123.905  0.00  0.00    +0.000 C 
ENDBRANCH  29  31
ENDBRANCH  28  29
ENDBRANCH  27  28
ENDBRANCH  25  27
ENDBRANCH  24  25
ENDBRANCH  23  24
ENDBRANCH  22  23
ENDBRANCH  20  22
ENDBRANCH  19  20
ENDBRANCH  18  19
ENDBRANCH   1  18
TORSDOF 13
ENDMDL
MODEL 7
REMARK VINA RESULT:      -6.9      1.424      3.020
REMARK  Name = DL-alpha-Tocopherol
REMARK  21 active torsions:
REMARK  status: ('A' for Active; 'I' for Inactive)
REMARK    1  A    between atoms: C_1  and  C_2
REMARK    2  A    between atoms: C_2  and  C_3
REMARK    3  A    between atoms: C_2  and  C_4
REMARK    4  A    between atoms: C_4  and  C_5
REMARK    5  A    between atoms: C_5  and  C_6
REMARK    6  A    between atoms: C_6  and  C_7
REMARK    7  A    between atoms: C_7  and  C_8
REMARK    8  A    between atoms: C_7  and  C_9
REMARK    9  A    between atoms: C_9  and  C_10
REMARK   10  A    between atoms: C_10  and  C_11
REMARK   11  A    between atoms: C_11  and  C_12
REMARK   12  A    between atoms: C_12  and  C_13
REMARK   13  A    between atoms: C_12  and  C_14
REMARK   14  A    between atoms: C_14  and  C_15
REMARK   15  A    between atoms: C_15  and  C_16
REMARK   16  A    between atoms: C_16  and  C_17
REMARK   17  A    between atoms: C_17  and  C_18
REMARK   18  A    between atoms: C_22  and  C_23
REMARK   19  A    between atoms: C_24  and  O_25
REMARK   20  A    between atoms: C_26  and  C_27
REMARK   21  A    between atoms: C_28  and  C_29
REMARK                            x       y       z     vdW  Elec       q    Type
REMARK                         _______ _______ _______ _____ _____    ______ ____
ROOT
ATOM      1  C   UNL     1      -5.435  -0.900 131.248  0.00  0.00    +0.000 C 
ENDROOT
BRANCH   1   2
ATOM      2  C   UNL     1      -6.696  -0.033 131.535  0.00  0.00    +0.000 C 
ATOM      3  C   UNL     1      -7.760  -0.913 132.235  0.00  0.00    +0.000 C 
ATOM      4  C   UNL     1      -7.160   0.569 130.206  0.00  0.00    +0.000 C 
ATOM      5  C   UNL     1      -8.445   1.311 130.417  0.00  0.00    +0.000 C 
ATOM      6  C   UNL     1      -8.353   2.212 131.614  0.00  0.00    +0.000 A 
ATOM      7  C   UNL     1      -9.360   3.178 131.817  0.00  0.00    +0.000 A 
ATOM      8  C   UNL     1     -10.522   3.299 130.866  0.00  0.00    +0.000 C 
ATOM      9  C   UNL     1      -9.253   4.021 132.932  0.00  0.00    +0.000 A 
ATOM     10  C   UNL     1      -8.195   3.920 133.848  0.00  0.00    +0.000 A 
ATOM     11  C   UNL     1      -8.137   4.861 135.028  0.00  0.00    +0.000 C 
ATOM     12  C   UNL     1      -7.200   2.925 133.658  0.00  0.00    +0.000 A 
ATOM     13  C   UNL     1      -6.048   2.775 134.619  0.00  0.00    +0.000 C 
ATOM     14  C   UNL     1      -7.304   2.057 132.549  0.00  0.00    +0.000 A 
ATOM     15  O   UNL     1      -6.347   1.056 132.429  0.00  0.00    +0.000 OA
BRANCH   9  16
ATOM     16  O   UNL     1     -10.200   4.991 133.164  0.00  0.00    +0.000 OA
ATOM     17  H   UNL     1     -10.455   4.994 134.092  0.00  0.00    +0.000 HD
ENDBRANCH   9  16
ENDBRANCH   1   2
BRANCH   1  18
ATOM     18  C   UNL     1      -4.948  -1.593 132.523  0.00  0.00    +0.000 C 
BRANCH  18  19
ATOM     19  C   UNL     1      -4.482  -3.018 132.341  0.00  0.00    +0.000 C 
BRANCH  19  20
ATOM     20  C   UNL     1      -5.699  -3.952 132.222  0.00  0.00    +0.000 C 
ATOM     21  C   UNL     1      -5.861  -4.856 133.461  0.00  0.00    +0.000 C 
BRANCH  20  22
ATOM     22  C   UNL     1      -5.538  -4.767 130.937  0.00  0.00    +0.000 C 
BRANCH  22  23
ATOM     23  C   UNL     1      -6.035  -3.978 129.748  0.00  0.00    +0.000 C 
BRANCH  23  24
ATOM     24  C   UNL     1      -7.500  -3.628 129.876  0.00  0.00    +0.000 C 
BRANCH  24  25
ATOM     25  C   UNL     1      -7.953  -2.812 128.662  0.00  0.00    +0.000 C 
ATOM     26  C   UNL     1      -8.844  -3.639 127.715  0.00  0.00    +0.000 C 
BRANCH  25  27
ATOM     27  C   UNL     1      -6.700  -2.289 127.952  0.00  0.00    +0.000 C 
BRANCH  27  28
ATOM     28  C   UNL     1      -6.955  -2.158 126.465  0.00  0.00    +0.000 C 
BRANCH  28  29
ATOM     29  C   UNL     1      -5.687  -2.317 125.651  0.00  0.00    +0.000 C 
BRANCH  29  31
ATOM     30  C   UNL     1      -4.847  -3.868 123.890  0.00  0.00    +0.000 C 
ATOM     31  C   UNL     1      -5.995  -2.947 124.285  0.00  0.00    +0.000 C 
ATOM     32  C   UNL     1      -7.312  -3.731 124.287  0.00  0.00    +0.000 C 
ENDBRANCH  29  31
ENDBRANCH  28  29
ENDBRANCH  27  28
ENDBRANCH  25  27
ENDBRANCH  24  25
ENDBRANCH  23  24
ENDBRANCH  22  23
ENDBRANCH  20  22
ENDBRANCH  19  20
ENDBRANCH  18  19
ENDBRANCH   1  18
TORSDOF 13
ENDMDL
MODEL 8
REMARK VINA RESULT:      -6.9      1.594      3.159
REMARK  Name = DL-alpha-Tocopherol
REMARK  21 active torsions:
REMARK  status: ('A' for Active; 'I' for Inactive)
REMARK    1  A    between atoms: C_1  and  C_2
REMARK    2  A    between atoms: C_2  and  C_3
REMARK    3  A    between atoms: C_2  and  C_4
REMARK    4  A    between atoms: C_4  and  C_5
REMARK    5  A    between atoms: C_5  and  C_6
REMARK    6  A    between atoms: C_6  and  C_7
REMARK    7  A    between atoms: C_7  and  C_8
REMARK    8  A    between atoms: C_7  and  C_9
REMARK    9  A    between atoms: C_9  and  C_10
REMARK   10  A    between atoms: C_10  and  C_11
REMARK   11  A    between atoms: C_11  and  C_12
REMARK   12  A    between atoms: C_12  and  C_13
REMARK   13  A    between atoms: C_12  and  C_14
REMARK   14  A    between atoms: C_14  and  C_15
REMARK   15  A    between atoms: C_15  and  C_16
REMARK   16  A    between atoms: C_16  and  C_17
REMARK   17  A    between atoms: C_17  and  C_18
REMARK   18  A    between atoms: C_22  and  C_23
REMARK   19  A    between atoms: C_24  and  O_25
REMARK   20  A    between atoms: C_26  and  C_27
REMARK   21  A    between atoms: C_28  and  C_29
REMARK                            x       y       z     vdW  Elec       q    Type
REMARK                         _______ _______ _______ _____ _____    ______ ____
ROOT
ATOM      1  C   UNL     1      -7.383   0.161 128.708  0.00  0.00    +0.000 C 
ENDROOT
BRANCH   1   2
ATOM      2  C   UNL     1      -7.509   1.208 129.853  0.00  0.00    +0.000 C 
ATOM      3  C   UNL     1      -6.095   1.525 130.399  0.00  0.00    +0.000 C 
ATOM      4  C   UNL     1      -8.470   0.641 130.901  0.00  0.00    +0.000 C 
ATOM      5  C   UNL     1      -8.524   1.564 132.080  0.00  0.00    +0.000 C 
ATOM      6  C   UNL     1      -8.709   2.987 131.639  0.00  0.00    +0.000 A 
ATOM      7  C   UNL     1      -9.044   3.960 132.603  0.00  0.00    +0.000 A 
ATOM      8  C   UNL     1      -9.195   3.592 134.056  0.00  0.00    +0.000 C 
ATOM      9  C   UNL     1      -9.227   5.282 132.173  0.00  0.00    +0.000 A 
ATOM     10  C   UNL     1      -9.072   5.660 130.830  0.00  0.00    +0.000 A 
ATOM     11  C   UNL     1      -9.288   7.102 130.432  0.00  0.00    +0.000 C 
ATOM     12  C   UNL     1      -8.705   4.684 129.868  0.00  0.00    +0.000 A 
ATOM     13  C   UNL     1      -8.522   5.045 128.415  0.00  0.00    +0.000 C 
ATOM     14  C   UNL     1      -8.500   3.352 130.289  0.00  0.00    +0.000 A 
ATOM     15  O   UNL     1      -8.080   2.436 129.330  0.00  0.00    +0.000 OA
BRANCH   9  16
ATOM     16  O   UNL     1      -9.571   6.264 133.072  0.00  0.00    +0.000 OA
ATOM     17  H   UNL     1     -10.159   5.909 133.746  0.00  0.00    +0.000 HD
ENDBRANCH   9  16
ENDBRANCH   1   2
BRANCH   1  18
ATOM     18  C   UNL     1      -5.938  -0.324 128.570  0.00  0.00    +0.000 C 
BRANCH  18  19
ATOM     19  C   UNL     1      -5.751  -1.821 128.651  0.00  0.00    +0.000 C 
BRANCH  19  20
ATOM     20  C   UNL     1      -6.614  -2.391 129.789  0.00  0.00    +0.000 C 
ATOM     21  C   UNL     1      -5.792  -2.651 131.068  0.00  0.00    +0.000 C 
BRANCH  20  22
ATOM     22  C   UNL     1      -7.286  -3.665 129.273  0.00  0.00    +0.000 C 
BRANCH  22  23
ATOM     23  C   UNL     1      -8.688  -3.365 128.796  0.00  0.00    +0.000 C 
BRANCH  23  24
ATOM     24  C   UNL     1      -8.947  -3.927 127.417  0.00  0.00    +0.000 C 
BRANCH  24  25
ATOM     25  C   UNL     1      -8.323  -3.018 126.355  0.00  0.00    +0.000 C 
ATOM     26  C   UNL     1      -9.173  -1.756 126.110  0.00  0.00    +0.000 C 
BRANCH  25  27
ATOM     27  C   UNL     1      -8.145  -3.841 125.075  0.00  0.00    +0.000 C 
BRANCH  27  28
ATOM     28  C   UNL     1      -8.315  -2.959 123.856  0.00  0.00    +0.000 C 
BRANCH  28  29
ATOM     29  C   UNL     1      -6.987  -2.589 123.227  0.00  0.00    +0.000 C 
BRANCH  29  31
ATOM     30  C   UNL     1      -4.662  -3.441 123.506  0.00  0.00    +0.000 C 
ATOM     31  C   UNL     1      -5.839  -2.795 124.226  0.00  0.00    +0.000 C 
ATOM     32  C   UNL     1      -5.391  -1.482 124.879  0.00  0.00    +0.000 C 
ENDBRANCH  29  31
ENDBRANCH  28  29
ENDBRANCH  27  28
ENDBRANCH  25  27
ENDBRANCH  24  25
ENDBRANCH  23  24
ENDBRANCH  22  23
ENDBRANCH  20  22
ENDBRANCH  19  20
ENDBRANCH  18  19
ENDBRANCH   1  18
TORSDOF 13
ENDMDL
MODEL 9
REMARK VINA RESULT:      -6.9      3.824      5.801
REMARK  Name = DL-alpha-Tocopherol
REMARK  21 active torsions:
REMARK  status: ('A' for Active; 'I' for Inactive)
REMARK    1  A    between atoms: C_1  and  C_2
REMARK    2  A    between atoms: C_2  and  C_3
REMARK    3  A    between atoms: C_2  and  C_4
REMARK    4  A    between atoms: C_4  and  C_5
REMARK    5  A    between atoms: C_5  and  C_6
REMARK    6  A    between atoms: C_6  and  C_7
REMARK    7  A    between atoms: C_7  and  C_8
REMARK    8  A    between atoms: C_7  and  C_9
REMARK    9  A    between atoms: C_9  and  C_10
REMARK   10  A    between atoms: C_10  and  C_11
REMARK   11  A    between atoms: C_11  and  C_12
REMARK   12  A    between atoms: C_12  and  C_13
REMARK   13  A    between atoms: C_12  and  C_14
REMARK   14  A    between atoms: C_14  and  C_15
REMARK   15  A    between atoms: C_15  and  C_16
REMARK   16  A    between atoms: C_16  and  C_17
REMARK   17  A    between atoms: C_17  and  C_18
REMARK   18  A    between atoms: C_22  and  C_23
REMARK   19  A    between atoms: C_24  and  O_25
REMARK   20  A    between atoms: C_26  and  C_27
REMARK   21  A    between atoms: C_28  and  C_29
REMARK                            x       y       z     vdW  Elec       q    Type
REMARK                         _______ _______ _______ _____ _____    ______ ____
ROOT
ATOM      1  C   UNL     1      -5.015   3.677 125.411  0.00  0.00    +0.000 C 
ENDROOT
BRANCH   1   2
ATOM      2  C   UNL     1      -4.419   3.413 126.825  0.00  0.00    +0.000 C 
ATOM      3  C   UNL     1      -3.240   2.419 126.694  0.00  0.00    +0.000 C 
ATOM      4  C   UNL     1      -5.555   2.919 127.725  0.00  0.00    +0.000 C 
ATOM      5  C   UNL     1      -5.000   2.535 129.063  0.00  0.00    +0.000 C 
ATOM      6  C   UNL     1      -4.086   3.602 129.590  0.00  0.00    +0.000 A 
ATOM      7  C   UNL     1      -3.678   3.543 130.939  0.00  0.00    +0.000 A 
ATOM      8  C   UNL     1      -4.130   2.421 131.837  0.00  0.00    +0.000 C 
ATOM      9  C   UNL     1      -2.835   4.554 131.420  0.00  0.00    +0.000 A 
ATOM     10  C   UNL     1      -2.378   5.600 130.604  0.00  0.00    +0.000 A 
ATOM     11  C   UNL     1      -1.474   6.661 131.185  0.00  0.00    +0.000 C 
ATOM     12  C   UNL     1      -2.766   5.639 129.238  0.00  0.00    +0.000 A 
ATOM     13  C   UNL     1      -2.296   6.740 128.321  0.00  0.00    +0.000 C 
ATOM     14  C   UNL     1      -3.601   4.618 128.735  0.00  0.00    +0.000 A 
ATOM     15  O   UNL     1      -3.908   4.654 127.379  0.00  0.00    +0.000 OA
BRANCH   9  16
ATOM     16  O   UNL     1      -2.423   4.551 132.732  0.00  0.00    +0.000 OA
ATOM     17  H   UNL     1      -3.070   4.099 133.284  0.00  0.00    +0.000 HD
ENDBRANCH   9  16
ENDBRANCH   1   2
BRANCH   1  18
ATOM     18  C   UNL     1      -6.463   3.190 125.330  0.00  0.00    +0.000 C 
BRANCH  18  19
ATOM     19  C   UNL     1      -6.703   2.041 124.379  0.00  0.00    +0.000 C 
BRANCH  19  20
ATOM     20  C   UNL     1      -8.150   1.539 124.525  0.00  0.00    +0.000 C 
ATOM     21  C   UNL     1      -8.585   1.442 126.002  0.00  0.00    +0.000 C 
BRANCH  20  22
ATOM     22  C   UNL     1      -8.251   0.191 123.809  0.00  0.00    +0.000 C 
BRANCH  22  23
ATOM     23  C   UNL     1      -6.918  -0.184 123.203  0.00  0.00    +0.000 C 
BRANCH  23  24
ATOM     24  C   UNL     1      -6.725  -1.682 123.151  0.00  0.00    +0.000 C 
BRANCH  24  25
ATOM     25  C   UNL     1      -5.467  -2.076 123.931  0.00  0.00    +0.000 C 
ATOM     26  C   UNL     1      -5.248  -3.601 123.934  0.00  0.00    +0.000 C 
BRANCH  25  27
ATOM     27  C   UNL     1      -5.599  -1.518 125.351  0.00  0.00    +0.000 C 
BRANCH  27  28
ATOM     28  C   UNL     1      -6.338  -2.500 126.235  0.00  0.00    +0.000 C 
BRANCH  28  29
ATOM     29  C   UNL     1      -7.576  -1.888 126.859  0.00  0.00    +0.000 C 
BRANCH  29  31
ATOM     30  C   UNL     1      -8.692  -3.594 125.425  0.00  0.00    +0.000 C 
ATOM     31  C   UNL     1      -8.769  -2.850 126.752  0.00  0.00    +0.000 C 
ATOM     32  C   UNL     1      -8.815  -3.855 127.909  0.00  0.00    +0.000 C 
ENDBRANCH  29  31
ENDBRANCH  28  29
ENDBRANCH  27  28
ENDBRANCH  25  27
ENDBRANCH  24  25
ENDBRANCH  23  24
ENDBRANCH  22  23
ENDBRANCH  20  22
ENDBRANCH  19  20
ENDBRANCH  18  19
ENDBRANCH   1  18
TORSDOF 13
ENDMDL
