MODEL 1
REMARK VINA RESULT:      -6.9      0.000      0.000
REMARK  Name = DL-alpha tocopheryl acetate
REMARK  23 active torsions:
REMARK  status: ('A' for Active; 'I' for Inactive)
REMARK    1  A    between atoms: C_1  and  C_2
REMARK    2  A    between atoms: C_2  and  C_3
REMARK    3  A    between atoms: C_2  and  C_4
REMARK    4  A    between atoms: C_4  and  C_5
REMARK    5  A    between atoms: C_5  and  C_6
REMARK    6  A    between atoms: C_6  and  C_7
REMARK    7  A    between atoms: C_7  and  C_8
REMARK    8  A    between atoms: C_7  and  C_9
REMARK    9  A    between atoms: C_9  and  C_10
REMARK   10  A    between atoms: C_10  and  C_11
REMARK   11  A    between atoms: C_11  and  C_12
REMARK   12  A    between atoms: C_12  and  C_13
REMARK   13  A    between atoms: C_12  and  C_14
REMARK   14  A    between atoms: C_14  and  C_15
REMARK   15  A    between atoms: C_15  and  C_16
REMARK   16  A    between atoms: C_16  and  C_17
REMARK   17  A    between atoms: C_17  and  C_18
REMARK   18  A    between atoms: C_24  and  C_25
REMARK   19  A    between atoms: C_26  and  C_27
REMARK   20  A    between atoms: C_28  and  O_29
REMARK   21  A    between atoms: O_29  and  C_30
REMARK   22  A    between atoms: C_30  and  C_31
REMARK   23  A    between atoms: C_33  and  C_34
REMARK                            x       y       z     vdW  Elec       q    Type
REMARK                         _______ _______ _______ _____ _____    ______ ____
ROOT
ATOM      1  C   UNL     1      -6.735  -0.816 131.053  0.00  0.00    +0.000 C 
ATOM      2  C   UNL     1      -5.855   0.040 131.986  0.00  0.00    +0.000 C 
ATOM      3  C   UNL     1      -8.186  -0.921 131.515  0.00  0.00    +0.000 C 
ATOM      4  C   UNL     1      -8.683   0.463 131.677  0.00  0.00    +0.000 C 
ATOM      5  C   UNL     1      -8.331   1.275 130.463  0.00  0.00    +0.000 A 
ATOM      6  C   UNL     1      -7.403   0.900 129.510  0.00  0.00    +0.000 A 
ATOM      7  O   UNL     1      -6.677  -0.252 129.708  0.00  0.00    +0.000 OA
ATOM      8  C   UNL     1      -7.159   1.730 128.384  0.00  0.00    +0.000 A 
ATOM      9  C   UNL     1      -6.156   1.283 127.348  0.00  0.00    +0.000 C 
ATOM     10  C   UNL     1      -7.849   2.987 128.241  0.00  0.00    +0.000 A 
ATOM     11  C   UNL     1      -7.575   3.890 127.060  0.00  0.00    +0.000 C 
ATOM     12  C   UNL     1      -8.741   3.366 129.271  0.00  0.00    +0.000 A 
ATOM     13  C   UNL     1      -8.884   2.534 130.398  0.00  0.00    +0.000 A 
ATOM     14  C   UNL     1      -9.535   2.933 131.660  0.00  0.00    +0.000 C 
ENDROOT
BRANCH   1  15
ATOM     15  C   UNL     1      -6.187  -2.248 131.087  0.00  0.00    +0.000 C 
BRANCH  15  16
ATOM     16  C   UNL     1      -7.265  -3.243 130.776  0.00  0.00    +0.000 C 
BRANCH  16  17
ATOM     17  C   UNL     1      -7.251  -3.602 129.311  0.00  0.00    +0.000 C 
BRANCH  17  18
ATOM     18  C   UNL     1      -8.542  -3.122 128.660  0.00  0.00    +0.000 C 
ATOM     19  C   UNL     1      -9.544  -4.280 128.508  0.00  0.00    +0.000 C 
BRANCH  18  20
ATOM     20  C   UNL     1      -8.189  -2.498 127.313  0.00  0.00    +0.000 C 
BRANCH  20  21
ATOM     21  C   UNL     1      -8.361  -3.524 126.221  0.00  0.00    +0.000 C 
BRANCH  21  22
ATOM     22  C   UNL     1      -9.242  -3.010 125.108  0.00  0.00    +0.000 C 
BRANCH  22  23
ATOM     23  C   UNL     1      -8.488  -3.065 123.780  0.00  0.00    +0.000 C 
ATOM     24  C   UNL     1      -7.014  -3.458 123.988  0.00  0.00    +0.000 C 
BRANCH  23  25
ATOM     25  C   UNL     1      -8.611  -1.700 123.108  0.00  0.00    +0.000 C 
BRANCH  25  26
ATOM     26  C   UNL     1      -7.352  -0.893 123.338  0.00  0.00    +0.000 C 
BRANCH  26  27
ATOM     27  C   UNL     1      -7.614   0.322 124.198  0.00  0.00    +0.000 C 
BRANCH  27  29
ATOM     28  C   UNL     1      -9.540   0.587 125.751  0.00  0.00    +0.000 C 
ATOM     29  C   UNL     1      -9.118   0.600 124.289  0.00  0.00    +0.000 C 
ATOM     30  C   UNL     1      -9.489   1.945 123.657  0.00  0.00    +0.000 C 
ENDBRANCH  27  29
ENDBRANCH  26  27
ENDBRANCH  25  26
ENDBRANCH  23  25
ENDBRANCH  22  23
ENDBRANCH  21  22
ENDBRANCH  20  21
ENDBRANCH  18  20
ENDBRANCH  17  18
ENDBRANCH  16  17
ENDBRANCH  15  16
ENDBRANCH   1  15
BRANCH  12  31
ATOM     31  O   UNL     1      -9.480   4.668 129.196  0.00  0.00    +0.000 OA
BRANCH  31  32
ATOM     32  C   UNL     1     -10.527   5.474 129.867  0.00  0.00    +0.000 C 
ATOM     33  C   UNL     1      -9.968   6.657 130.614  0.00  0.00    +0.000 C 
ATOM     34  O   UNL     1     -11.702   5.243 129.791  0.00  0.00    +0.000 OA
ENDBRANCH  31  32
ENDBRANCH  12  31
TORSDOF 14
ENDMDL
MODEL 2
REMARK VINA RESULT:      -6.9      3.016      6.383
REMARK  Name = DL-alpha tocopheryl acetate
REMARK  23 active torsions:
REMARK  status: ('A' for Active; 'I' for Inactive)
REMARK    1  A    between atoms: C_1  and  C_2
REMARK    2  A    between atoms: C_2  and  C_3
REMARK    3  A    between atoms: C_2  and  C_4
REMARK    4  A    between atoms: C_4  and  C_5
REMARK    5  A    between atoms: C_5  and  C_6
REMARK    6  A    between atoms: C_6  and  C_7
REMARK    7  A    between atoms: C_7  and  C_8
REMARK    8  A    between atoms: C_7  and  C_9
REMARK    9  A    between atoms: C_9  and  C_10
REMARK   10  A    between atoms: C_10  and  C_11
REMARK   11  A    between atoms: C_11  and  C_12
REMARK   12  A    between atoms: C_12  and  C_13
REMARK   13  A    between atoms: C_12  and  C_14
REMARK   14  A    between atoms: C_14  and  C_15
REMARK   15  A    between atoms: C_15  and  C_16
REMARK   16  A    between atoms: C_16  and  C_17
REMARK   17  A    between atoms: C_17  and  C_18
REMARK   18  A    between atoms: C_24  and  C_25
REMARK   19  A    between atoms: C_26  and  C_27
REMARK   20  A    between atoms: C_28  and  O_29
REMARK   21  A    between atoms: O_29  and  C_30
REMARK   22  A    between atoms: C_30  and  C_31
REMARK   23  A    between atoms: C_33  and  C_34
REMARK                            x       y       z     vdW  Elec       q    Type
REMARK                         _______ _______ _______ _____ _____    ______ ____
ROOT
ATOM      1  C   UNL     1      -8.144  -2.519 127.000  0.00  0.00    +0.000 C 
ATOM      2  C   UNL     1      -9.396  -2.795 126.143  0.00  0.00    +0.000 C 
ATOM      3  C   UNL     1      -6.840  -2.910 126.312  0.00  0.00    +0.000 C 
ATOM      4  C   UNL     1      -6.819  -2.212 125.008  0.00  0.00    +0.000 C 
ATOM      5  C   UNL     1      -7.170  -0.764 125.201  0.00  0.00    +0.000 A 
ATOM      6  C   UNL     1      -7.751  -0.242 126.341  0.00  0.00    +0.000 A 
ATOM      7  O   UNL     1      -8.122  -1.101 127.350  0.00  0.00    +0.000 OA
ATOM      8  C   UNL     1      -8.023   1.149 126.433  0.00  0.00    +0.000 A 
ATOM      9  C   UNL     1      -8.638   1.693 127.701  0.00  0.00    +0.000 C 
ATOM     10  C   UNL     1      -7.727   2.024 125.328  0.00  0.00    +0.000 A 
ATOM     11  C   UNL     1      -8.039   3.501 125.407  0.00  0.00    +0.000 C 
ATOM     12  C   UNL     1      -7.194   1.442 124.154  0.00  0.00    +0.000 A 
ATOM     13  C   UNL     1      -7.018   0.046 124.099  0.00  0.00    +0.000 A 
ATOM     14  C   UNL     1      -6.759  -0.719 122.864  0.00  0.00    +0.000 C 
ENDROOT
BRANCH   1  15
ATOM     15  C   UNL     1      -8.234  -3.405 128.249  0.00  0.00    +0.000 C 
BRANCH  15  16
ATOM     16  C   UNL     1      -7.833  -2.644 129.476  0.00  0.00    +0.000 C 
BRANCH  16  17
ATOM     17  C   UNL     1      -6.592  -3.243 130.091  0.00  0.00    +0.000 C 
BRANCH  17  18
ATOM     18  C   UNL     1      -5.377  -2.418 129.685  0.00  0.00    +0.000 C 
ATOM     19  C   UNL     1      -4.370  -3.274 128.897  0.00  0.00    +0.000 C 
BRANCH  18  20
ATOM     20  C   UNL     1      -4.756  -1.836 130.951  0.00  0.00    +0.000 C 
BRANCH  20  21
ATOM     21  C   UNL     1      -4.172  -0.478 130.649  0.00  0.00    +0.000 C 
BRANCH  21  22
ATOM     22  C   UNL     1      -5.066   0.321 129.733  0.00  0.00    +0.000 C 
BRANCH  22  23
ATOM     23  C   UNL     1      -4.320   1.555 129.225  0.00  0.00    +0.000 C 
ATOM     24  C   UNL     1      -4.139   2.600 130.341  0.00  0.00    +0.000 C 
BRANCH  23  25
ATOM     25  C   UNL     1      -5.101   2.129 128.045  0.00  0.00    +0.000 C 
BRANCH  25  26
ATOM     26  C   UNL     1      -4.211   2.211 126.825  0.00  0.00    +0.000 C 
BRANCH  26  27
ATOM     27  C   UNL     1      -4.075   3.631 126.323  0.00  0.00    +0.000 C 
BRANCH  27  29
ATOM     28  C   UNL     1      -2.655   4.924 127.905  0.00  0.00    +0.000 C 
ATOM     29  C   UNL     1      -2.662   4.160 126.589  0.00  0.00    +0.000 C 
ATOM     30  C   UNL     1      -1.631   3.028 126.644  0.00  0.00    +0.000 C 
ENDBRANCH  27  29
ENDBRANCH  26  27
ENDBRANCH  25  26
ENDBRANCH  23  25
ENDBRANCH  22  23
ENDBRANCH  21  22
ENDBRANCH  20  21
ENDBRANCH  18  20
ENDBRANCH  17  18
ENDBRANCH  16  17
ENDBRANCH  15  16
ENDBRANCH   1  15
BRANCH  12  31
ATOM     31  O   UNL     1      -6.880   2.291 122.960  0.00  0.00    +0.000 OA
BRANCH  31  32
ATOM     32  C   UNL     1      -7.502   3.138 121.913  0.00  0.00    +0.000 C 
ATOM     33  C   UNL     1      -6.489   3.840 121.048  0.00  0.00    +0.000 C 
ATOM     34  O   UNL     1      -8.685   3.223 121.738  0.00  0.00    +0.000 OA
ENDBRANCH  31  32
ENDBRANCH  12  31
TORSDOF 14
ENDMDL
MODEL 3
REMARK VINA RESULT:      -6.9      3.874      6.019
REMARK  Name = DL-alpha tocopheryl acetate
REMARK  23 active torsions:
REMARK  status: ('A' for Active; 'I' for Inactive)
REMARK    1  A    between atoms: C_1  and  C_2
REMARK    2  A    between atoms: C_2  and  C_3
REMARK    3  A    between atoms: C_2  and  C_4
REMARK    4  A    between atoms: C_4  and  C_5
REMARK    5  A    between atoms: C_5  and  C_6
REMARK    6  A    between atoms: C_6  and  C_7
REMARK    7  A    between atoms: C_7  and  C_8
REMARK    8  A    between atoms: C_7  and  C_9
REMARK    9  A    between atoms: C_9  and  C_10
REMARK   10  A    between atoms: C_10  and  C_11
REMARK   11  A    between atoms: C_11  and  C_12
REMARK   12  A    between atoms: C_12  and  C_13
REMARK   13  A    between atoms: C_12  and  C_14
REMARK   14  A    between atoms: C_14  and  C_15
REMARK   15  A    between atoms: C_15  and  C_16
REMARK   16  A    between atoms: C_16  and  C_17
REMARK   17  A    between atoms: C_17  and  C_18
REMARK   18  A    between atoms: C_24  and  C_25
REMARK   19  A    between atoms: C_26  and  C_27
REMARK   20  A    between atoms: C_28  and  O_29
REMARK   21  A    between atoms: O_29  and  C_30
REMARK   22  A    between atoms: C_30  and  C_31
REMARK   23  A    between atoms: C_33  and  C_34
REMARK                            x       y       z     vdW  Elec       q    Type
REMARK                         _______ _______ _______ _____ _____    ______ ____
ROOT
ATOM      1  C   UNL     1      -4.470   3.076 126.775  0.00  0.00    +0.000 C 
ATOM      2  C   UNL     1      -4.630   4.203 125.734  0.00  0.00    +0.000 C 
ATOM      3  C   UNL     1      -3.037   2.908 127.272  0.00  0.00    +0.000 C 
ATOM      4  C   UNL     1      -2.602   4.230 127.773  0.00  0.00    +0.000 C 
ATOM      5  C   UNL     1      -3.656   4.803 128.678  0.00  0.00    +0.000 A 
ATOM      6  C   UNL     1      -4.956   4.343 128.757  0.00  0.00    +0.000 A 
ATOM      7  O   UNL     1      -5.362   3.348 127.898  0.00  0.00    +0.000 OA
ATOM      8  C   UNL     1      -5.872   4.941 129.663  0.00  0.00    +0.000 A 
ATOM      9  C   UNL     1      -7.281   4.401 129.744  0.00  0.00    +0.000 C 
ATOM     10  C   UNL     1      -5.466   6.053 130.483  0.00  0.00    +0.000 A 
ATOM     11  C   UNL     1      -6.442   6.713 131.431  0.00  0.00    +0.000 C 
ATOM     12  C   UNL     1      -4.147   6.537 130.326  0.00  0.00    +0.000 A 
ATOM     13  C   UNL     1      -3.311   5.950 129.357  0.00  0.00    +0.000 A 
ATOM     14  C   UNL     1      -2.040   6.529 128.881  0.00  0.00    +0.000 C 
ENDROOT
BRANCH   1  15
ATOM     15  C   UNL     1      -4.824   1.754 126.082  0.00  0.00    +0.000 C 
BRANCH  15  16
ATOM     16  C   UNL     1      -6.308   1.608 125.933  0.00  0.00    +0.000 C 
BRANCH  16  17
ATOM     17  C   UNL     1      -6.725   1.843 124.502  0.00  0.00    +0.000 C 
BRANCH  17  18
ATOM     18  C   UNL     1      -8.079   1.189 124.256  0.00  0.00    +0.000 C 
ATOM     19  C   UNL     1      -8.720   1.723 122.963  0.00  0.00    +0.000 C 
BRANCH  18  20
ATOM     20  C   UNL     1      -8.959   1.450 125.474  0.00  0.00    +0.000 C 
BRANCH  20  21
ATOM     21  C   UNL     1      -9.598   0.160 125.923  0.00  0.00    +0.000 C 
BRANCH  21  22
ATOM     22  C   UNL     1      -8.937  -1.039 125.287  0.00  0.00    +0.000 C 
BRANCH  22  23
ATOM     23  C   UNL     1      -9.048  -2.247 126.216  0.00  0.00    +0.000 C 
ATOM     24  C   UNL     1      -7.989  -2.195 127.333  0.00  0.00    +0.000 C 
BRANCH  23  25
ATOM     25  C   UNL     1      -8.904  -3.511 125.371  0.00  0.00    +0.000 C 
BRANCH  25  26
ATOM     26  C   UNL     1      -8.145  -3.201 124.100  0.00  0.00    +0.000 C 
BRANCH  26  27
ATOM     27  C   UNL     1      -6.718  -3.697 124.163  0.00  0.00    +0.000 C 
BRANCH  27  29
ATOM     28  C   UNL     1      -6.432  -1.741 122.652  0.00  0.00    +0.000 C 
ATOM     29  C   UNL     1      -5.749  -2.601 123.706  0.00  0.00    +0.000 C 
ATOM     30  C   UNL     1      -5.293  -1.720 124.873  0.00  0.00    +0.000 C 
ENDBRANCH  27  29
ENDBRANCH  26  27
ENDBRANCH  25  26
ENDBRANCH  23  25
ENDBRANCH  22  23
ENDBRANCH  21  22
ENDBRANCH  20  21
ENDBRANCH  18  20
ENDBRANCH  17  18
ENDBRANCH  16  17
ENDBRANCH  15  16
ENDBRANCH   1  15
BRANCH  12  31
ATOM     31  O   UNL     1      -3.662   7.703 131.134  0.00  0.00    +0.000 OA
BRANCH  31  32
ATOM     32  C   UNL     1      -2.940   8.060 132.379  0.00  0.00    +0.000 C 
ATOM     33  C   UNL     1      -3.037   6.996 133.439  0.00  0.00    +0.000 C 
ATOM     34  O   UNL     1      -2.304   9.067 132.518  0.00  0.00    +0.000 OA
ENDBRANCH  31  32
ENDBRANCH  12  31
TORSDOF 14
ENDMDL
MODEL 4
REMARK VINA RESULT:      -6.9      3.261      4.086
REMARK  Name = DL-alpha tocopheryl acetate
REMARK  23 active torsions:
REMARK  status: ('A' for Active; 'I' for Inactive)
REMARK    1  A    between atoms: C_1  and  C_2
REMARK    2  A    between atoms: C_2  and  C_3
REMARK    3  A    between atoms: C_2  and  C_4
REMARK    4  A    between atoms: C_4  and  C_5
REMARK    5  A    between atoms: C_5  and  C_6
REMARK    6  A    between atoms: C_6  and  C_7
REMARK    7  A    between atoms: C_7  and  C_8
REMARK    8  A    between atoms: C_7  and  C_9
REMARK    9  A    between atoms: C_9  and  C_10
REMARK   10  A    between atoms: C_10  and  C_11
REMARK   11  A    between atoms: C_11  and  C_12
REMARK   12  A    between atoms: C_12  and  C_13
REMARK   13  A    between atoms: C_12  and  C_14
REMARK   14  A    between atoms: C_14  and  C_15
REMARK   15  A    between atoms: C_15  and  C_16
REMARK   16  A    between atoms: C_16  and  C_17
REMARK   17  A    between atoms: C_17  and  C_18
REMARK   18  A    between atoms: C_24  and  C_25
REMARK   19  A    between atoms: C_26  and  C_27
REMARK   20  A    between atoms: C_28  and  O_29
REMARK   21  A    between atoms: O_29  and  C_30
REMARK   22  A    between atoms: C_30  and  C_31
REMARK   23  A    between atoms: C_33  and  C_34
REMARK                            x       y       z     vdW  Elec       q    Type
REMARK                         _______ _______ _______ _____ _____    ______ ____
ROOT
ATOM      1  C   UNL     1      -4.768  -1.622 130.302  0.00  0.00    +0.000 C 
ATOM      2  C   UNL     1      -3.229  -1.714 130.308  0.00  0.00    +0.000 C 
ATOM      3  C   UNL     1      -5.338  -0.903 131.522  0.00  0.00    +0.000 C 
ATOM      4  C   UNL     1      -4.675   0.418 131.585  0.00  0.00    +0.000 C 
ATOM      5  C   UNL     1      -4.714   1.072 130.233  0.00  0.00    +0.000 A 
ATOM      6  C   UNL     1      -5.004   0.416 129.052  0.00  0.00    +0.000 A 
ATOM      7  O   UNL     1      -5.191  -0.947 129.079  0.00  0.00    +0.000 OA
ATOM      8  C   UNL     1      -5.038   1.131 127.826  0.00  0.00    +0.000 A 
ATOM      9  C   UNL     1      -5.381   0.392 126.555  0.00  0.00    +0.000 C 
ATOM     10  C   UNL     1      -4.736   2.540 127.795  0.00  0.00    +0.000 A 
ATOM     11  C   UNL     1      -4.742   3.303 126.490  0.00  0.00    +0.000 C 
ATOM     12  C   UNL     1      -4.378   3.161 129.014  0.00  0.00    +0.000 A 
ATOM     13  C   UNL     1      -4.291   2.381 130.183  0.00  0.00    +0.000 A 
ATOM     14  C   UNL     1      -3.655   2.820 131.440  0.00  0.00    +0.000 C 
ENDROOT
BRANCH   1  15
ATOM     15  C   UNL     1      -5.317  -3.053 130.374  0.00  0.00    +0.000 C 
BRANCH  15  16
ATOM     16  C   UNL     1      -6.814  -3.058 130.297  0.00  0.00    +0.000 C 
BRANCH  16  17
ATOM     17  C   UNL     1      -7.282  -3.822 129.082  0.00  0.00    +0.000 C 
BRANCH  17  18
ATOM     18  C   UNL     1      -8.512  -3.138 128.498  0.00  0.00    +0.000 C 
ATOM     19  C   UNL     1      -9.485  -4.172 127.906  0.00  0.00    +0.000 C 
BRANCH  18  20
ATOM     20  C   UNL     1      -8.042  -2.137 127.447  0.00  0.00    +0.000 C 
BRANCH  20  21
ATOM     21  C   UNL     1      -9.005  -2.132 126.286  0.00  0.00    +0.000 C 
BRANCH  21  22
ATOM     22  C   UNL     1      -8.441  -1.393 125.098  0.00  0.00    +0.000 C 
BRANCH  22  23
ATOM     23  C   UNL     1      -8.904  -2.060 123.803  0.00  0.00    +0.000 C 
ATOM     24  C   UNL     1      -8.992  -3.589 123.961  0.00  0.00    +0.000 C 
BRANCH  23  25
ATOM     25  C   UNL     1      -7.929  -1.670 122.694  0.00  0.00    +0.000 C 
BRANCH  25  26
ATOM     26  C   UNL     1      -6.529  -1.550 123.252  0.00  0.00    +0.000 C 
BRANCH  26  27
ATOM     27  C   UNL     1      -5.598  -2.584 122.659  0.00  0.00    +0.000 C 
BRANCH  27  29
ATOM     28  C   UNL     1      -5.393  -3.074 125.090  0.00  0.00    +0.000 C 
ATOM     29  C   UNL     1      -4.689  -3.171 123.744  0.00  0.00    +0.000 C 
ATOM     30  C   UNL     1      -4.326  -4.631 123.455  0.00  0.00    +0.000 C 
ENDBRANCH  27  29
ENDBRANCH  26  27
ENDBRANCH  25  26
ENDBRANCH  23  25
ENDBRANCH  22  23
ENDBRANCH  21  22
ENDBRANCH  20  21
ENDBRANCH  18  20
ENDBRANCH  17  18
ENDBRANCH  16  17
ENDBRANCH  15  16
ENDBRANCH   1  15
BRANCH  12  31
ATOM     31  O   UNL     1      -4.035   4.620 129.052  0.00  0.00    +0.000 OA
BRANCH  31  32
ATOM     32  C   UNL     1      -2.896   5.568 129.008  0.00  0.00    +0.000 C 
ATOM     33  C   UNL     1      -2.502   6.074 130.370  0.00  0.00    +0.000 C 
ATOM     34  O   UNL     1      -2.314   5.869 128.003  0.00  0.00    +0.000 OA
ENDBRANCH  31  32
ENDBRANCH  12  31
TORSDOF 14
ENDMDL
MODEL 5
REMARK VINA RESULT:      -6.8      2.748      3.858
REMARK  Name = DL-alpha tocopheryl acetate
REMARK  23 active torsions:
REMARK  status: ('A' for Active; 'I' for Inactive)
REMARK    1  A    between atoms: C_1  and  C_2
REMARK    2  A    between atoms: C_2  and  C_3
REMARK    3  A    between atoms: C_2  and  C_4
REMARK    4  A    between atoms: C_4  and  C_5
REMARK    5  A    between atoms: C_5  and  C_6
REMARK    6  A    between atoms: C_6  and  C_7
REMARK    7  A    between atoms: C_7  and  C_8
REMARK    8  A    between atoms: C_7  and  C_9
REMARK    9  A    between atoms: C_9  and  C_10
REMARK   10  A    between atoms: C_10  and  C_11
REMARK   11  A    between atoms: C_11  and  C_12
REMARK   12  A    between atoms: C_12  and  C_13
REMARK   13  A    between atoms: C_12  and  C_14
REMARK   14  A    between atoms: C_14  and  C_15
REMARK   15  A    between atoms: C_15  and  C_16
REMARK   16  A    between atoms: C_16  and  C_17
REMARK   17  A    between atoms: C_17  and  C_18
REMARK   18  A    between atoms: C_24  and  C_25
REMARK   19  A    between atoms: C_26  and  C_27
REMARK   20  A    between atoms: C_28  and  O_29
REMARK   21  A    between atoms: O_29  and  C_30
REMARK   22  A    between atoms: C_30  and  C_31
REMARK   23  A    between atoms: C_33  and  C_34
REMARK                            x       y       z     vdW  Elec       q    Type
REMARK                         _______ _______ _______ _____ _____    ______ ____
ROOT
ATOM      1  C   UNL     1      -7.440   0.694 130.303  0.00  0.00    +0.000 C 
ATOM      2  C   UNL     1      -7.899   0.795 128.834  0.00  0.00    +0.000 C 
ATOM      3  C   UNL     1      -5.932   0.527 130.457  0.00  0.00    +0.000 C 
ATOM      4  C   UNL     1      -5.302   1.649 129.727  0.00  0.00    +0.000 C 
ATOM      5  C   UNL     1      -5.966   2.941 130.111  0.00  0.00    +0.000 A 
ATOM      6  C   UNL     1      -7.180   3.036 130.764  0.00  0.00    +0.000 A 
ATOM      7  O   UNL     1      -7.890   1.885 131.016  0.00  0.00    +0.000 OA
ATOM      8  C   UNL     1      -7.712   4.309 131.103  0.00  0.00    +0.000 A 
ATOM      9  C   UNL     1      -9.030   4.380 131.837  0.00  0.00    +0.000 C 
ATOM     10  C   UNL     1      -7.010   5.513 130.740  0.00  0.00    +0.000 A 
ATOM     11  C   UNL     1      -7.582   6.872 131.072  0.00  0.00    +0.000 C 
ATOM     12  C   UNL     1      -5.804   5.376 130.014  0.00  0.00    +0.000 A 
ATOM     13  C   UNL     1      -5.368   4.089 129.643  0.00  0.00    +0.000 A 
ATOM     14  C   UNL     1      -4.311   3.814 128.650  0.00  0.00    +0.000 C 
ENDROOT
BRANCH   1  15
ATOM     15  C   UNL     1      -8.058  -0.581 130.892  0.00  0.00    +0.000 C 
BRANCH  15  16
ATOM     16  C   UNL     1      -7.091  -1.725 130.829  0.00  0.00    +0.000 C 
BRANCH  16  17
ATOM     17  C   UNL     1      -7.812  -3.016 130.529  0.00  0.00    +0.000 C 
BRANCH  17  18
ATOM     18  C   UNL     1      -7.390  -3.523 129.156  0.00  0.00    +0.000 C 
ATOM     19  C   UNL     1      -6.322  -2.605 128.536  0.00  0.00    +0.000 C 
BRANCH  18  20
ATOM     20  C   UNL     1      -8.636  -3.613 128.280  0.00  0.00    +0.000 C 
BRANCH  20  21
ATOM     21  C   UNL     1      -8.425  -2.817 127.016  0.00  0.00    +0.000 C 
BRANCH  21  22
ATOM     22  C   UNL     1      -8.591  -3.674 125.785  0.00  0.00    +0.000 C 
BRANCH  22  23
ATOM     23  C   UNL     1      -8.309  -2.844 124.533  0.00  0.00    +0.000 C 
ATOM     24  C   UNL     1      -9.333  -3.139 123.421  0.00  0.00    +0.000 C 
BRANCH  23  25
ATOM     25  C   UNL     1      -6.884  -3.150 124.074  0.00  0.00    +0.000 C 
BRANCH  25  26
ATOM     26  C   UNL     1      -6.121  -1.861 123.863  0.00  0.00    +0.000 C 
BRANCH  26  27
ATOM     27  C   UNL     1      -5.488  -1.368 125.145  0.00  0.00    +0.000 C 
BRANCH  27  29
ATOM     28  C   UNL     1      -5.109   0.866 126.173  0.00  0.00    +0.000 C 
ATOM     29  C   UNL     1      -6.166  -0.076 125.613  0.00  0.00    +0.000 C 
ATOM     30  C   UNL     1      -6.924   0.615 124.476  0.00  0.00    +0.000 C 
ENDBRANCH  27  29
ENDBRANCH  26  27
ENDBRANCH  25  26
ENDBRANCH  23  25
ENDBRANCH  22  23
ENDBRANCH  21  22
ENDBRANCH  20  21
ENDBRANCH  18  20
ENDBRANCH  17  18
ENDBRANCH  16  17
ENDBRANCH  15  16
ENDBRANCH   1  15
BRANCH  12  31
ATOM     31  O   UNL     1      -5.030   6.587 129.588  0.00  0.00    +0.000 OA
BRANCH  31  32
ATOM     32  C   UNL     1      -4.043   7.587 130.062  0.00  0.00    +0.000 C 
ATOM     33  C   UNL     1      -2.846   6.959 130.725  0.00  0.00    +0.000 C 
ATOM     34  O   UNL     1      -4.155   8.769 129.896  0.00  0.00    +0.000 OA
ENDBRANCH  31  32
ENDBRANCH  12  31
TORSDOF 14
ENDMDL
MODEL 6
REMARK VINA RESULT:      -6.8      1.740      3.865
REMARK  Name = DL-alpha tocopheryl acetate
REMARK  23 active torsions:
REMARK  status: ('A' for Active; 'I' for Inactive)
REMARK    1  A    between atoms: C_1  and  C_2
REMARK    2  A    between atoms: C_2  and  C_3
REMARK    3  A    between atoms: C_2  and  C_4
REMARK    4  A    between atoms: C_4  and  C_5
REMARK    5  A    between atoms: C_5  and  C_6
REMARK    6  A    between atoms: C_6  and  C_7
REMARK    7  A    between atoms: C_7  and  C_8
REMARK    8  A    between atoms: C_7  and  C_9
REMARK    9  A    between atoms: C_9  and  C_10
REMARK   10  A    between atoms: C_10  and  C_11
REMARK   11  A    between atoms: C_11  and  C_12
REMARK   12  A    between atoms: C_12  and  C_13
REMARK   13  A    between atoms: C_12  and  C_14
REMARK   14  A    between atoms: C_14  and  C_15
REMARK   15  A    between atoms: C_15  and  C_16
REMARK   16  A    between atoms: C_16  and  C_17
REMARK   17  A    between atoms: C_17  and  C_18
REMARK   18  A    between atoms: C_24  and  C_25
REMARK   19  A    between atoms: C_26  and  C_27
REMARK   20  A    between atoms: C_28  and  O_29
REMARK   21  A    between atoms: O_29  and  C_30
REMARK   22  A    between atoms: C_30  and  C_31
REMARK   23  A    between atoms: C_33  and  C_34
REMARK                            x       y       z     vdW  Elec       q    Type
REMARK                         _______ _______ _______ _____ _____    ______ ____
ROOT
ATOM      1  C   UNL     1      -7.296   0.141 132.456  0.00  0.00    +0.000 C 
ATOM      2  C   UNL     1      -8.594  -0.645 132.183  0.00  0.00    +0.000 C 
ATOM      3  C   UNL     1      -6.443   0.357 131.210  0.00  0.00    +0.000 C 
ATOM      4  C   UNL     1      -7.314   1.003 130.204  0.00  0.00    +0.000 C 
ATOM      5  C   UNL     1      -8.046   2.156 130.830  0.00  0.00    +0.000 A 
ATOM      6  C   UNL     1      -8.158   2.368 132.191  0.00  0.00    +0.000 A 
ATOM      7  O   UNL     1      -7.646   1.427 133.054  0.00  0.00    +0.000 OA
ATOM      8  C   UNL     1      -8.854   3.504 132.683  0.00  0.00    +0.000 A 
ATOM      9  C   UNL     1      -8.941   3.721 134.175  0.00  0.00    +0.000 C 
ATOM     10  C   UNL     1      -9.479   4.427 131.771  0.00  0.00    +0.000 A 
ATOM     11  C   UNL     1     -10.246   5.624 132.287  0.00  0.00    +0.000 C 
ATOM     12  C   UNL     1      -9.399   4.140 130.389  0.00  0.00    +0.000 A 
ATOM     13  C   UNL     1      -8.759   2.958 129.968  0.00  0.00    +0.000 A 
ATOM     14  C   UNL     1      -8.856   2.388 128.611  0.00  0.00    +0.000 C 
ENDROOT
BRANCH   1  15
ATOM     15  C   UNL     1      -6.435  -0.704 133.404  0.00  0.00    +0.000 C 
BRANCH  15  16
ATOM     16  C   UNL     1      -6.860  -2.142 133.375  0.00  0.00    +0.000 C 
BRANCH  16  17
ATOM     17  C   UNL     1      -5.666  -3.045 133.187  0.00  0.00    +0.000 C 
BRANCH  17  18
ATOM     18  C   UNL     1      -5.826  -3.832 131.892  0.00  0.00    +0.000 C 
ATOM     19  C   UNL     1      -5.262  -5.256 132.041  0.00  0.00    +0.000 C 
BRANCH  18  20
ATOM     20  C   UNL     1      -5.124  -3.059 130.779  0.00  0.00    +0.000 C 
BRANCH  20  21
ATOM     21  C   UNL     1      -5.963  -3.102 129.526  0.00  0.00    +0.000 C 
BRANCH  21  22
ATOM     22  C   UNL     1      -7.428  -3.278 129.844  0.00  0.00    +0.000 C 
BRANCH  22  23
ATOM     23  C   UNL     1      -8.272  -2.913 128.623  0.00  0.00    +0.000 C 
ATOM     24  C   UNL     1      -9.033  -4.136 128.081  0.00  0.00    +0.000 C 
BRANCH  23  25
ATOM     25  C   UNL     1      -7.343  -2.321 127.564  0.00  0.00    +0.000 C 
BRANCH  25  26
ATOM     26  C   UNL     1      -7.993  -1.117 126.919  0.00  0.00    +0.000 C 
BRANCH  26  27
ATOM     27  C   UNL     1      -8.275  -1.352 125.452  0.00  0.00    +0.000 C 
BRANCH  27  29
ATOM     28  C   UNL     1      -8.710  -3.537 124.345  0.00  0.00    +0.000 C 
ATOM     29  C   UNL     1      -7.640  -2.666 124.988  0.00  0.00    +0.000 C 
ATOM     30  C   UNL     1      -6.501  -2.429 123.991  0.00  0.00    +0.000 C 
ENDBRANCH  27  29
ENDBRANCH  26  27
ENDBRANCH  25  26
ENDBRANCH  23  25
ENDBRANCH  22  23
ENDBRANCH  21  22
ENDBRANCH  20  21
ENDBRANCH  18  20
ENDBRANCH  17  18
ENDBRANCH  16  17
ENDBRANCH  15  16
ENDBRANCH   1  15
BRANCH  12  31
ATOM     31  O   UNL     1     -10.041   5.049 129.385  0.00  0.00    +0.000 OA
BRANCH  31  32
ATOM     32  C   UNL     1      -9.865   6.337 128.672  0.00  0.00    +0.000 C 
ATOM     33  C   UNL     1      -9.767   7.515 129.605  0.00  0.00    +0.000 C 
ATOM     34  O   UNL     1      -9.763   6.435 127.481  0.00  0.00    +0.000 OA
ENDBRANCH  31  32
ENDBRANCH  12  31
TORSDOF 14
ENDMDL
MODEL 7
REMARK VINA RESULT:      -6.8      1.485      2.605
REMARK  Name = DL-alpha tocopheryl acetate
REMARK  23 active torsions:
REMARK  status: ('A' for Active; 'I' for Inactive)
REMARK    1  A    between atoms: C_1  and  C_2
REMARK    2  A    between atoms: C_2  and  C_3
REMARK    3  A    between atoms: C_2  and  C_4
REMARK    4  A    between atoms: C_4  and  C_5
REMARK    5  A    between atoms: C_5  and  C_6
REMARK    6  A    between atoms: C_6  and  C_7
REMARK    7  A    between atoms: C_7  and  C_8
REMARK    8  A    between atoms: C_7  and  C_9
REMARK    9  A    between atoms: C_9  and  C_10
REMARK   10  A    between atoms: C_10  and  C_11
REMARK   11  A    between atoms: C_11  and  C_12
REMARK   12  A    between atoms: C_12  and  C_13
REMARK   13  A    between atoms: C_12  and  C_14
REMARK   14  A    between atoms: C_14  and  C_15
REMARK   15  A    between atoms: C_15  and  C_16
REMARK   16  A    between atoms: C_16  and  C_17
REMARK   17  A    between atoms: C_17  and  C_18
REMARK   18  A    between atoms: C_24  and  C_25
REMARK   19  A    between atoms: C_26  and  C_27
REMARK   20  A    between atoms: C_28  and  O_29
REMARK   21  A    between atoms: O_29  and  C_30
REMARK   22  A    between atoms: C_30  and  C_31
REMARK   23  A    between atoms: C_33  and  C_34
REMARK                            x       y       z     vdW  Elec       q    Type
REMARK                         _______ _______ _______ _____ _____    ______ ____
ROOT
ATOM      1  C   UNL     1      -6.814  -0.754 131.943  0.00  0.00    +0.000 C 
ATOM      2  C   UNL     1      -6.434  -0.173 133.320  0.00  0.00    +0.000 C 
ATOM      3  C   UNL     1      -8.318  -0.778 131.688  0.00  0.00    +0.000 C 
ATOM      4  C   UNL     1      -8.806   0.604 131.892  0.00  0.00    +0.000 C 
ATOM      5  C   UNL     1      -7.927   1.569 131.150  0.00  0.00    +0.000 A 
ATOM      6  C   UNL     1      -6.676   1.264 130.648  0.00  0.00    +0.000 A 
ATOM      7  O   UNL     1      -6.141   0.023 130.906  0.00  0.00    +0.000 OA
ATOM      8  C   UNL     1      -5.931   2.244 129.939  0.00  0.00    +0.000 A 
ATOM      9  C   UNL     1      -4.577   1.875 129.382  0.00  0.00    +0.000 C 
ATOM     10  C   UNL     1      -6.456   3.574 129.766  0.00  0.00    +0.000 A 
ATOM     11  C   UNL     1      -5.659   4.632 129.036  0.00  0.00    +0.000 C 
ATOM     12  C   UNL     1      -7.710   3.866 130.351  0.00  0.00    +0.000 A 
ATOM     13  C   UNL     1      -8.364   2.873 131.105  0.00  0.00    +0.000 A 
ATOM     14  C   UNL     1      -9.508   3.119 132.004  0.00  0.00    +0.000 C 
ENDROOT
BRANCH   1  15
ATOM     15  C   UNL     1      -6.369  -2.222 131.923  0.00  0.00    +0.000 C 
BRANCH  15  16
ATOM     16  C   UNL     1      -7.420  -3.092 131.301  0.00  0.00    +0.000 C 
BRANCH  16  17
ATOM     17  C   UNL     1      -6.928  -3.671 129.997  0.00  0.00    +0.000 C 
BRANCH  17  18
ATOM     18  C   UNL     1      -7.551  -2.904 128.837  0.00  0.00    +0.000 C 
ATOM     19  C   UNL     1      -8.603  -3.763 128.114  0.00  0.00    +0.000 C 
BRANCH  18  20
ATOM     20  C   UNL     1      -6.429  -2.474 127.898  0.00  0.00    +0.000 C 
BRANCH  20  21
ATOM     21  C   UNL     1      -6.390  -0.968 127.813  0.00  0.00    +0.000 C 
BRANCH  21  22
ATOM     22  C   UNL     1      -7.778  -0.376 127.793  0.00  0.00    +0.000 C 
BRANCH  22  23
ATOM     23  C   UNL     1      -7.984   0.422 126.506  0.00  0.00    +0.000 C 
ATOM     24  C   UNL     1      -8.136   1.927 126.796  0.00  0.00    +0.000 C 
BRANCH  23  25
ATOM     25  C   UNL     1      -9.215  -0.135 125.794  0.00  0.00    +0.000 C 
BRANCH  25  26
ATOM     26  C   UNL     1      -8.836  -1.354 124.982  0.00  0.00    +0.000 C 
BRANCH  26  27
ATOM     27  C   UNL     1      -7.596  -1.113 124.152  0.00  0.00    +0.000 C 
BRANCH  27  29
ATOM     28  C   UNL     1      -7.461  -3.581 124.430  0.00  0.00    +0.000 C 
ATOM     29  C   UNL     1      -6.644  -2.310 124.250  0.00  0.00    +0.000 C 
ATOM     30  C   UNL     1      -5.758  -2.437 123.008  0.00  0.00    +0.000 C 
ENDBRANCH  27  29
ENDBRANCH  26  27
ENDBRANCH  25  26
ENDBRANCH  23  25
ENDBRANCH  22  23
ENDBRANCH  21  22
ENDBRANCH  20  21
ENDBRANCH  18  20
ENDBRANCH  17  18
ENDBRANCH  16  17
ENDBRANCH  15  16
ENDBRANCH   1  15
BRANCH  12  31
ATOM     31  O   UNL     1      -8.308   5.235 130.225  0.00  0.00    +0.000 OA
BRANCH  31  32
ATOM     32  C   UNL     1      -9.331   6.016 129.488  0.00  0.00    +0.000 C 
ATOM     33  C   UNL     1     -10.095   6.964 130.374  0.00  0.00    +0.000 C 
ATOM     34  O   UNL     1      -9.507   5.940 128.304  0.00  0.00    +0.000 OA
ENDBRANCH  31  32
ENDBRANCH  12  31
TORSDOF 14
ENDMDL
MODEL 8
REMARK VINA RESULT:      -6.8      3.653      6.528
REMARK  Name = DL-alpha tocopheryl acetate
REMARK  23 active torsions:
REMARK  status: ('A' for Active; 'I' for Inactive)
REMARK    1  A    between atoms: C_1  and  C_2
REMARK    2  A    between atoms: C_2  and  C_3
REMARK    3  A    between atoms: C_2  and  C_4
REMARK    4  A    between atoms: C_4  and  C_5
REMARK    5  A    between atoms: C_5  and  C_6
REMARK    6  A    between atoms: C_6  and  C_7
REMARK    7  A    between atoms: C_7  and  C_8
REMARK    8  A    between atoms: C_7  and  C_9
REMARK    9  A    between atoms: C_9  and  C_10
REMARK   10  A    between atoms: C_10  and  C_11
REMARK   11  A    between atoms: C_11  and  C_12
REMARK   12  A    between atoms: C_12  and  C_13
REMARK   13  A    between atoms: C_12  and  C_14
REMARK   14  A    between atoms: C_14  and  C_15
REMARK   15  A    between atoms: C_15  and  C_16
REMARK   16  A    between atoms: C_16  and  C_17
REMARK   17  A    between atoms: C_17  and  C_18
REMARK   18  A    between atoms: C_24  and  C_25
REMARK   19  A    between atoms: C_26  and  C_27
REMARK   20  A    between atoms: C_28  and  O_29
REMARK   21  A    between atoms: O_29  and  C_30
REMARK   22  A    between atoms: C_30  and  C_31
REMARK   23  A    between atoms: C_33  and  C_34
REMARK                            x       y       z     vdW  Elec       q    Type
REMARK                         _______ _______ _______ _____ _____    ______ ____
ROOT
ATOM      1  C   UNL     1      -7.480  -2.681 128.581  0.00  0.00    +0.000 C 
ATOM      2  C   UNL     1      -8.277  -1.844 129.601  0.00  0.00    +0.000 C 
ATOM      3  C   UNL     1      -6.523  -1.852 127.730  0.00  0.00    +0.000 C 
ATOM      4  C   UNL     1      -5.660  -1.102 128.669  0.00  0.00    +0.000 C 
ATOM      5  C   UNL     1      -5.127  -2.031 129.723  0.00  0.00    +0.000 A 
ATOM      6  C   UNL     1      -5.628  -3.293 129.982  0.00  0.00    +0.000 A 
ATOM      7  O   UNL     1      -6.744  -3.717 129.300  0.00  0.00    +0.000 OA
ATOM      8  C   UNL     1      -5.037  -4.104 130.988  0.00  0.00    +0.000 A 
ATOM      9  C   UNL     1      -5.591  -5.487 131.232  0.00  0.00    +0.000 C 
ATOM     10  C   UNL     1      -3.934  -3.608 131.770  0.00  0.00    +0.000 A 
ATOM     11  C   UNL     1      -3.317  -4.453 132.861  0.00  0.00    +0.000 C 
ATOM     12  C   UNL     1      -3.493  -2.287 131.519  0.00  0.00    +0.000 A 
ATOM     13  C   UNL     1      -4.169  -1.508 130.561  0.00  0.00    +0.000 A 
ATOM     14  C   UNL     1      -4.018  -0.048 130.408  0.00  0.00    +0.000 C 
ENDROOT
BRANCH   1  15
ATOM     15  C   UNL     1      -8.487  -3.288 127.595  0.00  0.00    +0.000 C 
BRANCH  15  16
ATOM     16  C   UNL     1      -8.316  -2.702 126.226  0.00  0.00    +0.000 C 
BRANCH  16  17
ATOM     17  C   UNL     1      -8.319  -3.788 125.177  0.00  0.00    +0.000 C 
BRANCH  17  18
ATOM     18  C   UNL     1      -7.548  -3.310 123.953  0.00  0.00    +0.000 C 
ATOM     19  C   UNL     1      -6.105  -2.930 124.327  0.00  0.00    +0.000 C 
BRANCH  18  20
ATOM     20  C   UNL     1      -8.305  -2.131 123.349  0.00  0.00    +0.000 C 
BRANCH  20  21
ATOM     21  C   UNL     1      -7.373  -0.953 123.204  0.00  0.00    +0.000 C 
BRANCH  21  22
ATOM     22  C   UNL     1      -7.986   0.311 123.757  0.00  0.00    +0.000 C 
BRANCH  22  23
ATOM     23  C   UNL     1      -7.329   0.666 125.090  0.00  0.00    +0.000 C 
ATOM     24  C   UNL     1      -8.382   0.952 126.176  0.00  0.00    +0.000 C 
BRANCH  23  25
ATOM     25  C   UNL     1      -6.419   1.872 124.865  0.00  0.00    +0.000 C 
BRANCH  25  26
ATOM     26  C   UNL     1      -7.060   2.828 123.883  0.00  0.00    +0.000 C 
BRANCH  26  27
ATOM     27  C   UNL     1      -6.027   3.643 123.138  0.00  0.00    +0.000 C 
BRANCH  27  29
ATOM     28  C   UNL     1      -7.577   3.558 121.194  0.00  0.00    +0.000 C 
ATOM     29  C   UNL     1      -6.129   3.389 121.631  0.00  0.00    +0.000 C 
ATOM     30  C   UNL     1      -5.233   4.340 120.830  0.00  0.00    +0.000 C 
ENDBRANCH  27  29
ENDBRANCH  26  27
ENDBRANCH  25  26
ENDBRANCH  23  25
ENDBRANCH  22  23
ENDBRANCH  21  22
ENDBRANCH  20  21
ENDBRANCH  18  20
ENDBRANCH  17  18
ENDBRANCH  16  17
ENDBRANCH  15  16
ENDBRANCH   1  15
BRANCH  12  31
ATOM     31  O   UNL     1      -2.362  -1.701 132.309  0.00  0.00    +0.000 OA
BRANCH  31  32
ATOM     32  C   UNL     1      -1.884  -1.461 133.691  0.00  0.00    +0.000 C 
ATOM     33  C   UNL     1      -2.826  -0.608 134.498  0.00  0.00    +0.000 C 
ATOM     34  O   UNL     1      -0.877  -1.932 134.143  0.00  0.00    +0.000 OA
ENDBRANCH  31  32
ENDBRANCH  12  31
TORSDOF 14
ENDMDL
MODEL 9
REMARK VINA RESULT:      -6.8      2.958      6.162
REMARK  Name = DL-alpha tocopheryl acetate
REMARK  23 active torsions:
REMARK  status: ('A' for Active; 'I' for Inactive)
REMARK    1  A    between atoms: C_1  and  C_2
REMARK    2  A    between atoms: C_2  and  C_3
REMARK    3  A    between atoms: C_2  and  C_4
REMARK    4  A    between atoms: C_4  and  C_5
REMARK    5  A    between atoms: C_5  and  C_6
REMARK    6  A    between atoms: C_6  and  C_7
REMARK    7  A    between atoms: C_7  and  C_8
REMARK    8  A    between atoms: C_7  and  C_9
REMARK    9  A    between atoms: C_9  and  C_10
REMARK   10  A    between atoms: C_10  and  C_11
REMARK   11  A    between atoms: C_11  and  C_12
REMARK   12  A    between atoms: C_12  and  C_13
REMARK   13  A    between atoms: C_12  and  C_14
REMARK   14  A    between atoms: C_14  and  C_15
REMARK   15  A    between atoms: C_15  and  C_16
REMARK   16  A    between atoms: C_16  and  C_17
REMARK   17  A    between atoms: C_17  and  C_18
REMARK   18  A    between atoms: C_24  and  C_25
REMARK   19  A    between atoms: C_26  and  C_27
REMARK   20  A    between atoms: C_28  and  O_29
REMARK   21  A    between atoms: O_29  and  C_30
REMARK   22  A    between atoms: C_30  and  C_31
REMARK   23  A    between atoms: C_33  and  C_34
REMARK                            x       y       z     vdW  Elec       q    Type
REMARK                         _______ _______ _______ _____ _____    ______ ____
ROOT
ATOM      1  C   UNL     1      -7.188  -2.458 128.414  0.00  0.00    +0.000 C 
ATOM      2  C   UNL     1      -5.735  -2.235 127.950  0.00  0.00    +0.000 C 
ATOM      3  C   UNL     1      -7.759  -1.285 129.207  0.00  0.00    +0.000 C 
ATOM      4  C   UNL     1      -7.594  -0.081 128.363  0.00  0.00    +0.000 C 
ATOM      5  C   UNL     1      -8.083  -0.364 126.971  0.00  0.00    +0.000 A 
ATOM      6  C   UNL     1      -8.321  -1.628 126.465  0.00  0.00    +0.000 A 
ATOM      7  O   UNL     1      -8.017  -2.722 127.242  0.00  0.00    +0.000 OA
ATOM      8  C   UNL     1      -8.805  -1.788 125.139  0.00  0.00    +0.000 A 
ATOM      9  C   UNL     1      -9.078  -3.180 124.622  0.00  0.00    +0.000 C 
ATOM     10  C   UNL     1      -9.020  -0.639 124.298  0.00  0.00    +0.000 A 
ATOM     11  C   UNL     1      -9.508  -0.801 122.876  0.00  0.00    +0.000 C 
ATOM     12  C   UNL     1      -8.702   0.633 124.830  0.00  0.00    +0.000 A 
ATOM     13  C   UNL     1      -8.154   0.719 126.124  0.00  0.00    +0.000 A 
ATOM     14  C   UNL     1      -7.510   1.921 126.685  0.00  0.00    +0.000 C 
ENDROOT
BRANCH   1  15
ATOM     15  C   UNL     1      -7.186  -3.648 129.382  0.00  0.00    +0.000 C 
BRANCH  15  16
ATOM     16  C   UNL     1      -5.899  -3.715 130.147  0.00  0.00    +0.000 C 
BRANCH  16  17
ATOM     17  C   UNL     1      -6.165  -3.846 131.626  0.00  0.00    +0.000 C 
BRANCH  17  18
ATOM     18  C   UNL     1      -5.616  -2.623 132.349  0.00  0.00    +0.000 C 
ATOM     19  C   UNL     1      -6.755  -1.674 132.763  0.00  0.00    +0.000 C 
BRANCH  18  20
ATOM     20  C   UNL     1      -4.616  -1.936 131.423  0.00  0.00    +0.000 C 
BRANCH  20  21
ATOM     21  C   UNL     1      -4.883  -0.451 131.403  0.00  0.00    +0.000 C 
BRANCH  21  22
ATOM     22  C   UNL     1      -4.296   0.202 130.176  0.00  0.00    +0.000 C 
BRANCH  22  23
ATOM     23  C   UNL     1      -4.121   1.701 130.419  0.00  0.00    +0.000 C 
ATOM     24  C   UNL     1      -4.121   2.029 131.923  0.00  0.00    +0.000 C 
BRANCH  23  25
ATOM     25  C   UNL     1      -5.245   2.434 129.688  0.00  0.00    +0.000 C 
BRANCH  25  26
ATOM     26  C   UNL     1      -4.663   3.436 128.716  0.00  0.00    +0.000 C 
BRANCH  26  27
ATOM     27  C   UNL     1      -3.237   3.096 128.345  0.00  0.00    +0.000 C 
BRANCH  27  29
ATOM     28  C   UNL     1      -1.647   3.047 126.432  0.00  0.00    +0.000 C 
ATOM     29  C   UNL     1      -2.856   3.762 127.019  0.00  0.00    +0.000 C 
ATOM     30  C   UNL     1      -4.011   3.733 126.013  0.00  0.00    +0.000 C 
ENDBRANCH  27  29
ENDBRANCH  26  27
ENDBRANCH  25  26
ENDBRANCH  23  25
ENDBRANCH  22  23
ENDBRANCH  21  22
ENDBRANCH  20  21
ENDBRANCH  18  20
ENDBRANCH  17  18
ENDBRANCH  16  17
ENDBRANCH  15  16
ENDBRANCH   1  15
BRANCH  12  31
ATOM     31  O   UNL     1      -8.884   1.870 124.003  0.00  0.00    +0.000 OA
BRANCH  31  32
ATOM     32  C   UNL     1      -8.241   2.695 122.952  0.00  0.00    +0.000 C 
ATOM     33  C   UNL     1      -6.737   2.670 123.025  0.00  0.00    +0.000 C 
ATOM     34  O   UNL     1      -8.846   3.286 122.102  0.00  0.00    +0.000 OA
ENDBRANCH  31  32
ENDBRANCH  12  31
TORSDOF 14
ENDMDL
