MODEL 1
REMARK VINA RESULT:      -6.3      0.000      0.000
REMARK  Name = DL-dimyristoylphosphatidylglycerol
REMARK  41 active torsions:
REMARK  status: ('A' for Active; 'I' for Inactive)
REMARK    1  A    between atoms: C_1  and  C_2
REMARK    2  A    between atoms: C_2  and  C_3
REMARK    3  A    between atoms: C_3  and  C_4
REMARK    4  A    between atoms: C_4  and  C_5
REMARK    5  A    between atoms: C_5  and  C_6
REMARK    6  A    between atoms: C_6  and  C_7
REMARK    7  A    between atoms: C_7  and  C_8
REMARK    8  A    between atoms: C_8  and  C_9
REMARK    9  A    between atoms: C_9  and  C_10
REMARK   10  A    between atoms: C_10  and  C_11
REMARK   11  A    between atoms: C_11  and  C_12
REMARK   12  A    between atoms: C_12  and  C_13
REMARK   13  A    between atoms: C_13  and  C_14
REMARK   14  A    between atoms: C_14  and  O_16
REMARK   15  A    between atoms: O_16  and  C_17
REMARK   16  A    between atoms: C_17  and  C_18
REMARK   17  A    between atoms: C_18  and  C_19
REMARK   18  A    between atoms: C_18  and  O_30
REMARK   19  A    between atoms: C_19  and  O_20
REMARK   20  A    between atoms: O_20  and  P_21
REMARK   21  A    between atoms: P_21  and  O_22
REMARK   22  A    between atoms: P_21  and  O_24
REMARK   23  A    between atoms: O_24  and  C_25
REMARK   24  A    between atoms: C_25  and  C_26
REMARK   25  A    between atoms: C_26  and  O_27
REMARK   26  A    between atoms: C_26  and  C_28
REMARK   27  A    between atoms: C_28  and  O_29
REMARK   28  A    between atoms: O_30  and  C_31
REMARK   29  A    between atoms: C_31  and  C_33
REMARK   30  A    between atoms: C_33  and  C_34
REMARK   31  A    between atoms: C_34  and  C_35
REMARK   32  A    between atoms: C_35  and  C_36
REMARK   33  A    between atoms: C_36  and  C_37
REMARK   34  A    between atoms: C_37  and  C_38
REMARK   35  A    between atoms: C_38  and  C_39
REMARK   36  A    between atoms: C_39  and  C_40
REMARK   37  A    between atoms: C_40  and  C_41
REMARK   38  A    between atoms: C_41  and  C_42
REMARK   39  A    between atoms: C_42  and  C_43
REMARK   40  A    between atoms: C_43  and  C_44
REMARK   41  A    between atoms: C_44  and  C_45
REMARK                            x       y       z     vdW  Elec       q    Type
REMARK                         _______ _______ _______ _____ _____    ______ ____
ROOT
ATOM      1  C   UNL     1      -8.475   3.575 130.172  0.00  0.00    +0.000 C 
ENDROOT
BRANCH   1   2
ATOM      2  O   UNL     1      -8.480   2.126 130.002  0.00  0.00    +0.000 OA
BRANCH   2   3
ATOM      3  C   UNL     1      -7.937   1.409 131.034  0.00  0.00    +0.000 C 
ATOM      4  O   UNL     1      -6.880   1.699 131.588  0.00  0.00    +0.000 OA
BRANCH   3   5
ATOM      5  C   UNL     1      -8.791   0.228 131.440  0.00  0.00    +0.000 C 
BRANCH   5   6
ATOM      6  C   UNL     1      -7.974  -1.065 131.325  0.00  0.00    +0.000 C 
BRANCH   6   7
ATOM      7  C   UNL     1      -7.813  -1.525 129.884  0.00  0.00    +0.000 C 
BRANCH   7   8
ATOM      8  C   UNL     1      -7.961  -3.040 129.792  0.00  0.00    +0.000 C 
BRANCH   8   9
ATOM      9  C   UNL     1      -8.396  -3.442 128.391  0.00  0.00    +0.000 C 
BRANCH   9  10
ATOM     10  C   UNL     1      -7.741  -2.543 127.356  0.00  0.00    +0.000 C 
BRANCH  10  11
ATOM     11  C   UNL     1      -8.729  -2.220 126.248  0.00  0.00    +0.000 C 
BRANCH  11  12
ATOM     12  C   UNL     1      -8.883  -3.415 125.325  0.00  0.00    +0.000 C 
BRANCH  12  13
ATOM     13  C   UNL     1      -8.696  -2.984 123.882  0.00  0.00    +0.000 C 
BRANCH  13  14
ATOM     14  C   UNL     1      -7.280  -2.474 123.668  0.00  0.00    +0.000 C 
BRANCH  14  15
ATOM     15  C   UNL     1      -6.274  -3.536 124.078  0.00  0.00    +0.000 C 
BRANCH  15  16
ATOM     16  C   UNL     1      -4.981  -3.376 123.293  0.00  0.00    +0.000 C 
ATOM     17  C   UNL     1      -4.010  -4.487 123.641  0.00  0.00    +0.000 C 
ENDBRANCH  15  16
ENDBRANCH  14  15
ENDBRANCH  13  14
ENDBRANCH  12  13
ENDBRANCH  11  12
ENDBRANCH  10  11
ENDBRANCH   9  10
ENDBRANCH   8   9
ENDBRANCH   7   8
ENDBRANCH   6   7
ENDBRANCH   5   6
ENDBRANCH   3   5
ENDBRANCH   2   3
ENDBRANCH   1   2
BRANCH   1  18
ATOM     18  C   UNL     1      -7.701   4.268 129.022  0.00  0.00    +0.000 C 
BRANCH  18  19
ATOM     19  O   UNL     1      -8.598   4.948 128.107  0.00  0.00    +0.000 OA
BRANCH  19  20
ATOM     20  C   UNL     1      -8.213   4.962 126.804  0.00  0.00    +0.000 C 
ATOM     21  O   UNL     1      -8.829   5.565 125.924  0.00  0.00    +0.000 OA
BRANCH  20  22
ATOM     22  C   UNL     1      -6.953   4.149 126.567  0.00  0.00    +0.000 C 
BRANCH  22  23
ATOM     23  C   UNL     1      -6.115   4.795 125.457  0.00  0.00    +0.000 C 
BRANCH  23  24
ATOM     24  C   UNL     1      -4.856   4.004 125.128  0.00  0.00    +0.000 C 
BRANCH  24  25
ATOM     25  C   UNL     1      -4.783   2.746 125.989  0.00  0.00    +0.000 C 
BRANCH  25  26
ATOM     26  C   UNL     1      -3.514   2.747 126.825  0.00  0.00    +0.000 C 
BRANCH  26  27
ATOM     27  C   UNL     1      -3.857   2.805 128.305  0.00  0.00    +0.000 C 
BRANCH  27  28
ATOM     28  C   UNL     1      -3.293   4.074 128.921  0.00  0.00    +0.000 C 
BRANCH  28  29
ATOM     29  C   UNL     1      -2.490   4.841 127.885  0.00  0.00    +0.000 C 
BRANCH  29  30
ATOM     30  C   UNL     1      -2.463   6.318 128.238  0.00  0.00    +0.000 C 
BRANCH  30  31
ATOM     31  C   UNL     1      -2.230   6.494 129.729  0.00  0.00    +0.000 C 
BRANCH  31  32
ATOM     32  C   UNL     1      -3.318   7.370 130.328  0.00  0.00    +0.000 C 
BRANCH  32  34
ATOM     33  C   UNL     1      -3.914   6.656 132.643  0.00  0.00    +0.000 C 
ATOM     34  C   UNL     1      -3.063   7.595 131.812  0.00  0.00    +0.000 C 
ENDBRANCH  32  34
ENDBRANCH  31  32
ENDBRANCH  30  31
ENDBRANCH  29  30
ENDBRANCH  28  29
ENDBRANCH  27  28
ENDBRANCH  26  27
ENDBRANCH  25  26
ENDBRANCH  24  25
ENDBRANCH  23  24
ENDBRANCH  22  23
ENDBRANCH  20  22
ENDBRANCH  19  20
ENDBRANCH  18  19
ENDBRANCH   1  18
BRANCH   1  35
ATOM     35  C   UNL     1      -9.908   4.103 130.201  0.00  0.00    +0.000 C 
BRANCH  35  36
ATOM     36  O   UNL     1     -10.048   5.123 131.176  0.00  0.00    +0.000 OA
BRANCH  36  37
ATOM     37  P   UNL     1     -11.316   6.203 130.710  0.00  0.00    +0.000 P 
ATOM     38  O   UNL     1     -11.801   5.168 129.699  0.00  0.00    +0.000 OA
BRANCH  37  39
ATOM     39  O   UNL     1     -10.115   7.090 130.034  0.00  0.00    +0.000 OA
ATOM     40  H   UNL     1     -10.078   6.903 129.075  0.00  0.00    +0.000 HD
ENDBRANCH  37  39
BRANCH  37  41
ATOM     41  O   UNL     1     -12.584   7.284 130.244  0.00  0.00    +0.000 OA
BRANCH  41  42
ATOM     42  C   UNL     1     -12.996   7.112 128.889  0.00  0.00    +0.000 C 
BRANCH  42  43
ATOM     43  C   UNL     1     -12.662   8.302 128.018  0.00  0.00    +0.000 C 
BRANCH  43  44
ATOM     44  O   UNL     1     -12.110   9.350 128.819  0.00  0.00    +0.000 OA
ATOM     45  H   UNL     1     -11.145   9.337 128.701  0.00  0.00    +0.000 HD
ENDBRANCH  43  44
BRANCH  43  46
ATOM     46  C   UNL     1     -11.649   7.841 126.956  0.00  0.00    +0.000 C 
BRANCH  46  47
ATOM     47  O   UNL     1     -11.160   6.537 127.232  0.00  0.00    +0.000 OA
ATOM     48  H   UNL     1     -11.568   6.249 128.067  0.00  0.00    +0.000 HD
ENDBRANCH  46  47
ENDBRANCH  43  46
ENDBRANCH  42  43
ENDBRANCH  41  42
ENDBRANCH  37  41
ENDBRANCH  36  37
ENDBRANCH  35  36
ENDBRANCH   1  35
TORSDOF 39
ENDMDL
MODEL 2
REMARK VINA RESULT:      -6.2      2.866      6.147
REMARK  Name = DL-dimyristoylphosphatidylglycerol
REMARK  41 active torsions:
REMARK  status: ('A' for Active; 'I' for Inactive)
REMARK    1  A    between atoms: C_1  and  C_2
REMARK    2  A    between atoms: C_2  and  C_3
REMARK    3  A    between atoms: C_3  and  C_4
REMARK    4  A    between atoms: C_4  and  C_5
REMARK    5  A    between atoms: C_5  and  C_6
REMARK    6  A    between atoms: C_6  and  C_7
REMARK    7  A    between atoms: C_7  and  C_8
REMARK    8  A    between atoms: C_8  and  C_9
REMARK    9  A    between atoms: C_9  and  C_10
REMARK   10  A    between atoms: C_10  and  C_11
REMARK   11  A    between atoms: C_11  and  C_12
REMARK   12  A    between atoms: C_12  and  C_13
REMARK   13  A    between atoms: C_13  and  C_14
REMARK   14  A    between atoms: C_14  and  O_16
REMARK   15  A    between atoms: O_16  and  C_17
REMARK   16  A    between atoms: C_17  and  C_18
REMARK   17  A    between atoms: C_18  and  C_19
REMARK   18  A    between atoms: C_18  and  O_30
REMARK   19  A    between atoms: C_19  and  O_20
REMARK   20  A    between atoms: O_20  and  P_21
REMARK   21  A    between atoms: P_21  and  O_22
REMARK   22  A    between atoms: P_21  and  O_24
REMARK   23  A    between atoms: O_24  and  C_25
REMARK   24  A    between atoms: C_25  and  C_26
REMARK   25  A    between atoms: C_26  and  O_27
REMARK   26  A    between atoms: C_26  and  C_28
REMARK   27  A    between atoms: C_28  and  O_29
REMARK   28  A    between atoms: O_30  and  C_31
REMARK   29  A    between atoms: C_31  and  C_33
REMARK   30  A    between atoms: C_33  and  C_34
REMARK   31  A    between atoms: C_34  and  C_35
REMARK   32  A    between atoms: C_35  and  C_36
REMARK   33  A    between atoms: C_36  and  C_37
REMARK   34  A    between atoms: C_37  and  C_38
REMARK   35  A    between atoms: C_38  and  C_39
REMARK   36  A    between atoms: C_39  and  C_40
REMARK   37  A    between atoms: C_40  and  C_41
REMARK   38  A    between atoms: C_41  and  C_42
REMARK   39  A    between atoms: C_42  and  C_43
REMARK   40  A    between atoms: C_43  and  C_44
REMARK   41  A    between atoms: C_44  and  C_45
REMARK                            x       y       z     vdW  Elec       q    Type
REMARK                         _______ _______ _______ _____ _____    ______ ____
ROOT
ATOM      1  C   UNL     1      -8.544   4.272 132.019  0.00  0.00    +0.000 C 
ENDROOT
BRANCH   1   2
ATOM      2  O   UNL     1      -8.700   3.219 133.018  0.00  0.00    +0.000 OA
BRANCH   2   3
ATOM      3  C   UNL     1      -8.994   1.977 132.524  0.00  0.00    +0.000 C 
ATOM      4  O   UNL     1     -10.093   1.661 132.074  0.00  0.00    +0.000 OA
BRANCH   3   5
ATOM      5  C   UNL     1      -7.812   1.034 132.567  0.00  0.00    +0.000 C 
BRANCH   5   6
ATOM      6  C   UNL     1      -8.229  -0.343 132.034  0.00  0.00    +0.000 C 
BRANCH   6   7
ATOM      7  C   UNL     1      -7.777  -0.573 130.600  0.00  0.00    +0.000 C 
BRANCH   7   8
ATOM      8  C   UNL     1      -8.065  -2.010 130.178  0.00  0.00    +0.000 C 
BRANCH   8   9
ATOM      9  C   UNL     1      -7.158  -2.972 130.930  0.00  0.00    +0.000 C 
BRANCH   9  10
ATOM     10  C   UNL     1      -6.528  -3.966 129.969  0.00  0.00    +0.000 C 
BRANCH  10  11
ATOM     11  C   UNL     1      -5.041  -4.089 130.250  0.00  0.00    +0.000 C 
BRANCH  11  12
ATOM     12  C   UNL     1      -4.254  -3.238 129.270  0.00  0.00    +0.000 C 
BRANCH  12  13
ATOM     13  C   UNL     1      -3.473  -2.173 130.018  0.00  0.00    +0.000 C 
BRANCH  13  14
ATOM     14  C   UNL     1      -4.223  -0.851 129.977  0.00  0.00    +0.000 C 
BRANCH  14  15
ATOM     15  C   UNL     1      -4.143  -0.162 131.329  0.00  0.00    +0.000 C 
BRANCH  15  16
ATOM     16  C   UNL     1      -3.776  -1.162 132.416  0.00  0.00    +0.000 C 
ATOM     17  C   UNL     1      -4.918  -1.312 133.402  0.00  0.00    +0.000 C 
ENDBRANCH  15  16
ENDBRANCH  14  15
ENDBRANCH  13  14
ENDBRANCH  12  13
ENDBRANCH  11  12
ENDBRANCH  10  11
ENDBRANCH   9  10
ENDBRANCH   8   9
ENDBRANCH   7   8
ENDBRANCH   6   7
ENDBRANCH   5   6
ENDBRANCH   3   5
ENDBRANCH   2   3
ENDBRANCH   1   2
BRANCH   1  18
ATOM     18  C   UNL     1      -7.706   3.776 130.814  0.00  0.00    +0.000 C 
BRANCH  18  19
ATOM     19  O   UNL     1      -8.405   3.976 129.558  0.00  0.00    +0.000 OA
BRANCH  19  20
ATOM     20  C   UNL     1      -7.667   3.779 128.434  0.00  0.00    +0.000 C 
ATOM     21  O   UNL     1      -6.741   4.517 128.095  0.00  0.00    +0.000 OA
BRANCH  20  22
ATOM     22  C   UNL     1      -8.122   2.558 127.653  0.00  0.00    +0.000 C 
BRANCH  22  23
ATOM     23  C   UNL     1      -7.012   1.501 127.643  0.00  0.00    +0.000 C 
BRANCH  23  24
ATOM     24  C   UNL     1      -7.458   0.179 127.031  0.00  0.00    +0.000 C 
BRANCH  24  25
ATOM     25  C   UNL     1      -6.259  -0.748 126.847  0.00  0.00    +0.000 C 
BRANCH  25  26
ATOM     26  C   UNL     1      -6.721  -2.185 126.669  0.00  0.00    +0.000 C 
BRANCH  26  27
ATOM     27  C   UNL     1      -8.235  -2.271 126.785  0.00  0.00    +0.000 C 
BRANCH  27  28
ATOM     28  C   UNL     1      -8.716  -3.632 126.313  0.00  0.00    +0.000 C 
BRANCH  28  29
ATOM     29  C   UNL     1      -8.259  -3.878 124.886  0.00  0.00    +0.000 C 
BRANCH  29  30
ATOM     30  C   UNL     1      -9.317  -3.392 123.910  0.00  0.00    +0.000 C 
BRANCH  30  31
ATOM     31  C   UNL     1      -8.674  -2.547 122.824  0.00  0.00    +0.000 C 
BRANCH  31  32
ATOM     32  C   UNL     1      -9.181  -1.116 122.905  0.00  0.00    +0.000 C 
BRANCH  32  34
ATOM     33  C   UNL     1      -6.736  -0.714 123.188  0.00  0.00    +0.000 C 
ATOM     34  C   UNL     1      -8.126  -0.212 123.526  0.00  0.00    +0.000 C 
ENDBRANCH  32  34
ENDBRANCH  31  32
ENDBRANCH  30  31
ENDBRANCH  29  30
ENDBRANCH  28  29
ENDBRANCH  27  28
ENDBRANCH  26  27
ENDBRANCH  25  26
ENDBRANCH  24  25
ENDBRANCH  23  24
ENDBRANCH  22  23
ENDBRANCH  20  22
ENDBRANCH  19  20
ENDBRANCH  18  19
ENDBRANCH   1  18
BRANCH   1  35
ATOM     35  C   UNL     1      -9.915   4.728 131.523  0.00  0.00    +0.000 C 
BRANCH  35  36
ATOM     36  O   UNL     1     -10.014   6.142 131.550  0.00  0.00    +0.000 OA
BRANCH  36  37
ATOM     37  P   UNL     1     -11.411   6.645 130.662  0.00  0.00    +0.000 P 
ATOM     38  O   UNL     1     -12.270   6.364 131.892  0.00  0.00    +0.000 OA
BRANCH  37  39
ATOM     39  O   UNL     1     -11.203   5.251 129.825  0.00  0.00    +0.000 OA
ATOM     40  H   UNL     1     -10.246   5.079 129.719  0.00  0.00    +0.000 HD
ENDBRANCH  37  39
BRANCH  37  41
ATOM     41  O   UNL     1     -12.809   7.147 129.775  0.00  0.00    +0.000 OA
BRANCH  41  42
ATOM     42  C   UNL     1     -12.709   6.881 128.377  0.00  0.00    +0.000 C 
BRANCH  42  43
ATOM     43  C   UNL     1     -12.355   8.109 127.568  0.00  0.00    +0.000 C 
BRANCH  43  44
ATOM     44  O   UNL     1     -12.454   9.276 128.390  0.00  0.00    +0.000 OA
ATOM     45  H   UNL     1     -12.434  10.053 127.805  0.00  0.00    +0.000 HD
ENDBRANCH  43  44
BRANCH  43  46
ATOM     46  C   UNL     1     -10.918   7.934 127.048  0.00  0.00    +0.000 C 
BRANCH  46  47
ATOM     47  O   UNL     1     -10.518   6.572 127.067  0.00  0.00    +0.000 OA
ATOM     48  H   UNL     1     -11.048   6.127 127.750  0.00  0.00    +0.000 HD
ENDBRANCH  46  47
ENDBRANCH  43  46
ENDBRANCH  42  43
ENDBRANCH  41  42
ENDBRANCH  37  41
ENDBRANCH  36  37
ENDBRANCH  35  36
ENDBRANCH   1  35
TORSDOF 39
ENDMDL
MODEL 3
REMARK VINA RESULT:      -6.1      1.705      7.415
REMARK  Name = DL-dimyristoylphosphatidylglycerol
REMARK  41 active torsions:
REMARK  status: ('A' for Active; 'I' for Inactive)
REMARK    1  A    between atoms: C_1  and  C_2
REMARK    2  A    between atoms: C_2  and  C_3
REMARK    3  A    between atoms: C_3  and  C_4
REMARK    4  A    between atoms: C_4  and  C_5
REMARK    5  A    between atoms: C_5  and  C_6
REMARK    6  A    between atoms: C_6  and  C_7
REMARK    7  A    between atoms: C_7  and  C_8
REMARK    8  A    between atoms: C_8  and  C_9
REMARK    9  A    between atoms: C_9  and  C_10
REMARK   10  A    between atoms: C_10  and  C_11
REMARK   11  A    between atoms: C_11  and  C_12
REMARK   12  A    between atoms: C_12  and  C_13
REMARK   13  A    between atoms: C_13  and  C_14
REMARK   14  A    between atoms: C_14  and  O_16
REMARK   15  A    between atoms: O_16  and  C_17
REMARK   16  A    between atoms: C_17  and  C_18
REMARK   17  A    between atoms: C_18  and  C_19
REMARK   18  A    between atoms: C_18  and  O_30
REMARK   19  A    between atoms: C_19  and  O_20
REMARK   20  A    between atoms: O_20  and  P_21
REMARK   21  A    between atoms: P_21  and  O_22
REMARK   22  A    between atoms: P_21  and  O_24
REMARK   23  A    between atoms: O_24  and  C_25
REMARK   24  A    between atoms: C_25  and  C_26
REMARK   25  A    between atoms: C_26  and  O_27
REMARK   26  A    between atoms: C_26  and  C_28
REMARK   27  A    between atoms: C_28  and  O_29
REMARK   28  A    between atoms: O_30  and  C_31
REMARK   29  A    between atoms: C_31  and  C_33
REMARK   30  A    between atoms: C_33  and  C_34
REMARK   31  A    between atoms: C_34  and  C_35
REMARK   32  A    between atoms: C_35  and  C_36
REMARK   33  A    between atoms: C_36  and  C_37
REMARK   34  A    between atoms: C_37  and  C_38
REMARK   35  A    between atoms: C_38  and  C_39
REMARK   36  A    between atoms: C_39  and  C_40
REMARK   37  A    between atoms: C_40  and  C_41
REMARK   38  A    between atoms: C_41  and  C_42
REMARK   39  A    between atoms: C_42  and  C_43
REMARK   40  A    between atoms: C_43  and  C_44
REMARK   41  A    between atoms: C_44  and  C_45
REMARK                            x       y       z     vdW  Elec       q    Type
REMARK                         _______ _______ _______ _____ _____    ______ ____
ROOT
ATOM      1  C   UNL     1      -8.663   3.358 130.509  0.00  0.00    +0.000 C 
ENDROOT
BRANCH   1   2
ATOM      2  O   UNL     1      -7.959   4.419 129.798  0.00  0.00    +0.000 OA
BRANCH   2   3
ATOM      3  C   UNL     1      -8.206   4.492 128.453  0.00  0.00    +0.000 C 
ATOM      4  O   UNL     1      -8.869   5.381 127.926  0.00  0.00    +0.000 OA
BRANCH   3   5
ATOM      5  C   UNL     1      -7.551   3.371 127.676  0.00  0.00    +0.000 C 
BRANCH   5   6
ATOM      6  C   UNL     1      -6.037   3.608 127.603  0.00  0.00    +0.000 C 
BRANCH   6   7
ATOM      7  C   UNL     1      -5.415   3.014 126.348  0.00  0.00    +0.000 C 
BRANCH   7   8
ATOM      8  C   UNL     1      -3.934   2.729 126.574  0.00  0.00    +0.000 C 
BRANCH   8   9
ATOM      9  C   UNL     1      -3.510   3.209 127.954  0.00  0.00    +0.000 C 
BRANCH   9  10
ATOM     10  C   UNL     1      -2.462   4.302 127.834  0.00  0.00    +0.000 C 
BRANCH  10  11
ATOM     11  C   UNL     1      -3.134   5.663 127.783  0.00  0.00    +0.000 C 
BRANCH  11  12
ATOM     12  C   UNL     1      -3.428   6.151 129.189  0.00  0.00    +0.000 C 
BRANCH  12  13
ATOM     13  C   UNL     1      -2.155   6.145 130.017  0.00  0.00    +0.000 C 
BRANCH  13  14
ATOM     14  C   UNL     1      -2.425   5.536 131.384  0.00  0.00    +0.000 C 
BRANCH  14  15
ATOM     15  C   UNL     1      -3.752   4.794 131.374  0.00  0.00    +0.000 C 
BRANCH  15  16
ATOM     16  C   UNL     1      -3.547   3.331 131.737  0.00  0.00    +0.000 C 
ATOM     17  C   UNL     1      -2.663   3.211 132.963  0.00  0.00    +0.000 C 
ENDBRANCH  15  16
ENDBRANCH  14  15
ENDBRANCH  13  14
ENDBRANCH  12  13
ENDBRANCH  11  12
ENDBRANCH  10  11
ENDBRANCH   9  10
ENDBRANCH   8   9
ENDBRANCH   7   8
ENDBRANCH   6   7
ENDBRANCH   5   6
ENDBRANCH   3   5
ENDBRANCH   2   3
ENDBRANCH   1   2
BRANCH   1  18
ATOM     18  C   UNL     1      -8.026   3.102 131.899  0.00  0.00    +0.000 C 
BRANCH  18  19
ATOM     19  O   UNL     1      -8.550   1.897 132.514  0.00  0.00    +0.000 OA
BRANCH  19  20
ATOM     20  C   UNL     1      -7.876   0.751 132.234  0.00  0.00    +0.000 C 
ATOM     21  O   UNL     1      -8.433  -0.330 132.035  0.00  0.00    +0.000 OA
BRANCH  20  22
ATOM     22  C   UNL     1      -6.372   0.960 132.202  0.00  0.00    +0.000 C 
BRANCH  22  23
ATOM     23  C   UNL     1      -5.691  -0.243 131.540  0.00  0.00    +0.000 C 
BRANCH  23  24
ATOM     24  C   UNL     1      -4.868   0.140 130.317  0.00  0.00    +0.000 C 
BRANCH  24  25
ATOM     25  C   UNL     1      -5.779   0.335 129.109  0.00  0.00    +0.000 C 
BRANCH  25  26
ATOM     26  C   UNL     1      -5.412  -0.641 128.003  0.00  0.00    +0.000 C 
BRANCH  26  27
ATOM     27  C   UNL     1      -6.330  -0.453 126.806  0.00  0.00    +0.000 C 
BRANCH  27  28
ATOM     28  C   UNL     1      -6.866  -1.798 126.345  0.00  0.00    +0.000 C 
BRANCH  28  29
ATOM     29  C   UNL     1      -8.309  -1.962 126.788  0.00  0.00    +0.000 C 
BRANCH  29  30
ATOM     30  C   UNL     1      -8.668  -3.437 126.854  0.00  0.00    +0.000 C 
BRANCH  30  31
ATOM     31  C   UNL     1      -8.725  -3.894 128.302  0.00  0.00    +0.000 C 
BRANCH  31  32
ATOM     32  C   UNL     1      -8.320  -2.756 129.225  0.00  0.00    +0.000 C 
BRANCH  32  34
ATOM     33  C   UNL     1      -6.089  -3.668 129.866  0.00  0.00    +0.000 C 
ATOM     34  C   UNL     1      -7.465  -3.279 130.371  0.00  0.00    +0.000 C 
ENDBRANCH  32  34
ENDBRANCH  31  32
ENDBRANCH  30  31
ENDBRANCH  29  30
ENDBRANCH  28  29
ENDBRANCH  27  28
ENDBRANCH  26  27
ENDBRANCH  25  26
ENDBRANCH  24  25
ENDBRANCH  23  24
ENDBRANCH  22  23
ENDBRANCH  20  22
ENDBRANCH  19  20
ENDBRANCH  18  19
ENDBRANCH   1  18
BRANCH   1  35
ATOM     35  C   UNL     1     -10.132   3.735 130.692  0.00  0.00    +0.000 C 
BRANCH  35  36
ATOM     36  O   UNL     1     -10.268   4.779 131.641  0.00  0.00    +0.000 OA
BRANCH  36  37
ATOM     37  P   UNL     1     -11.179   6.078 130.953  0.00  0.00    +0.000 P 
ATOM     38  O   UNL     1     -11.572   5.163 129.795  0.00  0.00    +0.000 OA
BRANCH  37  39
ATOM     39  O   UNL     1      -9.715   6.744 130.635  0.00  0.00    +0.000 OA
ATOM     40  H   UNL     1      -9.738   7.695 130.862  0.00  0.00    +0.000 HD
ENDBRANCH  37  39
BRANCH  37  41
ATOM     41  O   UNL     1     -12.090   7.377 130.263  0.00  0.00    +0.000 OA
BRANCH  41  42
ATOM     42  C   UNL     1     -12.569   7.089 128.951  0.00  0.00    +0.000 C 
BRANCH  42  43
ATOM     43  C   UNL     1     -12.382   8.241 127.990  0.00  0.00    +0.000 C 
BRANCH  43  44
ATOM     44  O   UNL     1     -12.492   9.483 128.693  0.00  0.00    +0.000 OA
ATOM     45  H   UNL     1     -12.738  10.168 128.049  0.00  0.00    +0.000 HD
ENDBRANCH  43  44
BRANCH  43  46
ATOM     46  C   UNL     1     -10.989   8.103 127.353  0.00  0.00    +0.000 C 
BRANCH  46  47
ATOM     47  O   UNL     1      -9.956   8.303 128.308  0.00  0.00    +0.000 OA
ATOM     48  H   UNL     1      -9.113   8.114 127.861  0.00  0.00    +0.000 HD
ENDBRANCH  46  47
ENDBRANCH  43  46
ENDBRANCH  42  43
ENDBRANCH  41  42
ENDBRANCH  37  41
ENDBRANCH  36  37
ENDBRANCH  35  36
ENDBRANCH   1  35
TORSDOF 39
ENDMDL
MODEL 4
REMARK VINA RESULT:      -6.1      2.352      4.109
REMARK  Name = DL-dimyristoylphosphatidylglycerol
REMARK  41 active torsions:
REMARK  status: ('A' for Active; 'I' for Inactive)
REMARK    1  A    between atoms: C_1  and  C_2
REMARK    2  A    between atoms: C_2  and  C_3
REMARK    3  A    between atoms: C_3  and  C_4
REMARK    4  A    between atoms: C_4  and  C_5
REMARK    5  A    between atoms: C_5  and  C_6
REMARK    6  A    between atoms: C_6  and  C_7
REMARK    7  A    between atoms: C_7  and  C_8
REMARK    8  A    between atoms: C_8  and  C_9
REMARK    9  A    between atoms: C_9  and  C_10
REMARK   10  A    between atoms: C_10  and  C_11
REMARK   11  A    between atoms: C_11  and  C_12
REMARK   12  A    between atoms: C_12  and  C_13
REMARK   13  A    between atoms: C_13  and  C_14
REMARK   14  A    between atoms: C_14  and  O_16
REMARK   15  A    between atoms: O_16  and  C_17
REMARK   16  A    between atoms: C_17  and  C_18
REMARK   17  A    between atoms: C_18  and  C_19
REMARK   18  A    between atoms: C_18  and  O_30
REMARK   19  A    between atoms: C_19  and  O_20
REMARK   20  A    between atoms: O_20  and  P_21
REMARK   21  A    between atoms: P_21  and  O_22
REMARK   22  A    between atoms: P_21  and  O_24
REMARK   23  A    between atoms: O_24  and  C_25
REMARK   24  A    between atoms: C_25  and  C_26
REMARK   25  A    between atoms: C_26  and  O_27
REMARK   26  A    between atoms: C_26  and  C_28
REMARK   27  A    between atoms: C_28  and  O_29
REMARK   28  A    between atoms: O_30  and  C_31
REMARK   29  A    between atoms: C_31  and  C_33
REMARK   30  A    between atoms: C_33  and  C_34
REMARK   31  A    between atoms: C_34  and  C_35
REMARK   32  A    between atoms: C_35  and  C_36
REMARK   33  A    between atoms: C_36  and  C_37
REMARK   34  A    between atoms: C_37  and  C_38
REMARK   35  A    between atoms: C_38  and  C_39
REMARK   36  A    between atoms: C_39  and  C_40
REMARK   37  A    between atoms: C_40  and  C_41
REMARK   38  A    between atoms: C_41  and  C_42
REMARK   39  A    between atoms: C_42  and  C_43
REMARK   40  A    between atoms: C_43  and  C_44
REMARK   41  A    between atoms: C_44  and  C_45
REMARK                            x       y       z     vdW  Elec       q    Type
REMARK                         _______ _______ _______ _____ _____    ______ ____
ROOT
ATOM      1  C   UNL     1      -7.828   3.445 131.807  0.00  0.00    +0.000 C 
ENDROOT
BRANCH   1   2
ATOM      2  O   UNL     1      -8.767   2.368 132.106  0.00  0.00    +0.000 OA
BRANCH   2   3
ATOM      3  C   UNL     1      -8.207   1.212 132.579  0.00  0.00    +0.000 C 
ATOM      4  O   UNL     1      -7.354   1.176 133.462  0.00  0.00    +0.000 OA
BRANCH   3   5
ATOM      5  C   UNL     1      -8.770  -0.025 131.916  0.00  0.00    +0.000 C 
BRANCH   5   6
ATOM      6  C   UNL     1      -7.624  -0.889 131.375  0.00  0.00    +0.000 C 
BRANCH   6   7
ATOM      7  C   UNL     1      -7.692  -1.068 129.866  0.00  0.00    +0.000 C 
BRANCH   7   8
ATOM      8  C   UNL     1      -6.606  -2.031 129.397  0.00  0.00    +0.000 C 
BRANCH   8   9
ATOM      9  C   UNL     1      -7.166  -3.441 129.282  0.00  0.00    +0.000 C 
BRANCH   9  10
ATOM     10  C   UNL     1      -8.641  -3.396 128.922  0.00  0.00    +0.000 C 
BRANCH  10  11
ATOM     11  C   UNL     1      -8.838  -3.830 127.480  0.00  0.00    +0.000 C 
BRANCH  11  12
ATOM     12  C   UNL     1      -8.809  -2.619 126.565  0.00  0.00    +0.000 C 
BRANCH  12  13
ATOM     13  C   UNL     1      -9.171  -3.029 125.149  0.00  0.00    +0.000 C 
BRANCH  13  14
ATOM     14  C   UNL     1      -8.811  -1.918 124.176  0.00  0.00    +0.000 C 
BRANCH  14  15
ATOM     15  C   UNL     1      -8.052  -2.488 122.988  0.00  0.00    +0.000 C 
BRANCH  15  16
ATOM     16  C   UNL     1      -6.760  -1.717 122.763  0.00  0.00    +0.000 C 
ATOM     17  C   UNL     1      -5.997  -1.573 124.065  0.00  0.00    +0.000 C 
ENDBRANCH  15  16
ENDBRANCH  14  15
ENDBRANCH  13  14
ENDBRANCH  12  13
ENDBRANCH  11  12
ENDBRANCH  10  11
ENDBRANCH   9  10
ENDBRANCH   8   9
ENDBRANCH   7   8
ENDBRANCH   6   7
ENDBRANCH   5   6
ENDBRANCH   3   5
ENDBRANCH   2   3
ENDBRANCH   1   2
BRANCH   1  18
ATOM     18  C   UNL     1      -7.084   3.181 130.473  0.00  0.00    +0.000 C 
BRANCH  18  19
ATOM     19  O   UNL     1      -7.795   3.748 129.343  0.00  0.00    +0.000 OA
BRANCH  19  20
ATOM     20  C   UNL     1      -8.497   2.865 128.584  0.00  0.00    +0.000 C 
ATOM     21  O   UNL     1      -9.505   2.282 128.985  0.00  0.00    +0.000 OA
BRANCH  20  22
ATOM     22  C   UNL     1      -7.891   2.683 127.204  0.00  0.00    +0.000 C 
BRANCH  22  23
ATOM     23  C   UNL     1      -7.618   1.198 126.944  0.00  0.00    +0.000 C 
BRANCH  23  24
ATOM     24  C   UNL     1      -6.138   0.845 127.021  0.00  0.00    +0.000 C 
BRANCH  24  25
ATOM     25  C   UNL     1      -5.310   2.099 127.287  0.00  0.00    +0.000 C 
BRANCH  25  26
ATOM     26  C   UNL     1      -4.408   2.401 126.101  0.00  0.00    +0.000 C 
BRANCH  26  27
ATOM     27  C   UNL     1      -4.392   3.895 125.817  0.00  0.00    +0.000 C 
BRANCH  27  28
ATOM     28  C   UNL     1      -5.653   4.296 125.070  0.00  0.00    +0.000 C 
BRANCH  28  29
ATOM     29  C   UNL     1      -5.359   4.422 123.586  0.00  0.00    +0.000 C 
BRANCH  29  30
ATOM     30  C   UNL     1      -6.158   3.389 122.808  0.00  0.00    +0.000 C 
BRANCH  30  31
ATOM     31  C   UNL     1      -7.472   3.108 123.515  0.00  0.00    +0.000 C 
BRANCH  31  32
ATOM     32  C   UNL     1      -7.887   1.663 123.291  0.00  0.00    +0.000 C 
BRANCH  32  34
ATOM     33  C   UNL     1     -10.139   1.527 124.354  0.00  0.00    +0.000 C 
ATOM     34  C   UNL     1      -9.386   1.572 123.040  0.00  0.00    +0.000 C 
ENDBRANCH  32  34
ENDBRANCH  31  32
ENDBRANCH  30  31
ENDBRANCH  29  30
ENDBRANCH  28  29
ENDBRANCH  27  28
ENDBRANCH  26  27
ENDBRANCH  25  26
ENDBRANCH  24  25
ENDBRANCH  23  24
ENDBRANCH  22  23
ENDBRANCH  20  22
ENDBRANCH  19  20
ENDBRANCH  18  19
ENDBRANCH   1  18
BRANCH   1  35
ATOM     35  C   UNL     1      -8.572   4.776 131.711  0.00  0.00    +0.000 C 
BRANCH  35  36
ATOM     36  O   UNL     1      -9.972   4.577 131.811  0.00  0.00    +0.000 OA
BRANCH  36  37
ATOM     37  P   UNL     1     -10.795   5.697 130.782  0.00  0.00    +0.000 P 
ATOM     38  O   UNL     1      -9.515   6.526 130.693  0.00  0.00    +0.000 OA
BRANCH  37  39
ATOM     39  O   UNL     1     -11.612   6.120 132.138  0.00  0.00    +0.000 OA
ATOM     40  H   UNL     1     -12.536   6.338 131.903  0.00  0.00    +0.000 HD
ENDBRANCH  37  39
BRANCH  37  41
ATOM     41  O   UNL     1     -11.618   6.819 129.753  0.00  0.00    +0.000 OA
BRANCH  41  42
ATOM     42  C   UNL     1     -10.756   7.821 129.217  0.00  0.00    +0.000 C 
BRANCH  42  43
ATOM     43  C   UNL     1     -10.580   7.706 127.719  0.00  0.00    +0.000 C 
BRANCH  43  44
ATOM     44  O   UNL     1      -9.795   6.550 127.411  0.00  0.00    +0.000 OA
ATOM     45  H   UNL     1      -8.943   6.639 127.870  0.00  0.00    +0.000 HD
ENDBRANCH  43  44
BRANCH  43  46
ATOM     46  C   UNL     1     -11.977   7.595 127.086  0.00  0.00    +0.000 C 
BRANCH  46  47
ATOM     47  O   UNL     1     -12.043   6.531 126.148  0.00  0.00    +0.000 OA
ATOM     48  H   UNL     1     -12.715   5.907 126.471  0.00  0.00    +0.000 HD
ENDBRANCH  46  47
ENDBRANCH  43  46
ENDBRANCH  42  43
ENDBRANCH  41  42
ENDBRANCH  37  41
ENDBRANCH  36  37
ENDBRANCH  35  36
ENDBRANCH   1  35
TORSDOF 39
ENDMDL
MODEL 5
REMARK VINA RESULT:      -6.1      2.142      4.517
REMARK  Name = DL-dimyristoylphosphatidylglycerol
REMARK  41 active torsions:
REMARK  status: ('A' for Active; 'I' for Inactive)
REMARK    1  A    between atoms: C_1  and  C_2
REMARK    2  A    between atoms: C_2  and  C_3
REMARK    3  A    between atoms: C_3  and  C_4
REMARK    4  A    between atoms: C_4  and  C_5
REMARK    5  A    between atoms: C_5  and  C_6
REMARK    6  A    between atoms: C_6  and  C_7
REMARK    7  A    between atoms: C_7  and  C_8
REMARK    8  A    between atoms: C_8  and  C_9
REMARK    9  A    between atoms: C_9  and  C_10
REMARK   10  A    between atoms: C_10  and  C_11
REMARK   11  A    between atoms: C_11  and  C_12
REMARK   12  A    between atoms: C_12  and  C_13
REMARK   13  A    between atoms: C_13  and  C_14
REMARK   14  A    between atoms: C_14  and  O_16
REMARK   15  A    between atoms: O_16  and  C_17
REMARK   16  A    between atoms: C_17  and  C_18
REMARK   17  A    between atoms: C_18  and  C_19
REMARK   18  A    between atoms: C_18  and  O_30
REMARK   19  A    between atoms: C_19  and  O_20
REMARK   20  A    between atoms: O_20  and  P_21
REMARK   21  A    between atoms: P_21  and  O_22
REMARK   22  A    between atoms: P_21  and  O_24
REMARK   23  A    between atoms: O_24  and  C_25
REMARK   24  A    between atoms: C_25  and  C_26
REMARK   25  A    between atoms: C_26  and  O_27
REMARK   26  A    between atoms: C_26  and  C_28
REMARK   27  A    between atoms: C_28  and  O_29
REMARK   28  A    between atoms: O_30  and  C_31
REMARK   29  A    between atoms: C_31  and  C_33
REMARK   30  A    between atoms: C_33  and  C_34
REMARK   31  A    between atoms: C_34  and  C_35
REMARK   32  A    between atoms: C_35  and  C_36
REMARK   33  A    between atoms: C_36  and  C_37
REMARK   34  A    between atoms: C_37  and  C_38
REMARK   35  A    between atoms: C_38  and  C_39
REMARK   36  A    between atoms: C_39  and  C_40
REMARK   37  A    between atoms: C_40  and  C_41
REMARK   38  A    between atoms: C_41  and  C_42
REMARK   39  A    between atoms: C_42  and  C_43
REMARK   40  A    between atoms: C_43  and  C_44
REMARK   41  A    between atoms: C_44  and  C_45
REMARK                            x       y       z     vdW  Elec       q    Type
REMARK                         _______ _______ _______ _____ _____    ______ ____
ROOT
ATOM      1  C   UNL     1      -7.576   4.581 130.760  0.00  0.00    +0.000 C 
ENDROOT
BRANCH   1   2
ATOM      2  O   UNL     1      -7.465   4.057 129.403  0.00  0.00    +0.000 OA
BRANCH   2   3
ATOM      3  C   UNL     1      -8.033   2.828 129.197  0.00  0.00    +0.000 C 
ATOM      4  O   UNL     1      -9.217   2.659 128.918  0.00  0.00    +0.000 OA
BRANCH   3   5
ATOM      5  C   UNL     1      -7.039   1.695 129.325  0.00  0.00    +0.000 C 
BRANCH   5   6
ATOM      6  C   UNL     1      -7.757   0.430 129.813  0.00  0.00    +0.000 C 
BRANCH   6   7
ATOM      7  C   UNL     1      -7.055  -0.845 129.371  0.00  0.00    +0.000 C 
BRANCH   7   8
ATOM      8  C   UNL     1      -7.900  -1.584 128.339  0.00  0.00    +0.000 C 
BRANCH   8   9
ATOM      9  C   UNL     1      -8.320  -2.943 128.878  0.00  0.00    +0.000 C 
BRANCH   9  10
ATOM     10  C   UNL     1      -8.654  -3.885 127.733  0.00  0.00    +0.000 C 
BRANCH  10  11
ATOM     11  C   UNL     1      -9.004  -3.087 126.489  0.00  0.00    +0.000 C 
BRANCH  11  12
ATOM     12  C   UNL     1      -8.365  -3.722 125.267  0.00  0.00    +0.000 C 
BRANCH  12  13
ATOM     13  C   UNL     1      -7.090  -2.982 124.904  0.00  0.00    +0.000 C 
BRANCH  13  14
ATOM     14  C   UNL     1      -7.196  -2.421 123.495  0.00  0.00    +0.000 C 
BRANCH  14  15
ATOM     15  C   UNL     1      -7.145  -0.902 123.532  0.00  0.00    +0.000 C 
BRANCH  15  16
ATOM     16  C   UNL     1      -6.907  -0.411 124.952  0.00  0.00    +0.000 C 
ATOM     17  C   UNL     1      -8.056   0.467 125.406  0.00  0.00    +0.000 C 
ENDBRANCH  15  16
ENDBRANCH  14  15
ENDBRANCH  13  14
ENDBRANCH  12  13
ENDBRANCH  11  12
ENDBRANCH  10  11
ENDBRANCH   9  10
ENDBRANCH   8   9
ENDBRANCH   7   8
ENDBRANCH   6   7
ENDBRANCH   5   6
ENDBRANCH   3   5
ENDBRANCH   2   3
ENDBRANCH   1   2
BRANCH   1  18
ATOM     18  C   UNL     1      -6.205   5.089 131.274  0.00  0.00    +0.000 C 
BRANCH  18  19
ATOM     19  O   UNL     1      -5.123   4.690 130.394  0.00  0.00    +0.000 OA
BRANCH  19  20
ATOM     20  C   UNL     1      -4.417   5.705 129.829  0.00  0.00    +0.000 C 
ATOM     21  O   UNL     1      -4.894   6.818 129.605  0.00  0.00    +0.000 OA
BRANCH  20  22
ATOM     22  C   UNL     1      -2.988   5.303 129.506  0.00  0.00    +0.000 C 
BRANCH  22  23
ATOM     23  C   UNL     1      -2.976   3.949 128.788  0.00  0.00    +0.000 C 
BRANCH  23  24
ATOM     24  C   UNL     1      -3.189   4.073 127.285  0.00  0.00    +0.000 C 
BRANCH  24  25
ATOM     25  C   UNL     1      -3.155   2.694 126.632  0.00  0.00    +0.000 C 
BRANCH  25  26
ATOM     26  C   UNL     1      -4.557   2.110 126.552  0.00  0.00    +0.000 C 
BRANCH  26  27
ATOM     27  C   UNL     1      -5.562   3.197 126.205  0.00  0.00    +0.000 C 
BRANCH  27  28
ATOM     28  C   UNL     1      -5.835   3.194 124.710  0.00  0.00    +0.000 C 
BRANCH  28  29
ATOM     29  C   UNL     1      -5.507   4.554 124.120  0.00  0.00    +0.000 C 
BRANCH  29  30
ATOM     30  C   UNL     1      -5.328   4.438 122.616  0.00  0.00    +0.000 C 
BRANCH  30  31
ATOM     31  C   UNL     1      -6.030   3.193 122.102  0.00  0.00    +0.000 C 
BRANCH  31  32
ATOM     32  C   UNL     1      -5.981   3.154 120.583  0.00  0.00    +0.000 C 
BRANCH  32  34
ATOM     33  C   UNL     1      -8.329   3.922 120.240  0.00  0.00    +0.000 C 
ATOM     34  C   UNL     1      -6.868   4.242 119.994  0.00  0.00    +0.000 C 
ENDBRANCH  32  34
ENDBRANCH  31  32
ENDBRANCH  30  31
ENDBRANCH  29  30
ENDBRANCH  28  29
ENDBRANCH  27  28
ENDBRANCH  26  27
ENDBRANCH  25  26
ENDBRANCH  24  25
ENDBRANCH  23  24
ENDBRANCH  22  23
ENDBRANCH  20  22
ENDBRANCH  19  20
ENDBRANCH  18  19
ENDBRANCH   1  18
BRANCH   1  35
ATOM     35  C   UNL     1      -8.582   5.730 130.796  0.00  0.00    +0.000 C 
BRANCH  35  36
ATOM     36  O   UNL     1      -9.825   5.294 131.318  0.00  0.00    +0.000 OA
BRANCH  36  37
ATOM     37  P   UNL     1     -11.110   6.207 130.606  0.00  0.00    +0.000 P 
ATOM     38  O   UNL     1     -11.287   5.107 129.562  0.00  0.00    +0.000 OA
BRANCH  37  39
ATOM     39  O   UNL     1      -9.920   7.223 130.116  0.00  0.00    +0.000 OA
ATOM     40  H   UNL     1      -9.190   6.702 129.729  0.00  0.00    +0.000 HD
ENDBRANCH  37  39
BRANCH  37  41
ATOM     41  O   UNL     1     -12.394   7.121 129.893  0.00  0.00    +0.000 OA
BRANCH  41  42
ATOM     42  C   UNL     1     -12.582   6.833 128.509  0.00  0.00    +0.000 C 
BRANCH  42  43
ATOM     43  C   UNL     1     -12.200   7.988 127.610  0.00  0.00    +0.000 C 
BRANCH  43  44
ATOM     44  O   UNL     1     -11.659   9.055 128.396  0.00  0.00    +0.000 OA
ATOM     45  H   UNL     1     -10.729   9.171 128.138  0.00  0.00    +0.000 HD
ENDBRANCH  43  44
BRANCH  43  46
ATOM     46  C   UNL     1     -11.157   7.477 126.602  0.00  0.00    +0.000 C 
BRANCH  46  47
ATOM     47  O   UNL     1     -10.146   6.711 127.239  0.00  0.00    +0.000 OA
ATOM     48  H   UNL     1      -9.983   5.931 126.681  0.00  0.00    +0.000 HD
ENDBRANCH  46  47
ENDBRANCH  43  46
ENDBRANCH  42  43
ENDBRANCH  41  42
ENDBRANCH  37  41
ENDBRANCH  36  37
ENDBRANCH  35  36
ENDBRANCH   1  35
TORSDOF 39
ENDMDL
MODEL 6
REMARK VINA RESULT:      -6.1      2.876      8.102
REMARK  Name = DL-dimyristoylphosphatidylglycerol
REMARK  41 active torsions:
REMARK  status: ('A' for Active; 'I' for Inactive)
REMARK    1  A    between atoms: C_1  and  C_2
REMARK    2  A    between atoms: C_2  and  C_3
REMARK    3  A    between atoms: C_3  and  C_4
REMARK    4  A    between atoms: C_4  and  C_5
REMARK    5  A    between atoms: C_5  and  C_6
REMARK    6  A    between atoms: C_6  and  C_7
REMARK    7  A    between atoms: C_7  and  C_8
REMARK    8  A    between atoms: C_8  and  C_9
REMARK    9  A    between atoms: C_9  and  C_10
REMARK   10  A    between atoms: C_10  and  C_11
REMARK   11  A    between atoms: C_11  and  C_12
REMARK   12  A    between atoms: C_12  and  C_13
REMARK   13  A    between atoms: C_13  and  C_14
REMARK   14  A    between atoms: C_14  and  O_16
REMARK   15  A    between atoms: O_16  and  C_17
REMARK   16  A    between atoms: C_17  and  C_18
REMARK   17  A    between atoms: C_18  and  C_19
REMARK   18  A    between atoms: C_18  and  O_30
REMARK   19  A    between atoms: C_19  and  O_20
REMARK   20  A    between atoms: O_20  and  P_21
REMARK   21  A    between atoms: P_21  and  O_22
REMARK   22  A    between atoms: P_21  and  O_24
REMARK   23  A    between atoms: O_24  and  C_25
REMARK   24  A    between atoms: C_25  and  C_26
REMARK   25  A    between atoms: C_26  and  O_27
REMARK   26  A    between atoms: C_26  and  C_28
REMARK   27  A    between atoms: C_28  and  O_29
REMARK   28  A    between atoms: O_30  and  C_31
REMARK   29  A    between atoms: C_31  and  C_33
REMARK   30  A    between atoms: C_33  and  C_34
REMARK   31  A    between atoms: C_34  and  C_35
REMARK   32  A    between atoms: C_35  and  C_36
REMARK   33  A    between atoms: C_36  and  C_37
REMARK   34  A    between atoms: C_37  and  C_38
REMARK   35  A    between atoms: C_38  and  C_39
REMARK   36  A    between atoms: C_39  and  C_40
REMARK   37  A    between atoms: C_40  and  C_41
REMARK   38  A    between atoms: C_41  and  C_42
REMARK   39  A    between atoms: C_42  and  C_43
REMARK   40  A    between atoms: C_43  and  C_44
REMARK   41  A    between atoms: C_44  and  C_45
REMARK                            x       y       z     vdW  Elec       q    Type
REMARK                         _______ _______ _______ _____ _____    ______ ____
ROOT
ATOM      1  C   UNL     1      -4.234   4.610 127.828  0.00  0.00    +0.000 C 
ENDROOT
BRANCH   1   2
ATOM      2  O   UNL     1      -5.104   5.319 128.760  0.00  0.00    +0.000 OA
BRANCH   2   3
ATOM      3  C   UNL     1      -4.464   6.066 129.712  0.00  0.00    +0.000 C 
ATOM      4  O   UNL     1      -3.307   6.466 129.606  0.00  0.00    +0.000 OA
BRANCH   3   5
ATOM      5  C   UNL     1      -5.342   6.372 130.905  0.00  0.00    +0.000 C 
BRANCH   5   6
ATOM      6  C   UNL     1      -6.749   5.809 130.670  0.00  0.00    +0.000 C 
BRANCH   6   7
ATOM      7  C   UNL     1      -7.782   6.408 131.612  0.00  0.00    +0.000 C 
BRANCH   7   8
ATOM      8  C   UNL     1      -9.099   6.637 130.879  0.00  0.00    +0.000 C 
BRANCH   8   9
ATOM      9  C   UNL     1      -9.429   5.438 130.002  0.00  0.00    +0.000 C 
BRANCH   9  10
ATOM     10  C   UNL     1     -10.735   4.801 130.449  0.00  0.00    +0.000 C 
BRANCH  10  11
ATOM     11  C   UNL     1     -10.520   3.325 130.738  0.00  0.00    +0.000 C 
BRANCH  11  12
ATOM     12  C   UNL     1      -9.255   2.840 130.054  0.00  0.00    +0.000 C 
BRANCH  12  13
ATOM     13  C   UNL     1      -8.435   1.999 131.015  0.00  0.00    +0.000 C 
BRANCH  13  14
ATOM     14  C   UNL     1      -9.343   1.058 131.789  0.00  0.00    +0.000 C 
BRANCH  14  15
ATOM     15  C   UNL     1      -8.721  -0.327 131.862  0.00  0.00    +0.000 C 
BRANCH  15  16
ATOM     16  C   UNL     1      -7.431  -0.290 132.668  0.00  0.00    +0.000 C 
ATOM     17  C   UNL     1      -6.521  -1.432 132.260  0.00  0.00    +0.000 C 
ENDBRANCH  15  16
ENDBRANCH  14  15
ENDBRANCH  13  14
ENDBRANCH  12  13
ENDBRANCH  11  12
ENDBRANCH  10  11
ENDBRANCH   9  10
ENDBRANCH   8   9
ENDBRANCH   7   8
ENDBRANCH   6   7
ENDBRANCH   5   6
ENDBRANCH   3   5
ENDBRANCH   2   3
ENDBRANCH   1   2
BRANCH   1  18
ATOM     18  C   UNL     1      -4.007   3.146 128.281  0.00  0.00    +0.000 C 
BRANCH  18  19
ATOM     19  O   UNL     1      -5.262   2.466 128.540  0.00  0.00    +0.000 OA
BRANCH  19  20
ATOM     20  C   UNL     1      -5.413   1.255 127.940  0.00  0.00    +0.000 C 
ATOM     21  O   UNL     1      -5.427   1.104 126.718  0.00  0.00    +0.000 OA
BRANCH  20  22
ATOM     22  C   UNL     1      -5.566   0.129 128.946  0.00  0.00    +0.000 C 
BRANCH  22  23
ATOM     23  C   UNL     1      -6.913  -0.573 128.745  0.00  0.00    +0.000 C 
BRANCH  23  24
ATOM     24  C   UNL     1      -6.775  -2.077 128.542  0.00  0.00    +0.000 C 
BRANCH  24  25
ATOM     25  C   UNL     1      -8.075  -2.781 128.920  0.00  0.00    +0.000 C 
BRANCH  25  26
ATOM     26  C   UNL     1      -8.653  -3.509 127.717  0.00  0.00    +0.000 C 
BRANCH  26  27
ATOM     27  C   UNL     1      -8.661  -2.596 126.501  0.00  0.00    +0.000 C 
BRANCH  27  28
ATOM     28  C   UNL     1      -9.588  -3.155 125.436  0.00  0.00    +0.000 C 
BRANCH  28  29
ATOM     29  C   UNL     1      -8.808  -3.442 124.166  0.00  0.00    +0.000 C 
BRANCH  29  30
ATOM     30  C   UNL     1      -8.694  -2.178 123.330  0.00  0.00    +0.000 C 
BRANCH  30  31
ATOM     31  C   UNL     1      -7.245  -1.936 122.947  0.00  0.00    +0.000 C 
BRANCH  31  32
ATOM     32  C   UNL     1      -6.554  -1.102 124.013  0.00  0.00    +0.000 C 
BRANCH  32  34
ATOM     33  C   UNL     1      -5.104  -3.123 123.835  0.00  0.00    +0.000 C 
ATOM     34  C   UNL     1      -5.424  -1.891 124.658  0.00  0.00    +0.000 C 
ENDBRANCH  32  34
ENDBRANCH  31  32
ENDBRANCH  30  31
ENDBRANCH  29  30
ENDBRANCH  28  29
ENDBRANCH  27  28
ENDBRANCH  26  27
ENDBRANCH  25  26
ENDBRANCH  24  25
ENDBRANCH  23  24
ENDBRANCH  22  23
ENDBRANCH  20  22
ENDBRANCH  19  20
ENDBRANCH  18  19
ENDBRANCH   1  18
BRANCH   1  35
ATOM     35  C   UNL     1      -4.852   4.613 126.431  0.00  0.00    +0.000 C 
BRANCH  35  36
ATOM     36  O   UNL     1      -6.059   5.355 126.417  0.00  0.00    +0.000 OA
BRANCH  36  37
ATOM     37  P   UNL     1      -7.355   4.352 125.863  0.00  0.00    +0.000 P 
ATOM     38  O   UNL     1      -8.183   5.605 125.590  0.00  0.00    +0.000 OA
BRANCH  37  39
ATOM     39  O   UNL     1      -7.515   3.937 127.441  0.00  0.00    +0.000 OA
ATOM     40  H   UNL     1      -8.387   4.238 127.766  0.00  0.00    +0.000 HD
ENDBRANCH  37  39
BRANCH  37  41
ATOM     41  O   UNL     1      -8.651   3.348 125.310  0.00  0.00    +0.000 OA
BRANCH  41  42
ATOM     42  C   UNL     1      -8.205   2.227 124.551  0.00  0.00    +0.000 C 
BRANCH  42  43
ATOM     43  C   UNL     1      -9.296   1.626 123.693  0.00  0.00    +0.000 C 
BRANCH  43  44
ATOM     44  O   UNL     1     -10.572   1.856 124.299  0.00  0.00    +0.000 OA
ATOM     45  H   UNL     1     -11.121   2.341 123.660  0.00  0.00    +0.000 HD
ENDBRANCH  43  44
BRANCH  43  46
ATOM     46  C   UNL     1      -9.228   2.291 122.308  0.00  0.00    +0.000 C 
BRANCH  46  47
ATOM     47  O   UNL     1      -8.519   3.520 122.353  0.00  0.00    +0.000 OA
ATOM     48  H   UNL     1      -7.869   3.449 123.072  0.00  0.00    +0.000 HD
ENDBRANCH  46  47
ENDBRANCH  43  46
ENDBRANCH  42  43
ENDBRANCH  41  42
ENDBRANCH  37  41
ENDBRANCH  36  37
ENDBRANCH  35  36
ENDBRANCH   1  35
TORSDOF 39
ENDMDL
MODEL 7
REMARK VINA RESULT:      -6.1      1.976      6.501
REMARK  Name = DL-dimyristoylphosphatidylglycerol
REMARK  41 active torsions:
REMARK  status: ('A' for Active; 'I' for Inactive)
REMARK    1  A    between atoms: C_1  and  C_2
REMARK    2  A    between atoms: C_2  and  C_3
REMARK    3  A    between atoms: C_3  and  C_4
REMARK    4  A    between atoms: C_4  and  C_5
REMARK    5  A    between atoms: C_5  and  C_6
REMARK    6  A    between atoms: C_6  and  C_7
REMARK    7  A    between atoms: C_7  and  C_8
REMARK    8  A    between atoms: C_8  and  C_9
REMARK    9  A    between atoms: C_9  and  C_10
REMARK   10  A    between atoms: C_10  and  C_11
REMARK   11  A    between atoms: C_11  and  C_12
REMARK   12  A    between atoms: C_12  and  C_13
REMARK   13  A    between atoms: C_13  and  C_14
REMARK   14  A    between atoms: C_14  and  O_16
REMARK   15  A    between atoms: O_16  and  C_17
REMARK   16  A    between atoms: C_17  and  C_18
REMARK   17  A    between atoms: C_18  and  C_19
REMARK   18  A    between atoms: C_18  and  O_30
REMARK   19  A    between atoms: C_19  and  O_20
REMARK   20  A    between atoms: O_20  and  P_21
REMARK   21  A    between atoms: P_21  and  O_22
REMARK   22  A    between atoms: P_21  and  O_24
REMARK   23  A    between atoms: O_24  and  C_25
REMARK   24  A    between atoms: C_25  and  C_26
REMARK   25  A    between atoms: C_26  and  O_27
REMARK   26  A    between atoms: C_26  and  C_28
REMARK   27  A    between atoms: C_28  and  O_29
REMARK   28  A    between atoms: O_30  and  C_31
REMARK   29  A    between atoms: C_31  and  C_33
REMARK   30  A    between atoms: C_33  and  C_34
REMARK   31  A    between atoms: C_34  and  C_35
REMARK   32  A    between atoms: C_35  and  C_36
REMARK   33  A    between atoms: C_36  and  C_37
REMARK   34  A    between atoms: C_37  and  C_38
REMARK   35  A    between atoms: C_38  and  C_39
REMARK   36  A    between atoms: C_39  and  C_40
REMARK   37  A    between atoms: C_40  and  C_41
REMARK   38  A    between atoms: C_41  and  C_42
REMARK   39  A    between atoms: C_42  and  C_43
REMARK   40  A    between atoms: C_43  and  C_44
REMARK   41  A    between atoms: C_44  and  C_45
REMARK                            x       y       z     vdW  Elec       q    Type
REMARK                         _______ _______ _______ _____ _____    ______ ____
ROOT
ATOM      1  C   UNL     1      -8.354   5.004 129.826  0.00  0.00    +0.000 C 
ENDROOT
BRANCH   1   2
ATOM      2  O   UNL     1      -7.366   4.907 130.895  0.00  0.00    +0.000 OA
BRANCH   2   3
ATOM      3  C   UNL     1      -6.975   6.097 131.448  0.00  0.00    +0.000 C 
ATOM      4  O   UNL     1      -6.982   7.167 130.845  0.00  0.00    +0.000 OA
BRANCH   3   5
ATOM      5  C   UNL     1      -6.555   5.961 132.895  0.00  0.00    +0.000 C 
BRANCH   5   6
ATOM      6  C   UNL     1      -7.796   5.789 133.780  0.00  0.00    +0.000 C 
BRANCH   6   7
ATOM      7  C   UNL     1      -7.837   4.432 134.467  0.00  0.00    +0.000 C 
BRANCH   7   8
ATOM      8  C   UNL     1      -8.918   3.555 133.843  0.00  0.00    +0.000 C 
BRANCH   8   9
ATOM      9  C   UNL     1      -8.287   2.359 133.146  0.00  0.00    +0.000 C 
BRANCH   9  10
ATOM     10  C   UNL     1      -6.798   2.300 133.441  0.00  0.00    +0.000 C 
BRANCH  10  11
ATOM     11  C   UNL     1      -6.162   1.152 132.677  0.00  0.00    +0.000 C 
BRANCH  11  12
ATOM     12  C   UNL     1      -5.989   1.531 131.218  0.00  0.00    +0.000 C 
BRANCH  12  13
ATOM     13  C   UNL     1      -4.638   2.190 131.009  0.00  0.00    +0.000 C 
BRANCH  13  14
ATOM     14  C   UNL     1      -4.579   2.835 129.633  0.00  0.00    +0.000 C 
BRANCH  14  15
ATOM     15  C   UNL     1      -4.175   4.295 129.756  0.00  0.00    +0.000 C 
BRANCH  15  16
ATOM     16  C   UNL     1      -2.858   4.546 129.038  0.00  0.00    +0.000 C 
ATOM     17  C   UNL     1      -2.804   3.758 127.744  0.00  0.00    +0.000 C 
ENDBRANCH  15  16
ENDBRANCH  14  15
ENDBRANCH  13  14
ENDBRANCH  12  13
ENDBRANCH  11  12
ENDBRANCH  10  11
ENDBRANCH   9  10
ENDBRANCH   8   9
ENDBRANCH   7   8
ENDBRANCH   6   7
ENDBRANCH   5   6
ENDBRANCH   3   5
ENDBRANCH   2   3
ENDBRANCH   1   2
BRANCH   1  18
ATOM     18  C   UNL     1      -7.871   4.262 128.553  0.00  0.00    +0.000 C 
BRANCH  18  19
ATOM     19  O   UNL     1      -8.311   4.934 127.345  0.00  0.00    +0.000 OA
BRANCH  19  20
ATOM     20  C   UNL     1      -7.947   4.344 126.176  0.00  0.00    +0.000 C 
ATOM     21  O   UNL     1      -8.678   4.295 125.186  0.00  0.00    +0.000 OA
BRANCH  20  22
ATOM     22  C   UNL     1      -6.549   3.753 126.240  0.00  0.00    +0.000 C 
BRANCH  22  23
ATOM     23  C   UNL     1      -6.576   2.294 125.773  0.00  0.00    +0.000 C 
BRANCH  23  24
ATOM     24  C   UNL     1      -6.201   1.311 126.874  0.00  0.00    +0.000 C 
BRANCH  24  25
ATOM     25  C   UNL     1      -6.676  -0.094 126.511  0.00  0.00    +0.000 C 
BRANCH  25  26
ATOM     26  C   UNL     1      -5.487  -1.007 126.260  0.00  0.00    +0.000 C 
BRANCH  26  27
ATOM     27  C   UNL     1      -5.936  -2.273 125.547  0.00  0.00    +0.000 C 
BRANCH  27  28
ATOM     28  C   UNL     1      -7.397  -2.156 125.149  0.00  0.00    +0.000 C 
BRANCH  28  29
ATOM     29  C   UNL     1      -8.127  -3.449 125.467  0.00  0.00    +0.000 C 
BRANCH  29  30
ATOM     30  C   UNL     1      -9.190  -3.199 126.523  0.00  0.00    +0.000 C 
BRANCH  30  31
ATOM     31  C   UNL     1      -8.779  -3.844 127.836  0.00  0.00    +0.000 C 
BRANCH  31  32
ATOM     32  C   UNL     1      -8.208  -2.795 128.777  0.00  0.00    +0.000 C 
BRANCH  32  34
ATOM     33  C   UNL     1      -6.088  -1.956 129.789  0.00  0.00    +0.000 C 
ATOM     34  C   UNL     1      -6.781  -3.154 129.170  0.00  0.00    +0.000 C 
ENDBRANCH  32  34
ENDBRANCH  31  32
ENDBRANCH  30  31
ENDBRANCH  29  30
ENDBRANCH  28  29
ENDBRANCH  27  28
ENDBRANCH  26  27
ENDBRANCH  25  26
ENDBRANCH  24  25
ENDBRANCH  23  24
ENDBRANCH  22  23
ENDBRANCH  20  22
ENDBRANCH  19  20
ENDBRANCH  18  19
ENDBRANCH   1  18
BRANCH   1  35
ATOM     35  C   UNL     1      -9.681   4.402 130.284  0.00  0.00    +0.000 C 
BRANCH  35  36
ATOM     36  O   UNL     1     -10.297   5.227 131.259  0.00  0.00    +0.000 OA
BRANCH  36  37
ATOM     37  P   UNL     1     -11.550   6.164 130.523  0.00  0.00    +0.000 P 
ATOM     38  O   UNL     1     -10.563   7.317 130.356  0.00  0.00    +0.000 OA
BRANCH  37  39
ATOM     39  O   UNL     1     -12.191   6.224 132.031  0.00  0.00    +0.000 OA
ATOM     40  H   UNL     1     -13.014   6.751 132.010  0.00  0.00    +0.000 HD
ENDBRANCH  37  39
BRANCH  37  41
ATOM     41  O   UNL     1     -12.803   7.103 129.788  0.00  0.00    +0.000 OA
BRANCH  41  42
ATOM     42  C   UNL     1     -12.947   6.848 128.392  0.00  0.00    +0.000 C 
BRANCH  42  43
ATOM     43  C   UNL     1     -12.423   7.976 127.531  0.00  0.00    +0.000 C 
BRANCH  43  44
ATOM     44  O   UNL     1     -11.956   9.043 128.362  0.00  0.00    +0.000 OA
ATOM     45  H   UNL     1     -12.382   8.952 129.231  0.00  0.00    +0.000 HD
ENDBRANCH  43  44
BRANCH  43  46
ATOM     46  C   UNL     1     -11.277   7.420 126.669  0.00  0.00    +0.000 C 
BRANCH  46  47
ATOM     47  O   UNL     1     -10.094   7.235 127.431  0.00  0.00    +0.000 OA
ATOM     48  H   UNL     1     -10.300   6.590 128.129  0.00  0.00    +0.000 HD
ENDBRANCH  46  47
ENDBRANCH  43  46
ENDBRANCH  42  43
ENDBRANCH  41  42
ENDBRANCH  37  41
ENDBRANCH  36  37
ENDBRANCH  35  36
ENDBRANCH   1  35
TORSDOF 39
ENDMDL
MODEL 8
REMARK VINA RESULT:      -6.1      2.310      5.847
REMARK  Name = DL-dimyristoylphosphatidylglycerol
REMARK  41 active torsions:
REMARK  status: ('A' for Active; 'I' for Inactive)
REMARK    1  A    between atoms: C_1  and  C_2
REMARK    2  A    between atoms: C_2  and  C_3
REMARK    3  A    between atoms: C_3  and  C_4
REMARK    4  A    between atoms: C_4  and  C_5
REMARK    5  A    between atoms: C_5  and  C_6
REMARK    6  A    between atoms: C_6  and  C_7
REMARK    7  A    between atoms: C_7  and  C_8
REMARK    8  A    between atoms: C_8  and  C_9
REMARK    9  A    between atoms: C_9  and  C_10
REMARK   10  A    between atoms: C_10  and  C_11
REMARK   11  A    between atoms: C_11  and  C_12
REMARK   12  A    between atoms: C_12  and  C_13
REMARK   13  A    between atoms: C_13  and  C_14
REMARK   14  A    between atoms: C_14  and  O_16
REMARK   15  A    between atoms: O_16  and  C_17
REMARK   16  A    between atoms: C_17  and  C_18
REMARK   17  A    between atoms: C_18  and  C_19
REMARK   18  A    between atoms: C_18  and  O_30
REMARK   19  A    between atoms: C_19  and  O_20
REMARK   20  A    between atoms: O_20  and  P_21
REMARK   21  A    between atoms: P_21  and  O_22
REMARK   22  A    between atoms: P_21  and  O_24
REMARK   23  A    between atoms: O_24  and  C_25
REMARK   24  A    between atoms: C_25  and  C_26
REMARK   25  A    between atoms: C_26  and  O_27
REMARK   26  A    between atoms: C_26  and  C_28
REMARK   27  A    between atoms: C_28  and  O_29
REMARK   28  A    between atoms: O_30  and  C_31
REMARK   29  A    between atoms: C_31  and  C_33
REMARK   30  A    between atoms: C_33  and  C_34
REMARK   31  A    between atoms: C_34  and  C_35
REMARK   32  A    between atoms: C_35  and  C_36
REMARK   33  A    between atoms: C_36  and  C_37
REMARK   34  A    between atoms: C_37  and  C_38
REMARK   35  A    between atoms: C_38  and  C_39
REMARK   36  A    between atoms: C_39  and  C_40
REMARK   37  A    between atoms: C_40  and  C_41
REMARK   38  A    between atoms: C_41  and  C_42
REMARK   39  A    between atoms: C_42  and  C_43
REMARK   40  A    between atoms: C_43  and  C_44
REMARK   41  A    between atoms: C_44  and  C_45
REMARK                            x       y       z     vdW  Elec       q    Type
REMARK                         _______ _______ _______ _____ _____    ______ ____
ROOT
ATOM      1  C   UNL     1      -8.495   3.661 130.466  0.00  0.00    +0.000 C 
ENDROOT
BRANCH   1   2
ATOM      2  O   UNL     1      -9.415   2.738 131.121  0.00  0.00    +0.000 OA
BRANCH   2   3
ATOM      3  C   UNL     1      -8.842   1.860 132.002  0.00  0.00    +0.000 C 
ATOM      4  O   UNL     1      -8.141   2.201 132.950  0.00  0.00    +0.000 OA
BRANCH   3   5
ATOM      5  C   UNL     1      -9.186   0.418 131.698  0.00  0.00    +0.000 C 
BRANCH   5   6
ATOM      6  C   UNL     1      -8.021  -0.244 130.950  0.00  0.00    +0.000 C 
BRANCH   6   7
ATOM      7  C   UNL     1      -7.516  -1.496 131.652  0.00  0.00    +0.000 C 
BRANCH   7   8
ATOM      8  C   UNL     1      -7.354  -2.636 130.651  0.00  0.00    +0.000 C 
BRANCH   8   9
ATOM      9  C   UNL     1      -6.461  -3.722 131.230  0.00  0.00    +0.000 C 
BRANCH   9  10
ATOM     10  C   UNL     1      -5.457  -4.190 130.190  0.00  0.00    +0.000 C 
BRANCH  10  11
ATOM     11  C   UNL     1      -5.075  -3.036 129.280  0.00  0.00    +0.000 C 
BRANCH  11  12
ATOM     12  C   UNL     1      -3.657  -2.586 129.580  0.00  0.00    +0.000 C 
BRANCH  12  13
ATOM     13  C   UNL     1      -3.671  -1.478 130.617  0.00  0.00    +0.000 C 
BRANCH  13  14
ATOM     14  C   UNL     1      -4.321  -0.231 130.039  0.00  0.00    +0.000 C 
BRANCH  14  15
ATOM     15  C   UNL     1      -4.272   0.902 131.051  0.00  0.00    +0.000 C 
BRANCH  15  16
ATOM     16  C   UNL     1      -3.924   0.367 132.432  0.00  0.00    +0.000 C 
ATOM     17  C   UNL     1      -3.224   1.435 133.250  0.00  0.00    +0.000 C 
ENDBRANCH  15  16
ENDBRANCH  14  15
ENDBRANCH  13  14
ENDBRANCH  12  13
ENDBRANCH  11  12
ENDBRANCH  10  11
ENDBRANCH   9  10
ENDBRANCH   8   9
ENDBRANCH   7   8
ENDBRANCH   6   7
ENDBRANCH   5   6
ENDBRANCH   3   5
ENDBRANCH   2   3
ENDBRANCH   1   2
BRANCH   1  18
ATOM     18  C   UNL     1      -8.356   3.331 128.957  0.00  0.00    +0.000 C 
BRANCH  18  19
ATOM     19  O   UNL     1      -7.964   4.498 128.189  0.00  0.00    +0.000 OA
BRANCH  19  20
ATOM     20  C   UNL     1      -7.863   4.314 126.846  0.00  0.00    +0.000 C 
ATOM     21  O   UNL     1      -8.374   5.071 126.020  0.00  0.00    +0.000 OA
BRANCH  20  22
ATOM     22  C   UNL     1      -7.059   3.075 126.494  0.00  0.00    +0.000 C 
BRANCH  22  23
ATOM     23  C   UNL     1      -5.575   3.310 126.798  0.00  0.00    +0.000 C 
BRANCH  23  24
ATOM     24  C   UNL     1      -4.821   2.022 127.100  0.00  0.00    +0.000 C 
BRANCH  24  25
ATOM     25  C   UNL     1      -5.116   0.974 126.031  0.00  0.00    +0.000 C 
BRANCH  25  26
ATOM     26  C   UNL     1      -5.567  -0.328 126.673  0.00  0.00    +0.000 C 
BRANCH  26  27
ATOM     27  C   UNL     1      -5.685  -1.422 125.623  0.00  0.00    +0.000 C 
BRANCH  27  28
ATOM     28  C   UNL     1      -6.408  -0.890 124.397  0.00  0.00    +0.000 C 
BRANCH  28  29
ATOM     29  C   UNL     1      -6.284  -1.879 123.252  0.00  0.00    +0.000 C 
BRANCH  29  30
ATOM     30  C   UNL     1      -7.656  -2.180 122.674  0.00  0.00    +0.000 C 
BRANCH  30  31
ATOM     31  C   UNL     1      -8.736  -1.801 123.673  0.00  0.00    +0.000 C 
BRANCH  31  32
ATOM     32  C   UNL     1      -9.215  -3.036 124.418  0.00  0.00    +0.000 C 
BRANCH  32  34
ATOM     33  C   UNL     1      -8.530  -3.565 126.758  0.00  0.00    +0.000 C 
ATOM     34  C   UNL     1      -9.439  -2.717 125.889  0.00  0.00    +0.000 C 
ENDBRANCH  32  34
ENDBRANCH  31  32
ENDBRANCH  30  31
ENDBRANCH  29  30
ENDBRANCH  28  29
ENDBRANCH  27  28
ENDBRANCH  26  27
ENDBRANCH  25  26
ENDBRANCH  24  25
ENDBRANCH  23  24
ENDBRANCH  22  23
ENDBRANCH  20  22
ENDBRANCH  19  20
ENDBRANCH  18  19
ENDBRANCH   1  18
BRANCH   1  35
ATOM     35  C   UNL     1      -8.994   5.096 130.621  0.00  0.00    +0.000 C 
BRANCH  35  36
ATOM     36  O   UNL     1     -10.148   5.140 131.443  0.00  0.00    +0.000 OA
BRANCH  36  37
ATOM     37  P   UNL     1     -11.349   6.144 130.708  0.00  0.00    +0.000 P 
ATOM     38  O   UNL     1     -11.509   5.108 129.598  0.00  0.00    +0.000 OA
BRANCH  37  39
ATOM     39  O   UNL     1     -10.092   7.131 130.341  0.00  0.00    +0.000 OA
ATOM     40  H   UNL     1      -9.812   6.965 129.419  0.00  0.00    +0.000 HD
ENDBRANCH  37  39
BRANCH  37  41
ATOM     41  O   UNL     1     -12.550   7.149 129.971  0.00  0.00    +0.000 OA
BRANCH  41  42
ATOM     42  C   UNL     1     -12.734   6.874 128.584  0.00  0.00    +0.000 C 
BRANCH  42  43
ATOM     43  C   UNL     1     -12.209   7.977 127.692  0.00  0.00    +0.000 C 
BRANCH  43  44
ATOM     44  O   UNL     1     -11.609   9.003 128.489  0.00  0.00    +0.000 OA
ATOM     45  H   UNL     1     -12.061   9.011 129.350  0.00  0.00    +0.000 HD
ENDBRANCH  43  44
BRANCH  43  46
ATOM     46  C   UNL     1     -11.173   7.360 126.737  0.00  0.00    +0.000 C 
BRANCH  46  47
ATOM     47  O   UNL     1     -10.100   6.760 127.447  0.00  0.00    +0.000 OA
ATOM     48  H   UNL     1     -10.127   5.807 127.256  0.00  0.00    +0.000 HD
ENDBRANCH  46  47
ENDBRANCH  43  46
ENDBRANCH  42  43
ENDBRANCH  41  42
ENDBRANCH  37  41
ENDBRANCH  36  37
ENDBRANCH  35  36
ENDBRANCH   1  35
TORSDOF 39
ENDMDL
MODEL 9
REMARK VINA RESULT:      -6.1      2.227      4.570
REMARK  Name = DL-dimyristoylphosphatidylglycerol
REMARK  41 active torsions:
REMARK  status: ('A' for Active; 'I' for Inactive)
REMARK    1  A    between atoms: C_1  and  C_2
REMARK    2  A    between atoms: C_2  and  C_3
REMARK    3  A    between atoms: C_3  and  C_4
REMARK    4  A    between atoms: C_4  and  C_5
REMARK    5  A    between atoms: C_5  and  C_6
REMARK    6  A    between atoms: C_6  and  C_7
REMARK    7  A    between atoms: C_7  and  C_8
REMARK    8  A    between atoms: C_8  and  C_9
REMARK    9  A    between atoms: C_9  and  C_10
REMARK   10  A    between atoms: C_10  and  C_11
REMARK   11  A    between atoms: C_11  and  C_12
REMARK   12  A    between atoms: C_12  and  C_13
REMARK   13  A    between atoms: C_13  and  C_14
REMARK   14  A    between atoms: C_14  and  O_16
REMARK   15  A    between atoms: O_16  and  C_17
REMARK   16  A    between atoms: C_17  and  C_18
REMARK   17  A    between atoms: C_18  and  C_19
REMARK   18  A    between atoms: C_18  and  O_30
REMARK   19  A    between atoms: C_19  and  O_20
REMARK   20  A    between atoms: O_20  and  P_21
REMARK   21  A    between atoms: P_21  and  O_22
REMARK   22  A    between atoms: P_21  and  O_24
REMARK   23  A    between atoms: O_24  and  C_25
REMARK   24  A    between atoms: C_25  and  C_26
REMARK   25  A    between atoms: C_26  and  O_27
REMARK   26  A    between atoms: C_26  and  C_28
REMARK   27  A    between atoms: C_28  and  O_29
REMARK   28  A    between atoms: O_30  and  C_31
REMARK   29  A    between atoms: C_31  and  C_33
REMARK   30  A    between atoms: C_33  and  C_34
REMARK   31  A    between atoms: C_34  and  C_35
REMARK   32  A    between atoms: C_35  and  C_36
REMARK   33  A    between atoms: C_36  and  C_37
REMARK   34  A    between atoms: C_37  and  C_38
REMARK   35  A    between atoms: C_38  and  C_39
REMARK   36  A    between atoms: C_39  and  C_40
REMARK   37  A    between atoms: C_40  and  C_41
REMARK   38  A    between atoms: C_41  and  C_42
REMARK   39  A    between atoms: C_42  and  C_43
REMARK   40  A    between atoms: C_43  and  C_44
REMARK   41  A    between atoms: C_44  and  C_45
REMARK                            x       y       z     vdW  Elec       q    Type
REMARK                         _______ _______ _______ _____ _____    ______ ____
ROOT
ATOM      1  C   UNL     1      -8.109   3.988 131.118  0.00  0.00    +0.000 C 
ENDROOT
BRANCH   1   2
ATOM      2  O   UNL     1      -9.017   2.846 131.119  0.00  0.00    +0.000 OA
BRANCH   2   3
ATOM      3  C   UNL     1      -8.799   1.920 132.104  0.00  0.00    +0.000 C 
ATOM      4  O   UNL     1      -8.574   2.208 133.277  0.00  0.00    +0.000 OA
BRANCH   3   5
ATOM      5  C   UNL     1      -8.891   0.497 131.601  0.00  0.00    +0.000 C 
BRANCH   5   6
ATOM      6  C   UNL     1      -8.216   0.389 130.228  0.00  0.00    +0.000 C 
BRANCH   6   7
ATOM      7  C   UNL     1      -7.195  -0.737 130.168  0.00  0.00    +0.000 C 
BRANCH   7   8
ATOM      8  C   UNL     1      -7.892  -2.090 130.267  0.00  0.00    +0.000 C 
BRANCH   8   9
ATOM      9  C   UNL     1      -7.848  -2.804 128.924  0.00  0.00    +0.000 C 
BRANCH   9  10
ATOM     10  C   UNL     1      -6.509  -2.572 128.246  0.00  0.00    +0.000 C 
BRANCH  10  11
ATOM     11  C   UNL     1      -6.717  -2.298 126.766  0.00  0.00    +0.000 C 
BRANCH  11  12
ATOM     12  C   UNL     1      -5.443  -1.741 126.157  0.00  0.00    +0.000 C 
BRANCH  12  13
ATOM     13  C   UNL     1      -5.536  -1.768 124.642  0.00  0.00    +0.000 C 
BRANCH  13  14
ATOM     14  C   UNL     1      -6.927  -1.347 124.198  0.00  0.00    +0.000 C 
BRANCH  14  15
ATOM     15  C   UNL     1      -7.161  -1.756 122.753  0.00  0.00    +0.000 C 
BRANCH  15  16
ATOM     16  C   UNL     1      -8.640  -2.012 122.504  0.00  0.00    +0.000 C 
ATOM     17  C   UNL     1      -9.163  -3.060 123.466  0.00  0.00    +0.000 C 
ENDBRANCH  15  16
ENDBRANCH  14  15
ENDBRANCH  13  14
ENDBRANCH  12  13
ENDBRANCH  11  12
ENDBRANCH  10  11
ENDBRANCH   9  10
ENDBRANCH   8   9
ENDBRANCH   7   8
ENDBRANCH   6   7
ENDBRANCH   5   6
ENDBRANCH   3   5
ENDBRANCH   2   3
ENDBRANCH   1   2
BRANCH   1  18
ATOM     18  C   UNL     1      -7.375   4.116 129.759  0.00  0.00    +0.000 C 
BRANCH  18  19
ATOM     19  O   UNL     1      -5.943   3.940 129.907  0.00  0.00    +0.000 OA
BRANCH  19  20
ATOM     20  C   UNL     1      -5.271   3.594 128.778  0.00  0.00    +0.000 C 
ATOM     21  O   UNL     1      -4.126   3.140 128.785  0.00  0.00    +0.000 OA
BRANCH  20  22
ATOM     22  C   UNL     1      -6.090   3.837 127.522  0.00  0.00    +0.000 C 
BRANCH  22  23
ATOM     23  C   UNL     1      -5.857   2.703 126.518  0.00  0.00    +0.000 C 
BRANCH  23  24
ATOM     24  C   UNL     1      -6.652   1.447 126.847  0.00  0.00    +0.000 C 
BRANCH  24  25
ATOM     25  C   UNL     1      -8.149   1.742 126.798  0.00  0.00    +0.000 C 
BRANCH  25  26
ATOM     26  C   UNL     1      -8.938   0.455 126.617  0.00  0.00    +0.000 C 
BRANCH  26  27
ATOM     27  C   UNL     1      -9.812   0.542 125.376  0.00  0.00    +0.000 C 
BRANCH  27  28
ATOM     28  C   UNL     1      -9.471   1.794 124.586  0.00  0.00    +0.000 C 
BRANCH  28  29
ATOM     29  C   UNL     1      -9.572   1.513 123.097  0.00  0.00    +0.000 C 
BRANCH  29  30
ATOM     30  C   UNL     1      -8.880   2.614 122.312  0.00  0.00    +0.000 C 
BRANCH  30  31
ATOM     31  C   UNL     1      -7.872   3.328 123.196  0.00  0.00    +0.000 C 
BRANCH  31  32
ATOM     32  C   UNL     1      -6.459   2.908 122.823  0.00  0.00    +0.000 C 
BRANCH  32  34
ATOM     33  C   UNL     1      -5.304   4.367 121.162  0.00  0.00    +0.000 C 
ATOM     34  C   UNL     1      -5.573   4.131 122.635  0.00  0.00    +0.000 C 
ENDBRANCH  32  34
ENDBRANCH  31  32
ENDBRANCH  30  31
ENDBRANCH  29  30
ENDBRANCH  28  29
ENDBRANCH  27  28
ENDBRANCH  26  27
ENDBRANCH  25  26
ENDBRANCH  24  25
ENDBRANCH  23  24
ENDBRANCH  22  23
ENDBRANCH  20  22
ENDBRANCH  19  20
ENDBRANCH  18  19
ENDBRANCH   1  18
BRANCH   1  35
ATOM     35  C   UNL     1      -8.888   5.274 131.390  0.00  0.00    +0.000 C 
BRANCH  35  36
ATOM     36  O   UNL     1     -10.243   4.988 131.689  0.00  0.00    +0.000 OA
BRANCH  36  37
ATOM     37  P   UNL     1     -11.259   6.226 131.035  0.00  0.00    +0.000 P 
ATOM     38  O   UNL     1     -11.308   5.460 129.715  0.00  0.00    +0.000 OA
BRANCH  37  39
ATOM     39  O   UNL     1      -9.905   7.150 131.067  0.00  0.00    +0.000 OA
ATOM     40  H   UNL     1      -9.147   6.623 130.747  0.00  0.00    +0.000 HD
ENDBRANCH  37  39
BRANCH  37  41
ATOM     41  O   UNL     1     -12.274   7.464 130.380  0.00  0.00    +0.000 OA
BRANCH  41  42
ATOM     42  C   UNL     1     -12.681   7.201 129.039  0.00  0.00    +0.000 C 
BRANCH  42  43
ATOM     43  C   UNL     1     -12.343   8.329 128.090  0.00  0.00    +0.000 C 
BRANCH  43  44
ATOM     44  O   UNL     1     -12.560   9.588 128.735  0.00  0.00    +0.000 OA
ATOM     45  H   UNL     1     -11.737  10.101 128.670  0.00  0.00    +0.000 HD
ENDBRANCH  43  44
BRANCH  43  46
ATOM     46  C   UNL     1     -10.867   8.178 127.683  0.00  0.00    +0.000 C 
BRANCH  46  47
ATOM     47  O   UNL     1     -10.626   6.932 127.048  0.00  0.00    +0.000 OA
ATOM     48  H   UNL     1     -10.549   6.263 127.749  0.00  0.00    +0.000 HD
ENDBRANCH  46  47
ENDBRANCH  43  46
ENDBRANCH  42  43
ENDBRANCH  41  42
ENDBRANCH  37  41
ENDBRANCH  36  37
ENDBRANCH  35  36
ENDBRANCH   1  35
TORSDOF 39
ENDMDL
