MODEL 1
REMARK VINA RESULT:      -5.6      0.000      0.000
REMARK  Name = DL-dimyristoylphosphatidylcholine
REMARK  41 active torsions:
REMARK  status: ('A' for Active; 'I' for Inactive)
REMARK    1  A    between atoms: C_1  and  C_2
REMARK    2  A    between atoms: C_2  and  C_3
REMARK    3  A    between atoms: C_3  and  C_4
REMARK    4  A    between atoms: C_4  and  C_5
REMARK    5  A    between atoms: C_5  and  C_6
REMARK    6  A    between atoms: C_6  and  C_7
REMARK    7  A    between atoms: C_7  and  C_8
REMARK    8  A    between atoms: C_8  and  C_9
REMARK    9  A    between atoms: C_9  and  C_10
REMARK   10  A    between atoms: C_10  and  C_11
REMARK   11  A    between atoms: C_11  and  C_12
REMARK   12  A    between atoms: C_12  and  C_13
REMARK   13  A    between atoms: C_13  and  C_14
REMARK   14  A    between atoms: C_14  and  O_16
REMARK   15  A    between atoms: O_16  and  C_17
REMARK   16  A    between atoms: C_17  and  C_18
REMARK   17  A    between atoms: C_18  and  C_19
REMARK   18  A    between atoms: C_18  and  O_31
REMARK   19  A    between atoms: C_19  and  O_20
REMARK   20  A    between atoms: O_20  and  P_21
REMARK   21  A    between atoms: P_21  and  O_24
REMARK   22  A    between atoms: O_24  and  C_25
REMARK   23  A    between atoms: C_25  and  C_26
REMARK   24  A    between atoms: C_26  and  N_27
REMARK   25  A    between atoms: N_27  and  C_28
REMARK   26  A    between atoms: N_27  and  C_29
REMARK   27  A    between atoms: N_27  and  C_30
REMARK   28  A    between atoms: O_31  and  C_32
REMARK   29  A    between atoms: C_32  and  C_34
REMARK   30  A    between atoms: C_34  and  C_35
REMARK   31  A    between atoms: C_35  and  C_36
REMARK   32  A    between atoms: C_36  and  C_37
REMARK   33  A    between atoms: C_37  and  C_38
REMARK   34  A    between atoms: C_38  and  C_39
REMARK   35  A    between atoms: C_39  and  C_40
REMARK   36  A    between atoms: C_40  and  C_41
REMARK   37  A    between atoms: C_41  and  C_42
REMARK   38  A    between atoms: C_42  and  C_43
REMARK   39  A    between atoms: C_43  and  C_44
REMARK   40  A    between atoms: C_44  and  C_45
REMARK   41  A    between atoms: C_45  and  C_46
REMARK                            x       y       z     vdW  Elec       q    Type
REMARK                         _______ _______ _______ _____ _____    ______ ____
ROOT
ATOM      1  C   UNL     1      -7.317   4.192 128.361  0.00  0.00    +0.000 C 
ENDROOT
BRANCH   1   2
ATOM      2  O   UNL     1      -7.011   4.596 126.989  0.00  0.00    +0.000 OA
BRANCH   2   3
ATOM      3  C   UNL     1      -7.861   4.125 126.027  0.00  0.00    +0.000 C 
ATOM      4  O   UNL     1      -8.748   4.787 125.493  0.00  0.00    +0.000 OA
BRANCH   3   5
ATOM      5  C   UNL     1      -7.597   2.676 125.675  0.00  0.00    +0.000 C 
BRANCH   5   6
ATOM      6  C   UNL     1      -6.875   2.602 124.323  0.00  0.00    +0.000 C 
BRANCH   6   7
ATOM      7  C   UNL     1      -7.411   1.489 123.435  0.00  0.00    +0.000 C 
BRANCH   7   8
ATOM      8  C   UNL     1      -8.849   1.153 123.815  0.00  0.00    +0.000 C 
BRANCH   8   9
ATOM      9  C   UNL     1      -9.044  -0.354 123.860  0.00  0.00    +0.000 C 
BRANCH   9  10
ATOM     10  C   UNL     1      -9.146  -0.831 125.299  0.00  0.00    +0.000 C 
BRANCH  10  11
ATOM     11  C   UNL     1      -9.084  -2.348 125.349  0.00  0.00    +0.000 C 
BRANCH  11  12
ATOM     12  C   UNL     1      -8.087  -2.794 126.404  0.00  0.00    +0.000 C 
BRANCH  12  13
ATOM     13  C   UNL     1      -7.102  -1.677 126.693  0.00  0.00    +0.000 C 
BRANCH  13  14
ATOM     14  C   UNL     1      -5.716  -2.067 126.208  0.00  0.00    +0.000 C 
BRANCH  14  15
ATOM     15  C   UNL     1      -5.446  -1.448 124.846  0.00  0.00    +0.000 C 
BRANCH  15  16
ATOM     16  C   UNL     1      -5.452  -2.518 123.764  0.00  0.00    +0.000 C 
ATOM     17  C   UNL     1      -6.189  -2.021 122.535  0.00  0.00    +0.000 C 
ENDBRANCH  15  16
ENDBRANCH  14  15
ENDBRANCH  13  14
ENDBRANCH  12  13
ENDBRANCH  11  12
ENDBRANCH  10  11
ENDBRANCH   9  10
ENDBRANCH   8   9
ENDBRANCH   7   8
ENDBRANCH   6   7
ENDBRANCH   5   6
ENDBRANCH   3   5
ENDBRANCH   2   3
ENDBRANCH   1   2
BRANCH   1  18
ATOM     18  C   UNL     1      -8.551   4.931 128.863  0.00  0.00    +0.000 C 
BRANCH  18  19
ATOM     19  O   UNL     1      -9.489   4.027 129.408  0.00  0.00    +0.000 OA
BRANCH  19  20
ATOM     20  P   UNL     1     -10.579   4.870 130.456  0.00  0.00    +0.000 P 
ATOM     21  O   UNL     1     -11.698   3.882 130.114  0.00  0.00    +0.000 OA
ATOM     22  O   UNL     1      -9.650   4.671 131.652  0.00  0.00    +0.000 OA
BRANCH  20  23
ATOM     23  O   UNL     1     -11.667   5.713 131.502  0.00  0.00    +0.000 OA
BRANCH  23  24
ATOM     24  C   UNL     1     -12.211   6.789 130.809  0.00  0.00    +0.000 C 
BRANCH  24  25
ATOM     25  C   UNL     1     -11.189   7.310 129.825  0.00  0.00    +0.000 C 
BRANCH  25  26
ATOM     26  N   UNL     1     -11.884   7.939 128.598  0.00  0.00    +0.000 N 
ATOM     27  C   UNL     1     -10.849   8.306 127.546  0.00  0.00    +0.000 C 
ATOM     28  C   UNL     1     -12.898   6.952 128.028  0.00  0.00    +0.000 C 
ATOM     29  C   UNL     1     -12.609   9.192 129.045  0.00  0.00    +0.000 C 
ENDBRANCH  25  26
ENDBRANCH  24  25
ENDBRANCH  23  24
ENDBRANCH  20  23
ENDBRANCH  19  20
ENDBRANCH  18  19
ENDBRANCH   1  18
BRANCH   1  30
ATOM     30  C   UNL     1      -6.123   4.494 129.304  0.00  0.00    +0.000 C 
BRANCH  30  31
ATOM     31  O   UNL     1      -5.176   5.407 128.699  0.00  0.00    +0.000 OA
BRANCH  31  32
ATOM     32  C   UNL     1      -3.875   5.024 128.736  0.00  0.00    +0.000 C 
ATOM     33  O   UNL     1      -3.143   5.189 129.709  0.00  0.00    +0.000 OA
BRANCH  32  34
ATOM     34  C   UNL     1      -3.419   4.419 127.417  0.00  0.00    +0.000 C 
BRANCH  34  35
ATOM     35  C   UNL     1      -3.213   2.910 127.581  0.00  0.00    +0.000 C 
BRANCH  35  36
ATOM     36  C   UNL     1      -4.248   2.083 126.828  0.00  0.00    +0.000 C 
BRANCH  36  37
ATOM     37  C   UNL     1      -5.078   1.258 127.809  0.00  0.00    +0.000 C 
BRANCH  37  38
ATOM     38  C   UNL     1      -4.428   1.258 129.185  0.00  0.00    +0.000 C 
BRANCH  38  39
ATOM     39  C   UNL     1      -5.369   0.653 130.213  0.00  0.00    +0.000 C 
BRANCH  39  40
ATOM     40  C   UNL     1      -6.738   0.427 129.595  0.00  0.00    +0.000 C 
BRANCH  40  41
ATOM     41  C   UNL     1      -7.663  -0.228 130.606  0.00  0.00    +0.000 C 
BRANCH  41  42
ATOM     42  C   UNL     1      -7.109  -1.579 131.020  0.00  0.00    +0.000 C 
BRANCH  42  43
ATOM     43  C   UNL     1      -7.738  -2.680 130.183  0.00  0.00    +0.000 C 
BRANCH  43  44
ATOM     44  C   UNL     1      -6.673  -3.661 129.722  0.00  0.00    +0.000 C 
BRANCH  44  46
ATOM     45  C   UNL     1      -4.262  -3.202 129.279  0.00  0.00    +0.000 C 
ATOM     46  C   UNL     1      -5.328  -3.321 130.350  0.00  0.00    +0.000 C 
ENDBRANCH  44  46
ENDBRANCH  43  44
ENDBRANCH  42  43
ENDBRANCH  41  42
ENDBRANCH  40  41
ENDBRANCH  39  40
ENDBRANCH  38  39
ENDBRANCH  37  38
ENDBRANCH  36  37
ENDBRANCH  35  36
ENDBRANCH  34  35
ENDBRANCH  32  34
ENDBRANCH  31  32
ENDBRANCH  30  31
ENDBRANCH   1  30
TORSDOF 36
ENDMDL
MODEL 2
REMARK VINA RESULT:      -5.5      1.913      6.097
REMARK  Name = DL-dimyristoylphosphatidylcholine
REMARK  41 active torsions:
REMARK  status: ('A' for Active; 'I' for Inactive)
REMARK    1  A    between atoms: C_1  and  C_2
REMARK    2  A    between atoms: C_2  and  C_3
REMARK    3  A    between atoms: C_3  and  C_4
REMARK    4  A    between atoms: C_4  and  C_5
REMARK    5  A    between atoms: C_5  and  C_6
REMARK    6  A    between atoms: C_6  and  C_7
REMARK    7  A    between atoms: C_7  and  C_8
REMARK    8  A    between atoms: C_8  and  C_9
REMARK    9  A    between atoms: C_9  and  C_10
REMARK   10  A    between atoms: C_10  and  C_11
REMARK   11  A    between atoms: C_11  and  C_12
REMARK   12  A    between atoms: C_12  and  C_13
REMARK   13  A    between atoms: C_13  and  C_14
REMARK   14  A    between atoms: C_14  and  O_16
REMARK   15  A    between atoms: O_16  and  C_17
REMARK   16  A    between atoms: C_17  and  C_18
REMARK   17  A    between atoms: C_18  and  C_19
REMARK   18  A    between atoms: C_18  and  O_31
REMARK   19  A    between atoms: C_19  and  O_20
REMARK   20  A    between atoms: O_20  and  P_21
REMARK   21  A    between atoms: P_21  and  O_24
REMARK   22  A    between atoms: O_24  and  C_25
REMARK   23  A    between atoms: C_25  and  C_26
REMARK   24  A    between atoms: C_26  and  N_27
REMARK   25  A    between atoms: N_27  and  C_28
REMARK   26  A    between atoms: N_27  and  C_29
REMARK   27  A    between atoms: N_27  and  C_30
REMARK   28  A    between atoms: O_31  and  C_32
REMARK   29  A    between atoms: C_32  and  C_34
REMARK   30  A    between atoms: C_34  and  C_35
REMARK   31  A    between atoms: C_35  and  C_36
REMARK   32  A    between atoms: C_36  and  C_37
REMARK   33  A    between atoms: C_37  and  C_38
REMARK   34  A    between atoms: C_38  and  C_39
REMARK   35  A    between atoms: C_39  and  C_40
REMARK   36  A    between atoms: C_40  and  C_41
REMARK   37  A    between atoms: C_41  and  C_42
REMARK   38  A    between atoms: C_42  and  C_43
REMARK   39  A    between atoms: C_43  and  C_44
REMARK   40  A    between atoms: C_44  and  C_45
REMARK   41  A    between atoms: C_45  and  C_46
REMARK                            x       y       z     vdW  Elec       q    Type
REMARK                         _______ _______ _______ _____ _____    ______ ____
ROOT
ATOM      1  C   UNL     1      -7.819   3.129 129.713  0.00  0.00    +0.000 C 
ENDROOT
BRANCH   1   2
ATOM      2  O   UNL     1      -8.533   2.061 130.413  0.00  0.00    +0.000 OA
BRANCH   2   3
ATOM      3  C   UNL     1      -7.810   0.928 130.663  0.00  0.00    +0.000 C 
ATOM      4  O   UNL     1      -8.227  -0.217 130.503  0.00  0.00    +0.000 OA
BRANCH   3   5
ATOM      5  C   UNL     1      -6.413   1.226 131.166  0.00  0.00    +0.000 C 
BRANCH   5   6
ATOM      6  C   UNL     1      -5.458   0.112 130.716  0.00  0.00    +0.000 C 
BRANCH   6   7
ATOM      7  C   UNL     1      -4.213   0.652 130.031  0.00  0.00    +0.000 C 
BRANCH   7   8
ATOM      8  C   UNL     1      -4.248   2.176 129.988  0.00  0.00    +0.000 C 
BRANCH   8   9
ATOM      9  C   UNL     1      -4.005   2.670 128.572  0.00  0.00    +0.000 C 
BRANCH   9  10
ATOM     10  C   UNL     1      -3.951   4.188 128.543  0.00  0.00    +0.000 C 
BRANCH  10  11
ATOM     11  C   UNL     1      -2.589   4.651 128.055  0.00  0.00    +0.000 C 
BRANCH  11  12
ATOM     12  C   UNL     1      -2.383   6.116 128.396  0.00  0.00    +0.000 C 
BRANCH  12  13
ATOM     13  C   UNL     1      -3.696   6.868 128.269  0.00  0.00    +0.000 C 
BRANCH  13  14
ATOM     14  C   UNL     1      -3.706   8.057 129.214  0.00  0.00    +0.000 C 
BRANCH  14  15
ATOM     15  C   UNL     1      -3.923   7.588 130.644  0.00  0.00    +0.000 C 
BRANCH  15  16
ATOM     16  C   UNL     1      -5.308   6.978 130.801  0.00  0.00    +0.000 C 
ATOM     17  C   UNL     1      -5.258   5.790 131.741  0.00  0.00    +0.000 C 
ENDBRANCH  15  16
ENDBRANCH  14  15
ENDBRANCH  13  14
ENDBRANCH  12  13
ENDBRANCH  11  12
ENDBRANCH  10  11
ENDBRANCH   9  10
ENDBRANCH   8   9
ENDBRANCH   7   8
ENDBRANCH   6   7
ENDBRANCH   5   6
ENDBRANCH   3   5
ENDBRANCH   2   3
ENDBRANCH   1   2
BRANCH   1  18
ATOM     18  C   UNL     1      -8.424   4.482 130.066  0.00  0.00    +0.000 C 
BRANCH  18  19
ATOM     19  O   UNL     1      -8.531   4.632 131.467  0.00  0.00    +0.000 OA
BRANCH  19  20
ATOM     20  P   UNL     1      -9.856   5.679 131.847  0.00  0.00    +0.000 P 
ATOM     21  O   UNL     1      -9.012   6.905 131.488  0.00  0.00    +0.000 OA
ATOM     22  O   UNL     1     -10.756   4.980 130.830  0.00  0.00    +0.000 OA
BRANCH  20  23
ATOM     23  O   UNL     1     -11.179   6.725 132.227  0.00  0.00    +0.000 OA
BRANCH  23  24
ATOM     24  C   UNL     1     -12.162   6.575 131.256  0.00  0.00    +0.000 C 
BRANCH  24  25
ATOM     25  C   UNL     1     -12.662   7.940 130.844  0.00  0.00    +0.000 C 
BRANCH  25  26
ATOM     26  N   UNL     1     -12.535   8.131 129.317  0.00  0.00    +0.000 N 
ATOM     27  C   UNL     1     -13.170   9.449 128.903  0.00  0.00    +0.000 C 
ATOM     28  C   UNL     1     -11.061   8.101 128.923  0.00  0.00    +0.000 C 
ATOM     29  C   UNL     1     -13.256   6.991 128.627  0.00  0.00    +0.000 C 
ENDBRANCH  25  26
ENDBRANCH  24  25
ENDBRANCH  23  24
ENDBRANCH  20  23
ENDBRANCH  19  20
ENDBRANCH  18  19
ENDBRANCH   1  18
BRANCH   1  30
ATOM     30  C   UNL     1      -7.888   2.924 128.177  0.00  0.00    +0.000 C 
BRANCH  30  31
ATOM     31  O   UNL     1      -7.798   4.180 127.462  0.00  0.00    +0.000 OA
BRANCH  31  32
ATOM     32  C   UNL     1      -7.666   4.087 126.114  0.00  0.00    +0.000 C 
ATOM     33  O   UNL     1      -8.569   4.345 125.322  0.00  0.00    +0.000 OA
BRANCH  32  34
ATOM     34  C   UNL     1      -6.293   3.574 125.707  0.00  0.00    +0.000 C 
BRANCH  34  35
ATOM     35  C   UNL     1      -6.435   2.550 124.576  0.00  0.00    +0.000 C 
BRANCH  35  36
ATOM     36  C   UNL     1      -6.851   1.170 125.072  0.00  0.00    +0.000 C 
BRANCH  36  37
ATOM     37  C   UNL     1      -5.683   0.492 125.783  0.00  0.00    +0.000 C 
BRANCH  37  38
ATOM     38  C   UNL     1      -6.168  -0.237 127.027  0.00  0.00    +0.000 C 
BRANCH  38  39
ATOM     39  C   UNL     1      -7.677  -0.415 126.979  0.00  0.00    +0.000 C 
BRANCH  39  40
ATOM     40  C   UNL     1      -8.026  -1.893 127.002  0.00  0.00    +0.000 C 
BRANCH  40  41
ATOM     41  C   UNL     1      -9.038  -2.205 125.913  0.00  0.00    +0.000 C 
BRANCH  41  42
ATOM     42  C   UNL     1      -8.752  -3.570 125.313  0.00  0.00    +0.000 C 
BRANCH  42  43
ATOM     43  C   UNL     1      -7.496  -3.511 124.460  0.00  0.00    +0.000 C 
BRANCH  43  44
ATOM     44  C   UNL     1      -7.638  -2.439 123.392  0.00  0.00    +0.000 C 
BRANCH  44  46
ATOM     45  C   UNL     1      -5.172  -2.755 123.596  0.00  0.00    +0.000 C 
ATOM     46  C   UNL     1      -6.270  -1.903 122.990  0.00  0.00    +0.000 C 
ENDBRANCH  44  46
ENDBRANCH  43  44
ENDBRANCH  42  43
ENDBRANCH  41  42
ENDBRANCH  40  41
ENDBRANCH  39  40
ENDBRANCH  38  39
ENDBRANCH  37  38
ENDBRANCH  36  37
ENDBRANCH  35  36
ENDBRANCH  34  35
ENDBRANCH  32  34
ENDBRANCH  31  32
ENDBRANCH  30  31
ENDBRANCH   1  30
TORSDOF 36
ENDMDL
MODEL 3
REMARK VINA RESULT:      -5.5      1.538      5.036
REMARK  Name = DL-dimyristoylphosphatidylcholine
REMARK  41 active torsions:
REMARK  status: ('A' for Active; 'I' for Inactive)
REMARK    1  A    between atoms: C_1  and  C_2
REMARK    2  A    between atoms: C_2  and  C_3
REMARK    3  A    between atoms: C_3  and  C_4
REMARK    4  A    between atoms: C_4  and  C_5
REMARK    5  A    between atoms: C_5  and  C_6
REMARK    6  A    between atoms: C_6  and  C_7
REMARK    7  A    between atoms: C_7  and  C_8
REMARK    8  A    between atoms: C_8  and  C_9
REMARK    9  A    between atoms: C_9  and  C_10
REMARK   10  A    between atoms: C_10  and  C_11
REMARK   11  A    between atoms: C_11  and  C_12
REMARK   12  A    between atoms: C_12  and  C_13
REMARK   13  A    between atoms: C_13  and  C_14
REMARK   14  A    between atoms: C_14  and  O_16
REMARK   15  A    between atoms: O_16  and  C_17
REMARK   16  A    between atoms: C_17  and  C_18
REMARK   17  A    between atoms: C_18  and  C_19
REMARK   18  A    between atoms: C_18  and  O_31
REMARK   19  A    between atoms: C_19  and  O_20
REMARK   20  A    between atoms: O_20  and  P_21
REMARK   21  A    between atoms: P_21  and  O_24
REMARK   22  A    between atoms: O_24  and  C_25
REMARK   23  A    between atoms: C_25  and  C_26
REMARK   24  A    between atoms: C_26  and  N_27
REMARK   25  A    between atoms: N_27  and  C_28
REMARK   26  A    between atoms: N_27  and  C_29
REMARK   27  A    between atoms: N_27  and  C_30
REMARK   28  A    between atoms: O_31  and  C_32
REMARK   29  A    between atoms: C_32  and  C_34
REMARK   30  A    between atoms: C_34  and  C_35
REMARK   31  A    between atoms: C_35  and  C_36
REMARK   32  A    between atoms: C_36  and  C_37
REMARK   33  A    between atoms: C_37  and  C_38
REMARK   34  A    between atoms: C_38  and  C_39
REMARK   35  A    between atoms: C_39  and  C_40
REMARK   36  A    between atoms: C_40  and  C_41
REMARK   37  A    between atoms: C_41  and  C_42
REMARK   38  A    between atoms: C_42  and  C_43
REMARK   39  A    between atoms: C_43  and  C_44
REMARK   40  A    between atoms: C_44  and  C_45
REMARK   41  A    between atoms: C_45  and  C_46
REMARK                            x       y       z     vdW  Elec       q    Type
REMARK                         _______ _______ _______ _____ _____    ______ ____
ROOT
ATOM      1  C   UNL     1      -8.261   3.611 129.959  0.00  0.00    +0.000 C 
ENDROOT
BRANCH   1   2
ATOM      2  O   UNL     1      -9.061   2.434 130.297  0.00  0.00    +0.000 OA
BRANCH   2   3
ATOM      3  C   UNL     1      -9.074   2.084 131.619  0.00  0.00    +0.000 C 
ATOM      4  O   UNL     1      -8.909   2.868 132.551  0.00  0.00    +0.000 OA
BRANCH   3   5
ATOM      5  C   UNL     1      -9.316   0.604 131.828  0.00  0.00    +0.000 C 
BRANCH   5   6
ATOM      6  C   UNL     1      -8.030  -0.174 131.520  0.00  0.00    +0.000 C 
BRANCH   6   7
ATOM      7  C   UNL     1      -8.149  -1.026 130.265  0.00  0.00    +0.000 C 
BRANCH   7   8
ATOM      8  C   UNL     1      -7.517  -2.395 130.491  0.00  0.00    +0.000 C 
BRANCH   8   9
ATOM      9  C   UNL     1      -6.291  -2.270 131.380  0.00  0.00    +0.000 C 
BRANCH   9  10
ATOM     10  C   UNL     1      -5.053  -2.757 130.646  0.00  0.00    +0.000 C 
BRANCH  10  11
ATOM     11  C   UNL     1      -4.534  -1.667 129.723  0.00  0.00    +0.000 C 
BRANCH  11  12
ATOM     12  C   UNL     1      -4.154  -0.438 130.529  0.00  0.00    +0.000 C 
BRANCH  12  13
ATOM     13  C   UNL     1      -4.857   0.786 129.972  0.00  0.00    +0.000 C 
BRANCH  13  14
ATOM     14  C   UNL     1      -3.831   1.816 129.527  0.00  0.00    +0.000 C 
BRANCH  14  15
ATOM     15  C   UNL     1      -4.086   3.143 130.223  0.00  0.00    +0.000 C 
BRANCH  15  16
ATOM     16  C   UNL     1      -3.783   4.303 129.286  0.00  0.00    +0.000 C 
ATOM     17  C   UNL     1      -2.919   3.838 128.132  0.00  0.00    +0.000 C 
ENDBRANCH  15  16
ENDBRANCH  14  15
ENDBRANCH  13  14
ENDBRANCH  12  13
ENDBRANCH  11  12
ENDBRANCH  10  11
ENDBRANCH   9  10
ENDBRANCH   8   9
ENDBRANCH   7   8
ENDBRANCH   6   7
ENDBRANCH   5   6
ENDBRANCH   3   5
ENDBRANCH   2   3
ENDBRANCH   1   2
BRANCH   1  18
ATOM     18  C   UNL     1      -9.171   4.805 129.699  0.00  0.00    +0.000 C 
BRANCH  18  19
ATOM     19  O   UNL     1      -9.188   5.673 130.815  0.00  0.00    +0.000 OA
BRANCH  19  20
ATOM     20  P   UNL     1     -10.821   6.081 131.218  0.00  0.00    +0.000 P 
ATOM     21  O   UNL     1     -11.303   4.715 130.719  0.00  0.00    +0.000 OA
ATOM     22  O   UNL     1     -10.443   6.332 132.677  0.00  0.00    +0.000 OA
BRANCH  20  23
ATOM     23  O   UNL     1     -12.453   6.488 131.620  0.00  0.00    +0.000 OA
BRANCH  23  24
ATOM     24  C   UNL     1     -12.781   7.686 130.995  0.00  0.00    +0.000 C 
BRANCH  24  25
ATOM     25  C   UNL     1     -11.785   7.958 129.892  0.00  0.00    +0.000 C 
BRANCH  25  26
ATOM     26  N   UNL     1     -12.500   8.084 128.529  0.00  0.00    +0.000 N 
ATOM     27  C   UNL     1     -11.476   8.115 127.406  0.00  0.00    +0.000 C 
ATOM     28  C   UNL     1     -13.457   6.911 128.347  0.00  0.00    +0.000 C 
ATOM     29  C   UNL     1     -13.292   9.376 128.519  0.00  0.00    +0.000 C 
ENDBRANCH  25  26
ENDBRANCH  24  25
ENDBRANCH  23  24
ENDBRANCH  20  23
ENDBRANCH  19  20
ENDBRANCH  18  19
ENDBRANCH   1  18
BRANCH   1  30
ATOM     30  C   UNL     1      -7.395   3.346 128.700  0.00  0.00    +0.000 C 
BRANCH  30  31
ATOM     31  O   UNL     1      -7.321   4.511 127.843  0.00  0.00    +0.000 OA
BRANCH  31  32
ATOM     32  C   UNL     1      -6.525   4.393 126.749  0.00  0.00    +0.000 C 
ATOM     33  O   UNL     1      -5.744   5.265 126.377  0.00  0.00    +0.000 OA
BRANCH  32  34
ATOM     34  C   UNL     1      -6.756   3.082 126.012  0.00  0.00    +0.000 C 
BRANCH  34  35
ATOM     35  C   UNL     1      -5.416   2.504 125.548  0.00  0.00    +0.000 C 
BRANCH  35  36
ATOM     36  C   UNL     1      -5.006   1.257 126.323  0.00  0.00    +0.000 C 
BRANCH  36  37
ATOM     37  C   UNL     1      -5.672   0.021 125.722  0.00  0.00    +0.000 C 
BRANCH  37  38
ATOM     38  C   UNL     1      -6.422  -0.753 126.795  0.00  0.00    +0.000 C 
BRANCH  38  39
ATOM     39  C   UNL     1      -7.913  -0.470 126.706  0.00  0.00    +0.000 C 
BRANCH  39  40
ATOM     40  C   UNL     1      -8.504  -1.175 125.498  0.00  0.00    +0.000 C 
BRANCH  40  41
ATOM     41  C   UNL     1      -9.208  -2.449 125.931  0.00  0.00    +0.000 C 
BRANCH  41  42
ATOM     42  C   UNL     1      -8.464  -3.661 125.402  0.00  0.00    +0.000 C 
BRANCH  42  43
ATOM     43  C   UNL     1      -7.748  -3.310 124.109  0.00  0.00    +0.000 C 
BRANCH  43  44
ATOM     44  C   UNL     1      -6.298  -3.763 124.173  0.00  0.00    +0.000 C 
BRANCH  44  46
ATOM     45  C   UNL     1      -6.174  -1.933 122.484  0.00  0.00    +0.000 C 
ATOM     46  C   UNL     1      -5.391  -2.744 123.497  0.00  0.00    +0.000 C 
ENDBRANCH  44  46
ENDBRANCH  43  44
ENDBRANCH  42  43
ENDBRANCH  41  42
ENDBRANCH  40  41
ENDBRANCH  39  40
ENDBRANCH  38  39
ENDBRANCH  37  38
ENDBRANCH  36  37
ENDBRANCH  35  36
ENDBRANCH  34  35
ENDBRANCH  32  34
ENDBRANCH  31  32
ENDBRANCH  30  31
ENDBRANCH   1  30
TORSDOF 36
ENDMDL
MODEL 4
REMARK VINA RESULT:      -5.4      1.961      4.009
REMARK  Name = DL-dimyristoylphosphatidylcholine
REMARK  41 active torsions:
REMARK  status: ('A' for Active; 'I' for Inactive)
REMARK    1  A    between atoms: C_1  and  C_2
REMARK    2  A    between atoms: C_2  and  C_3
REMARK    3  A    between atoms: C_3  and  C_4
REMARK    4  A    between atoms: C_4  and  C_5
REMARK    5  A    between atoms: C_5  and  C_6
REMARK    6  A    between atoms: C_6  and  C_7
REMARK    7  A    between atoms: C_7  and  C_8
REMARK    8  A    between atoms: C_8  and  C_9
REMARK    9  A    between atoms: C_9  and  C_10
REMARK   10  A    between atoms: C_10  and  C_11
REMARK   11  A    between atoms: C_11  and  C_12
REMARK   12  A    between atoms: C_12  and  C_13
REMARK   13  A    between atoms: C_13  and  C_14
REMARK   14  A    between atoms: C_14  and  O_16
REMARK   15  A    between atoms: O_16  and  C_17
REMARK   16  A    between atoms: C_17  and  C_18
REMARK   17  A    between atoms: C_18  and  C_19
REMARK   18  A    between atoms: C_18  and  O_31
REMARK   19  A    between atoms: C_19  and  O_20
REMARK   20  A    between atoms: O_20  and  P_21
REMARK   21  A    between atoms: P_21  and  O_24
REMARK   22  A    between atoms: O_24  and  C_25
REMARK   23  A    between atoms: C_25  and  C_26
REMARK   24  A    between atoms: C_26  and  N_27
REMARK   25  A    between atoms: N_27  and  C_28
REMARK   26  A    between atoms: N_27  and  C_29
REMARK   27  A    between atoms: N_27  and  C_30
REMARK   28  A    between atoms: O_31  and  C_32
REMARK   29  A    between atoms: C_32  and  C_34
REMARK   30  A    between atoms: C_34  and  C_35
REMARK   31  A    between atoms: C_35  and  C_36
REMARK   32  A    between atoms: C_36  and  C_37
REMARK   33  A    between atoms: C_37  and  C_38
REMARK   34  A    between atoms: C_38  and  C_39
REMARK   35  A    between atoms: C_39  and  C_40
REMARK   36  A    between atoms: C_40  and  C_41
REMARK   37  A    between atoms: C_41  and  C_42
REMARK   38  A    between atoms: C_42  and  C_43
REMARK   39  A    between atoms: C_43  and  C_44
REMARK   40  A    between atoms: C_44  and  C_45
REMARK   41  A    between atoms: C_45  and  C_46
REMARK                            x       y       z     vdW  Elec       q    Type
REMARK                         _______ _______ _______ _____ _____    ______ ____
ROOT
ATOM      1  C   UNL     1      -7.423   1.908 129.827  0.00  0.00    +0.000 C 
ENDROOT
BRANCH   1   2
ATOM      2  O   UNL     1      -6.804   2.399 128.594  0.00  0.00    +0.000 OA
BRANCH   2   3
ATOM      3  C   UNL     1      -7.665   2.694 127.574  0.00  0.00    +0.000 C 
ATOM      4  O   UNL     1      -8.808   2.251 127.474  0.00  0.00    +0.000 OA
BRANCH   3   5
ATOM      5  C   UNL     1      -7.063   3.639 126.557  0.00  0.00    +0.000 C 
BRANCH   5   6
ATOM      6  C   UNL     1      -6.132   2.858 125.620  0.00  0.00    +0.000 C 
BRANCH   6   7
ATOM      7  C   UNL     1      -5.837   3.609 124.330  0.00  0.00    +0.000 C 
BRANCH   7   8
ATOM      8  C   UNL     1      -6.546   2.945 123.155  0.00  0.00    +0.000 C 
BRANCH   8   9
ATOM      9  C   UNL     1      -7.273   1.692 123.617  0.00  0.00    +0.000 C 
BRANCH   9  10
ATOM     10  C   UNL     1      -8.700   1.687 123.096  0.00  0.00    +0.000 C 
BRANCH  10  11
ATOM     11  C   UNL     1      -9.270   0.280 123.156  0.00  0.00    +0.000 C 
BRANCH  11  12
ATOM     12  C   UNL     1      -8.254  -0.668 123.767  0.00  0.00    +0.000 C 
BRANCH  12  13
ATOM     13  C   UNL     1      -7.991  -1.827 122.823  0.00  0.00    +0.000 C 
BRANCH  13  14
ATOM     14  C   UNL     1      -6.511  -1.898 122.486  0.00  0.00    +0.000 C 
BRANCH  14  15
ATOM     15  C   UNL     1      -5.698  -2.136 123.748  0.00  0.00    +0.000 C 
BRANCH  15  16
ATOM     16  C   UNL     1      -5.733  -3.607 124.136  0.00  0.00    +0.000 C 
ATOM     17  C   UNL     1      -4.471  -4.306 123.670  0.00  0.00    +0.000 C 
ENDBRANCH  15  16
ENDBRANCH  14  15
ENDBRANCH  13  14
ENDBRANCH  12  13
ENDBRANCH  11  12
ENDBRANCH  10  11
ENDBRANCH   9  10
ENDBRANCH   8   9
ENDBRANCH   7   8
ENDBRANCH   6   7
ENDBRANCH   5   6
ENDBRANCH   3   5
ENDBRANCH   2   3
ENDBRANCH   1   2
BRANCH   1  18
ATOM     18  C   UNL     1      -7.765   3.077 130.742  0.00  0.00    +0.000 C 
BRANCH  18  19
ATOM     19  O   UNL     1      -9.023   2.881 131.354  0.00  0.00    +0.000 OA
BRANCH  19  20
ATOM     20  P   UNL     1     -10.025   4.269 131.098  0.00  0.00    +0.000 P 
ATOM     21  O   UNL     1      -8.819   5.067 130.593  0.00  0.00    +0.000 OA
ATOM     22  O   UNL     1     -10.940   3.487 130.156  0.00  0.00    +0.000 OA
BRANCH  20  23
ATOM     23  O   UNL     1     -11.026   5.655 130.842  0.00  0.00    +0.000 OA
BRANCH  23  24
ATOM     24  C   UNL     1     -10.995   5.987 129.492  0.00  0.00    +0.000 C 
BRANCH  24  25
ATOM     25  C   UNL     1     -12.313   6.618 129.108  0.00  0.00    +0.000 C 
BRANCH  25  26
ATOM     26  N   UNL     1     -12.096   7.762 128.093  0.00  0.00    +0.000 N 
ATOM     27  C   UNL     1     -10.707   8.356 128.268  0.00  0.00    +0.000 C 
ATOM     28  C   UNL     1     -12.272   7.224 126.677  0.00  0.00    +0.000 C 
ATOM     29  C   UNL     1     -13.134   8.836 128.349  0.00  0.00    +0.000 C 
ENDBRANCH  25  26
ENDBRANCH  24  25
ENDBRANCH  23  24
ENDBRANCH  20  23
ENDBRANCH  19  20
ENDBRANCH  18  19
ENDBRANCH   1  18
BRANCH   1  30
ATOM     30  C   UNL     1      -6.471   0.937 130.573  0.00  0.00    +0.000 C 
BRANCH  30  31
ATOM     31  O   UNL     1      -7.181  -0.201 131.116  0.00  0.00    +0.000 OA
BRANCH  31  32
ATOM     32  C   UNL     1      -7.130  -0.344 132.465  0.00  0.00    +0.000 C 
ATOM     33  O   UNL     1      -7.452   0.539 133.257  0.00  0.00    +0.000 OA
BRANCH  32  34
ATOM     34  C   UNL     1      -6.576  -1.700 132.877  0.00  0.00    +0.000 C 
BRANCH  34  35
ATOM     35  C   UNL     1      -7.153  -2.793 131.972  0.00  0.00    +0.000 C 
BRANCH  35  36
ATOM     36  C   UNL     1      -6.210  -3.978 131.795  0.00  0.00    +0.000 C 
BRANCH  36  37
ATOM     37  C   UNL     1      -5.812  -4.119 130.328  0.00  0.00    +0.000 C 
BRANCH  37  38
ATOM     38  C   UNL     1      -4.302  -4.011 130.174  0.00  0.00    +0.000 C 
BRANCH  38  39
ATOM     39  C   UNL     1      -3.954  -3.206 128.934  0.00  0.00    +0.000 C 
BRANCH  39  40
ATOM     40  C   UNL     1      -4.897  -2.022 128.801  0.00  0.00    +0.000 C 
BRANCH  40  41
ATOM     41  C   UNL     1      -5.305  -1.843 127.349  0.00  0.00    +0.000 C 
BRANCH  41  42
ATOM     42  C   UNL     1      -6.526  -0.946 127.259  0.00  0.00    +0.000 C 
BRANCH  42  43
ATOM     43  C   UNL     1      -7.742  -1.662 127.824  0.00  0.00    +0.000 C 
BRANCH  43  44
ATOM     44  C   UNL     1      -8.455  -2.431 126.724  0.00  0.00    +0.000 C 
BRANCH  44  46
ATOM     45  C   UNL     1      -8.867  -3.803 128.765  0.00  0.00    +0.000 C 
ATOM     46  C   UNL     1      -8.974  -3.760 127.253  0.00  0.00    +0.000 C 
ENDBRANCH  44  46
ENDBRANCH  43  44
ENDBRANCH  42  43
ENDBRANCH  41  42
ENDBRANCH  40  41
ENDBRANCH  39  40
ENDBRANCH  38  39
ENDBRANCH  37  38
ENDBRANCH  36  37
ENDBRANCH  35  36
ENDBRANCH  34  35
ENDBRANCH  32  34
ENDBRANCH  31  32
ENDBRANCH  30  31
ENDBRANCH   1  30
TORSDOF 36
ENDMDL
MODEL 5
REMARK VINA RESULT:      -5.4      1.638      4.782
REMARK  Name = DL-dimyristoylphosphatidylcholine
REMARK  41 active torsions:
REMARK  status: ('A' for Active; 'I' for Inactive)
REMARK    1  A    between atoms: C_1  and  C_2
REMARK    2  A    between atoms: C_2  and  C_3
REMARK    3  A    between atoms: C_3  and  C_4
REMARK    4  A    between atoms: C_4  and  C_5
REMARK    5  A    between atoms: C_5  and  C_6
REMARK    6  A    between atoms: C_6  and  C_7
REMARK    7  A    between atoms: C_7  and  C_8
REMARK    8  A    between atoms: C_8  and  C_9
REMARK    9  A    between atoms: C_9  and  C_10
REMARK   10  A    between atoms: C_10  and  C_11
REMARK   11  A    between atoms: C_11  and  C_12
REMARK   12  A    between atoms: C_12  and  C_13
REMARK   13  A    between atoms: C_13  and  C_14
REMARK   14  A    between atoms: C_14  and  O_16
REMARK   15  A    between atoms: O_16  and  C_17
REMARK   16  A    between atoms: C_17  and  C_18
REMARK   17  A    between atoms: C_18  and  C_19
REMARK   18  A    between atoms: C_18  and  O_31
REMARK   19  A    between atoms: C_19  and  O_20
REMARK   20  A    between atoms: O_20  and  P_21
REMARK   21  A    between atoms: P_21  and  O_24
REMARK   22  A    between atoms: O_24  and  C_25
REMARK   23  A    between atoms: C_25  and  C_26
REMARK   24  A    between atoms: C_26  and  N_27
REMARK   25  A    between atoms: N_27  and  C_28
REMARK   26  A    between atoms: N_27  and  C_29
REMARK   27  A    between atoms: N_27  and  C_30
REMARK   28  A    between atoms: O_31  and  C_32
REMARK   29  A    between atoms: C_32  and  C_34
REMARK   30  A    between atoms: C_34  and  C_35
REMARK   31  A    between atoms: C_35  and  C_36
REMARK   32  A    between atoms: C_36  and  C_37
REMARK   33  A    between atoms: C_37  and  C_38
REMARK   34  A    between atoms: C_38  and  C_39
REMARK   35  A    between atoms: C_39  and  C_40
REMARK   36  A    between atoms: C_40  and  C_41
REMARK   37  A    between atoms: C_41  and  C_42
REMARK   38  A    between atoms: C_42  and  C_43
REMARK   39  A    between atoms: C_43  and  C_44
REMARK   40  A    between atoms: C_44  and  C_45
REMARK   41  A    between atoms: C_45  and  C_46
REMARK                            x       y       z     vdW  Elec       q    Type
REMARK                         _______ _______ _______ _____ _____    ______ ____
ROOT
ATOM      1  C   UNL     1      -6.349   4.458 129.819  0.00  0.00    +0.000 C 
ENDROOT
BRANCH   1   2
ATOM      2  O   UNL     1      -7.181   4.061 128.683  0.00  0.00    +0.000 OA
BRANCH   2   3
ATOM      3  C   UNL     1      -7.858   2.882 128.825  0.00  0.00    +0.000 C 
ATOM      4  O   UNL     1      -9.063   2.740 128.628  0.00  0.00    +0.000 OA
BRANCH   3   5
ATOM      5  C   UNL     1      -6.960   1.742 129.257  0.00  0.00    +0.000 C 
BRANCH   5   6
ATOM      6  C   UNL     1      -7.797   0.467 129.426  0.00  0.00    +0.000 C 
BRANCH   6   7
ATOM      7  C   UNL     1      -8.087   0.146 130.884  0.00  0.00    +0.000 C 
BRANCH   7   8
ATOM      8  C   UNL     1      -7.601  -1.259 131.225  0.00  0.00    +0.000 C 
BRANCH   8   9
ATOM      9  C   UNL     1      -7.818  -2.192 130.045  0.00  0.00    +0.000 C 
BRANCH   9  10
ATOM     10  C   UNL     1      -6.618  -3.106 129.866  0.00  0.00    +0.000 C 
BRANCH  10  11
ATOM     11  C   UNL     1      -5.644  -2.496 128.874  0.00  0.00    +0.000 C 
BRANCH  11  12
ATOM     12  C   UNL     1      -4.218  -2.849 129.260  0.00  0.00    +0.000 C 
BRANCH  12  13
ATOM     13  C   UNL     1      -3.785  -2.025 130.459  0.00  0.00    +0.000 C 
BRANCH  13  14
ATOM     14  C   UNL     1      -4.038  -0.550 130.195  0.00  0.00    +0.000 C 
BRANCH  14  15
ATOM     15  C   UNL     1      -4.192   0.198 131.509  0.00  0.00    +0.000 C 
BRANCH  15  16
ATOM     16  C   UNL     1      -4.086   1.699 131.283  0.00  0.00    +0.000 C 
ATOM     17  C   UNL     1      -4.178   2.439 132.603  0.00  0.00    +0.000 C 
ENDBRANCH  15  16
ENDBRANCH  14  15
ENDBRANCH  13  14
ENDBRANCH  12  13
ENDBRANCH  11  12
ENDBRANCH  10  11
ENDBRANCH   9  10
ENDBRANCH   8   9
ENDBRANCH   7   8
ENDBRANCH   6   7
ENDBRANCH   5   6
ENDBRANCH   3   5
ENDBRANCH   2   3
ENDBRANCH   1   2
BRANCH   1  18
ATOM     18  C   UNL     1      -7.025   5.582 130.595  0.00  0.00    +0.000 C 
BRANCH  18  19
ATOM     19  O   UNL     1      -7.847   5.059 131.618  0.00  0.00    +0.000 OA
BRANCH  19  20
ATOM     20  P   UNL     1      -9.311   5.977 131.723  0.00  0.00    +0.000 P 
ATOM     21  O   UNL     1      -9.107   6.161 133.230  0.00  0.00    +0.000 OA
ATOM     22  O   UNL     1      -8.800   6.989 130.699  0.00  0.00    +0.000 OA
BRANCH  20  23
ATOM     23  O   UNL     1     -10.773   6.893 131.828  0.00  0.00    +0.000 OA
BRANCH  23  24
ATOM     24  C   UNL     1     -11.574   6.585 130.734  0.00  0.00    +0.000 C 
BRANCH  24  25
ATOM     25  C   UNL     1     -12.603   7.676 130.552  0.00  0.00    +0.000 C 
BRANCH  25  26
ATOM     26  N   UNL     1     -12.638   8.155 129.084  0.00  0.00    +0.000 N 
ATOM     27  C   UNL     1     -11.236   8.132 128.495  0.00  0.00    +0.000 C 
ATOM     28  C   UNL     1     -13.570   7.254 128.279  0.00  0.00    +0.000 C 
ATOM     29  C   UNL     1     -13.170   9.573 129.052  0.00  0.00    +0.000 C 
ENDBRANCH  25  26
ENDBRANCH  24  25
ENDBRANCH  23  24
ENDBRANCH  20  23
ENDBRANCH  19  20
ENDBRANCH  18  19
ENDBRANCH   1  18
BRANCH   1  30
ATOM     30  C   UNL     1      -4.953   4.936 129.341  0.00  0.00    +0.000 C 
BRANCH  30  31
ATOM     31  O   UNL     1      -4.904   5.101 127.903  0.00  0.00    +0.000 OA
BRANCH  31  32
ATOM     32  C   UNL     1      -3.779   4.649 127.292  0.00  0.00    +0.000 C 
ATOM     33  O   UNL     1      -2.647   5.028 127.583  0.00  0.00    +0.000 OA
BRANCH  32  34
ATOM     34  C   UNL     1      -4.091   3.667 126.173  0.00  0.00    +0.000 C 
BRANCH  34  35
ATOM     35  C   UNL     1      -5.483   3.953 125.602  0.00  0.00    +0.000 C 
BRANCH  35  36
ATOM     36  C   UNL     1      -6.278   2.686 125.308  0.00  0.00    +0.000 C 
BRANCH  36  37
ATOM     37  C   UNL     1      -5.573   1.472 125.908  0.00  0.00    +0.000 C 
BRANCH  37  38
ATOM     38  C   UNL     1      -6.421   0.223 125.727  0.00  0.00    +0.000 C 
BRANCH  38  39
ATOM     39  C   UNL     1      -5.535  -1.008 125.628  0.00  0.00    +0.000 C 
BRANCH  39  40
ATOM     40  C   UNL     1      -5.758  -1.703 124.296  0.00  0.00    +0.000 C 
BRANCH  40  41
ATOM     41  C   UNL     1      -6.886  -1.025 123.538  0.00  0.00    +0.000 C 
BRANCH  41  42
ATOM     42  C   UNL     1      -7.577  -2.026 122.629  0.00  0.00    +0.000 C 
BRANCH  42  43
ATOM     43  C   UNL     1      -8.969  -2.332 123.154  0.00  0.00    +0.000 C 
BRANCH  43  44
ATOM     44  C   UNL     1      -8.900  -3.410 124.224  0.00  0.00    +0.000 C 
BRANCH  44  46
ATOM     45  C   UNL     1      -8.587  -3.380 126.698  0.00  0.00    +0.000 C 
ATOM     46  C   UNL     1      -9.440  -2.884 125.546  0.00  0.00    +0.000 C 
ENDBRANCH  44  46
ENDBRANCH  43  44
ENDBRANCH  42  43
ENDBRANCH  41  42
ENDBRANCH  40  41
ENDBRANCH  39  40
ENDBRANCH  38  39
ENDBRANCH  37  38
ENDBRANCH  36  37
ENDBRANCH  35  36
ENDBRANCH  34  35
ENDBRANCH  32  34
ENDBRANCH  31  32
ENDBRANCH  30  31
ENDBRANCH   1  30
TORSDOF 36
ENDMDL
MODEL 6
REMARK VINA RESULT:      -5.4      1.888      5.376
REMARK  Name = DL-dimyristoylphosphatidylcholine
REMARK  41 active torsions:
REMARK  status: ('A' for Active; 'I' for Inactive)
REMARK    1  A    between atoms: C_1  and  C_2
REMARK    2  A    between atoms: C_2  and  C_3
REMARK    3  A    between atoms: C_3  and  C_4
REMARK    4  A    between atoms: C_4  and  C_5
REMARK    5  A    between atoms: C_5  and  C_6
REMARK    6  A    between atoms: C_6  and  C_7
REMARK    7  A    between atoms: C_7  and  C_8
REMARK    8  A    between atoms: C_8  and  C_9
REMARK    9  A    between atoms: C_9  and  C_10
REMARK   10  A    between atoms: C_10  and  C_11
REMARK   11  A    between atoms: C_11  and  C_12
REMARK   12  A    between atoms: C_12  and  C_13
REMARK   13  A    between atoms: C_13  and  C_14
REMARK   14  A    between atoms: C_14  and  O_16
REMARK   15  A    between atoms: O_16  and  C_17
REMARK   16  A    between atoms: C_17  and  C_18
REMARK   17  A    between atoms: C_18  and  C_19
REMARK   18  A    between atoms: C_18  and  O_31
REMARK   19  A    between atoms: C_19  and  O_20
REMARK   20  A    between atoms: O_20  and  P_21
REMARK   21  A    between atoms: P_21  and  O_24
REMARK   22  A    between atoms: O_24  and  C_25
REMARK   23  A    between atoms: C_25  and  C_26
REMARK   24  A    between atoms: C_26  and  N_27
REMARK   25  A    between atoms: N_27  and  C_28
REMARK   26  A    between atoms: N_27  and  C_29
REMARK   27  A    between atoms: N_27  and  C_30
REMARK   28  A    between atoms: O_31  and  C_32
REMARK   29  A    between atoms: C_32  and  C_34
REMARK   30  A    between atoms: C_34  and  C_35
REMARK   31  A    between atoms: C_35  and  C_36
REMARK   32  A    between atoms: C_36  and  C_37
REMARK   33  A    between atoms: C_37  and  C_38
REMARK   34  A    between atoms: C_38  and  C_39
REMARK   35  A    between atoms: C_39  and  C_40
REMARK   36  A    between atoms: C_40  and  C_41
REMARK   37  A    between atoms: C_41  and  C_42
REMARK   38  A    between atoms: C_42  and  C_43
REMARK   39  A    between atoms: C_43  and  C_44
REMARK   40  A    between atoms: C_44  and  C_45
REMARK   41  A    between atoms: C_45  and  C_46
REMARK                            x       y       z     vdW  Elec       q    Type
REMARK                         _______ _______ _______ _____ _____    ______ ____
ROOT
ATOM      1  C   UNL     1      -7.319   2.124 128.154  0.00  0.00    +0.000 C 
ENDROOT
BRANCH   1   2
ATOM      2  O   UNL     1      -7.229   0.692 128.441  0.00  0.00    +0.000 OA
BRANCH   2   3
ATOM      3  C   UNL     1      -6.123   0.293 129.139  0.00  0.00    +0.000 C 
ATOM      4  O   UNL     1      -4.966   0.580 128.838  0.00  0.00    +0.000 OA
BRANCH   3   5
ATOM      5  C   UNL     1      -6.468  -0.553 130.346  0.00  0.00    +0.000 C 
BRANCH   5   6
ATOM      6  C   UNL     1      -7.625  -1.498 129.995  0.00  0.00    +0.000 C 
BRANCH   6   7
ATOM      7  C   UNL     1      -7.184  -2.950 129.893  0.00  0.00    +0.000 C 
BRANCH   7   8
ATOM      8  C   UNL     1      -8.022  -3.688 128.854  0.00  0.00    +0.000 C 
BRANCH   8   9
ATOM      9  C   UNL     1      -8.159  -2.849 127.594  0.00  0.00    +0.000 C 
BRANCH   9  10
ATOM     10  C   UNL     1      -9.236  -3.424 126.690  0.00  0.00    +0.000 C 
BRANCH  10  11
ATOM     11  C   UNL     1      -9.414  -2.541 125.467  0.00  0.00    +0.000 C 
BRANCH  11  12
ATOM     12  C   UNL     1      -9.137  -3.338 124.204  0.00  0.00    +0.000 C 
BRANCH  12  13
ATOM     13  C   UNL     1      -8.666  -2.411 123.098  0.00  0.00    +0.000 C 
BRANCH  13  14
ATOM     14  C   UNL     1      -8.677  -0.972 123.585  0.00  0.00    +0.000 C 
BRANCH  14  15
ATOM     15  C   UNL     1      -9.633  -0.141 122.745  0.00  0.00    +0.000 C 
BRANCH  15  16
ATOM     16  C   UNL     1      -9.856   1.222 123.382  0.00  0.00    +0.000 C 
ATOM     17  C   UNL     1      -9.069   2.286 122.643  0.00  0.00    +0.000 C 
ENDBRANCH  15  16
ENDBRANCH  14  15
ENDBRANCH  13  14
ENDBRANCH  12  13
ENDBRANCH  11  12
ENDBRANCH  10  11
ENDBRANCH   9  10
ENDBRANCH   8   9
ENDBRANCH   7   8
ENDBRANCH   6   7
ENDBRANCH   5   6
ENDBRANCH   3   5
ENDBRANCH   2   3
ENDBRANCH   1   2
BRANCH   1  18
ATOM     18  C   UNL     1      -7.872   2.867 129.364  0.00  0.00    +0.000 C 
BRANCH  18  19
ATOM     19  O   UNL     1      -9.256   3.107 129.213  0.00  0.00    +0.000 OA
BRANCH  19  20
ATOM     20  P   UNL     1      -9.672   4.623 129.937  0.00  0.00    +0.000 P 
ATOM     21  O   UNL     1      -9.124   5.373 128.719  0.00  0.00    +0.000 OA
ATOM     22  O   UNL     1     -11.139   4.214 130.053  0.00  0.00    +0.000 OA
BRANCH  20  23
ATOM     23  O   UNL     1     -10.087   6.138 130.660  0.00  0.00    +0.000 OA
BRANCH  23  24
ATOM     24  C   UNL     1     -11.446   6.364 130.478  0.00  0.00    +0.000 C 
BRANCH  24  25
ATOM     25  C   UNL     1     -11.671   7.834 130.212  0.00  0.00    +0.000 C 
BRANCH  25  26
ATOM     26  N   UNL     1     -12.139   8.060 128.758  0.00  0.00    +0.000 N 
ATOM     27  C   UNL     1     -12.831   6.812 128.233  0.00  0.00    +0.000 C 
ATOM     28  C   UNL     1     -13.086   9.256 128.710  0.00  0.00    +0.000 C 
ATOM     29  C   UNL     1     -10.925   8.356 127.901  0.00  0.00    +0.000 C 
ENDBRANCH  25  26
ENDBRANCH  24  25
ENDBRANCH  23  24
ENDBRANCH  20  23
ENDBRANCH  19  20
ENDBRANCH  18  19
ENDBRANCH   1  18
BRANCH   1  30
ATOM     30  C   UNL     1      -8.236   2.385 126.931  0.00  0.00    +0.000 C 
BRANCH  30  31
ATOM     31  O   UNL     1      -7.484   2.847 125.783  0.00  0.00    +0.000 OA
BRANCH  31  32
ATOM     32  C   UNL     1      -7.668   4.147 125.437  0.00  0.00    +0.000 C 
ATOM     33  O   UNL     1      -8.739   4.738 125.556  0.00  0.00    +0.000 OA
BRANCH  32  34
ATOM     34  C   UNL     1      -6.414   4.763 124.837  0.00  0.00    +0.000 C 
BRANCH  34  35
ATOM     35  C   UNL     1      -5.206   3.864 125.121  0.00  0.00    +0.000 C 
BRANCH  35  36
ATOM     36  C   UNL     1      -4.396   4.321 126.328  0.00  0.00    +0.000 C 
BRANCH  36  37
ATOM     37  C   UNL     1      -3.051   3.599 126.364  0.00  0.00    +0.000 C 
BRANCH  37  38
ATOM     38  C   UNL     1      -2.599   3.389 127.801  0.00  0.00    +0.000 C 
BRANCH  38  39
ATOM     39  C   UNL     1      -3.551   4.082 128.761  0.00  0.00    +0.000 C 
BRANCH  39  40
ATOM     40  C   UNL     1      -2.765   4.862 129.800  0.00  0.00    +0.000 C 
BRANCH  40  41
ATOM     41  C   UNL     1      -2.378   6.223 129.247  0.00  0.00    +0.000 C 
BRANCH  41  42
ATOM     42  C   UNL     1      -3.609   6.942 128.726  0.00  0.00    +0.000 C 
BRANCH  42  43
ATOM     43  C   UNL     1      -3.997   8.065 129.673  0.00  0.00    +0.000 C 
BRANCH  43  44
ATOM     44  C   UNL     1      -4.537   7.491 130.973  0.00  0.00    +0.000 C 
BRANCH  44  46
ATOM     45  C   UNL     1      -6.405   6.150 131.939  0.00  0.00    +0.000 C 
ATOM     46  C   UNL     1      -5.989   7.066 130.805  0.00  0.00    +0.000 C 
ENDBRANCH  44  46
ENDBRANCH  43  44
ENDBRANCH  42  43
ENDBRANCH  41  42
ENDBRANCH  40  41
ENDBRANCH  39  40
ENDBRANCH  38  39
ENDBRANCH  37  38
ENDBRANCH  36  37
ENDBRANCH  35  36
ENDBRANCH  34  35
ENDBRANCH  32  34
ENDBRANCH  31  32
ENDBRANCH  30  31
ENDBRANCH   1  30
TORSDOF 36
ENDMDL
MODEL 7
REMARK VINA RESULT:      -5.4      2.925      7.688
REMARK  Name = DL-dimyristoylphosphatidylcholine
REMARK  41 active torsions:
REMARK  status: ('A' for Active; 'I' for Inactive)
REMARK    1  A    between atoms: C_1  and  C_2
REMARK    2  A    between atoms: C_2  and  C_3
REMARK    3  A    between atoms: C_3  and  C_4
REMARK    4  A    between atoms: C_4  and  C_5
REMARK    5  A    between atoms: C_5  and  C_6
REMARK    6  A    between atoms: C_6  and  C_7
REMARK    7  A    between atoms: C_7  and  C_8
REMARK    8  A    between atoms: C_8  and  C_9
REMARK    9  A    between atoms: C_9  and  C_10
REMARK   10  A    between atoms: C_10  and  C_11
REMARK   11  A    between atoms: C_11  and  C_12
REMARK   12  A    between atoms: C_12  and  C_13
REMARK   13  A    between atoms: C_13  and  C_14
REMARK   14  A    between atoms: C_14  and  O_16
REMARK   15  A    between atoms: O_16  and  C_17
REMARK   16  A    between atoms: C_17  and  C_18
REMARK   17  A    between atoms: C_18  and  C_19
REMARK   18  A    between atoms: C_18  and  O_31
REMARK   19  A    between atoms: C_19  and  O_20
REMARK   20  A    between atoms: O_20  and  P_21
REMARK   21  A    between atoms: P_21  and  O_24
REMARK   22  A    between atoms: O_24  and  C_25
REMARK   23  A    between atoms: C_25  and  C_26
REMARK   24  A    between atoms: C_26  and  N_27
REMARK   25  A    between atoms: N_27  and  C_28
REMARK   26  A    between atoms: N_27  and  C_29
REMARK   27  A    between atoms: N_27  and  C_30
REMARK   28  A    between atoms: O_31  and  C_32
REMARK   29  A    between atoms: C_32  and  C_34
REMARK   30  A    between atoms: C_34  and  C_35
REMARK   31  A    between atoms: C_35  and  C_36
REMARK   32  A    between atoms: C_36  and  C_37
REMARK   33  A    between atoms: C_37  and  C_38
REMARK   34  A    between atoms: C_38  and  C_39
REMARK   35  A    between atoms: C_39  and  C_40
REMARK   36  A    between atoms: C_40  and  C_41
REMARK   37  A    between atoms: C_41  and  C_42
REMARK   38  A    between atoms: C_42  and  C_43
REMARK   39  A    between atoms: C_43  and  C_44
REMARK   40  A    between atoms: C_44  and  C_45
REMARK   41  A    between atoms: C_45  and  C_46
REMARK                            x       y       z     vdW  Elec       q    Type
REMARK                         _______ _______ _______ _____ _____    ______ ____
ROOT
ATOM      1  C   UNL     1      -5.923   4.272 127.099  0.00  0.00    +0.000 C 
ENDROOT
BRANCH   1   2
ATOM      2  O   UNL     1      -6.425   3.850 128.407  0.00  0.00    +0.000 OA
BRANCH   2   3
ATOM      3  C   UNL     1      -7.780   3.925 128.576  0.00  0.00    +0.000 C 
ATOM      4  O   UNL     1      -8.475   4.880 128.235  0.00  0.00    +0.000 OA
BRANCH   3   5
ATOM      5  C   UNL     1      -8.355   2.690 129.236  0.00  0.00    +0.000 C 
BRANCH   5   6
ATOM      6  C   UNL     1      -9.226   3.106 130.429  0.00  0.00    +0.000 C 
BRANCH   6   7
ATOM      7  C   UNL     1      -9.250   2.056 131.529  0.00  0.00    +0.000 C 
BRANCH   7   8
ATOM      8  C   UNL     1      -9.498   2.711 132.884  0.00  0.00    +0.000 C 
BRANCH   8   9
ATOM      9  C   UNL     1      -8.176   3.035 133.562  0.00  0.00    +0.000 C 
BRANCH   9  10
ATOM     10  C   UNL     1      -7.103   2.051 133.127  0.00  0.00    +0.000 C 
BRANCH  10  11
ATOM     11  C   UNL     1      -5.772   2.422 133.756  0.00  0.00    +0.000 C 
BRANCH  11  12
ATOM     12  C   UNL     1      -4.646   2.206 132.760  0.00  0.00    +0.000 C 
BRANCH  12  13
ATOM     13  C   UNL     1      -5.171   2.355 131.344  0.00  0.00    +0.000 C 
BRANCH  13  14
ATOM     14  C   UNL     1      -4.713   1.181 130.494  0.00  0.00    +0.000 C 
BRANCH  14  15
ATOM     15  C   UNL     1      -4.550  -0.058 131.358  0.00  0.00    +0.000 C 
BRANCH  15  16
ATOM     16  C   UNL     1      -5.534  -1.138 130.934  0.00  0.00    +0.000 C 
ATOM     17  C   UNL     1      -6.699  -0.524 130.182  0.00  0.00    +0.000 C 
ENDBRANCH  15  16
ENDBRANCH  14  15
ENDBRANCH  13  14
ENDBRANCH  12  13
ENDBRANCH  11  12
ENDBRANCH  10  11
ENDBRANCH   9  10
ENDBRANCH   8   9
ENDBRANCH   7   8
ENDBRANCH   6   7
ENDBRANCH   5   6
ENDBRANCH   3   5
ENDBRANCH   2   3
ENDBRANCH   1   2
BRANCH   1  18
ATOM     18  C   UNL     1      -5.946   3.100 126.126  0.00  0.00    +0.000 C 
BRANCH  18  19
ATOM     19  O   UNL     1      -6.561   3.471 124.909  0.00  0.00    +0.000 OA
BRANCH  19  20
ATOM     20  P   UNL     1      -8.149   2.789 124.820  0.00  0.00    +0.000 P 
ATOM     21  O   UNL     1      -8.771   4.152 125.139  0.00  0.00    +0.000 OA
ATOM     22  O   UNL     1      -7.911   2.314 123.388  0.00  0.00    +0.000 OA
BRANCH  20  23
ATOM     23  O   UNL     1      -9.736   2.107 124.732  0.00  0.00    +0.000 OA
BRANCH  23  24
ATOM     24  C   UNL     1      -9.623   0.727 124.607  0.00  0.00    +0.000 C 
BRANCH  24  25
ATOM     25  C   UNL     1      -9.033   0.163 125.878  0.00  0.00    +0.000 C 
BRANCH  25  26
ATOM     26  N   UNL     1      -8.284  -1.158 125.594  0.00  0.00    +0.000 N 
ATOM     27  C   UNL     1      -7.039  -1.248 126.461  0.00  0.00    +0.000 C 
ATOM     28  C   UNL     1      -9.213  -2.337 125.868  0.00  0.00    +0.000 C 
ATOM     29  C   UNL     1      -7.878  -1.176 124.134  0.00  0.00    +0.000 C 
ENDBRANCH  25  26
ENDBRANCH  24  25
ENDBRANCH  23  24
ENDBRANCH  20  23
ENDBRANCH  19  20
ENDBRANCH  18  19
ENDBRANCH   1  18
BRANCH   1  30
ATOM     30  C   UNL     1      -4.474   4.812 127.213  0.00  0.00    +0.000 C 
BRANCH  30  31
ATOM     31  O   UNL     1      -4.449   6.239 127.461  0.00  0.00    +0.000 OA
BRANCH  31  32
ATOM     32  C   UNL     1      -3.407   6.694 128.203  0.00  0.00    +0.000 C 
ATOM     33  O   UNL     1      -2.243   6.337 128.035  0.00  0.00    +0.000 OA
BRANCH  32  34
ATOM     34  C   UNL     1      -3.858   7.650 129.296  0.00  0.00    +0.000 C 
BRANCH  34  35
ATOM     35  C   UNL     1      -3.306   7.190 130.649  0.00  0.00    +0.000 C 
BRANCH  35  36
ATOM     36  C   UNL     1      -3.895   5.862 131.111  0.00  0.00    +0.000 C 
BRANCH  36  37
ATOM     37  C   UNL     1      -4.253   5.932 132.594  0.00  0.00    +0.000 C 
BRANCH  37  38
ATOM     38  C   UNL     1      -5.757   6.078 132.770  0.00  0.00    +0.000 C 
BRANCH  38  39
ATOM     39  C   UNL     1      -6.479   5.686 131.492  0.00  0.00    +0.000 C 
BRANCH  39  40
ATOM     40  C   UNL     1      -7.551   6.712 131.165  0.00  0.00    +0.000 C 
BRANCH  40  41
ATOM     41  C   UNL     1      -8.845   6.357 131.877  0.00  0.00    +0.000 C 
BRANCH  41  42
ATOM     42  C   UNL     1     -10.033   6.692 130.994  0.00  0.00    +0.000 C 
BRANCH  42  43
ATOM     43  C   UNL     1     -11.329   6.370 131.720  0.00  0.00    +0.000 C 
BRANCH  43  44
ATOM     44  C   UNL     1     -12.497   7.066 131.039  0.00  0.00    +0.000 C 
BRANCH  44  46
ATOM     45  C   UNL     1     -12.696   9.132 129.657  0.00  0.00    +0.000 C 
ATOM     46  C   UNL     1     -12.030   7.775 129.775  0.00  0.00    +0.000 C 
ENDBRANCH  44  46
ENDBRANCH  43  44
ENDBRANCH  42  43
ENDBRANCH  41  42
ENDBRANCH  40  41
ENDBRANCH  39  40
ENDBRANCH  38  39
ENDBRANCH  37  38
ENDBRANCH  36  37
ENDBRANCH  35  36
ENDBRANCH  34  35
ENDBRANCH  32  34
ENDBRANCH  31  32
ENDBRANCH  30  31
ENDBRANCH   1  30
TORSDOF 36
ENDMDL
MODEL 8
REMARK VINA RESULT:      -5.3      2.068      4.961
REMARK  Name = DL-dimyristoylphosphatidylcholine
REMARK  41 active torsions:
REMARK  status: ('A' for Active; 'I' for Inactive)
REMARK    1  A    between atoms: C_1  and  C_2
REMARK    2  A    between atoms: C_2  and  C_3
REMARK    3  A    between atoms: C_3  and  C_4
REMARK    4  A    between atoms: C_4  and  C_5
REMARK    5  A    between atoms: C_5  and  C_6
REMARK    6  A    between atoms: C_6  and  C_7
REMARK    7  A    between atoms: C_7  and  C_8
REMARK    8  A    between atoms: C_8  and  C_9
REMARK    9  A    between atoms: C_9  and  C_10
REMARK   10  A    between atoms: C_10  and  C_11
REMARK   11  A    between atoms: C_11  and  C_12
REMARK   12  A    between atoms: C_12  and  C_13
REMARK   13  A    between atoms: C_13  and  C_14
REMARK   14  A    between atoms: C_14  and  O_16
REMARK   15  A    between atoms: O_16  and  C_17
REMARK   16  A    between atoms: C_17  and  C_18
REMARK   17  A    between atoms: C_18  and  C_19
REMARK   18  A    between atoms: C_18  and  O_31
REMARK   19  A    between atoms: C_19  and  O_20
REMARK   20  A    between atoms: O_20  and  P_21
REMARK   21  A    between atoms: P_21  and  O_24
REMARK   22  A    between atoms: O_24  and  C_25
REMARK   23  A    between atoms: C_25  and  C_26
REMARK   24  A    between atoms: C_26  and  N_27
REMARK   25  A    between atoms: N_27  and  C_28
REMARK   26  A    between atoms: N_27  and  C_29
REMARK   27  A    between atoms: N_27  and  C_30
REMARK   28  A    between atoms: O_31  and  C_32
REMARK   29  A    between atoms: C_32  and  C_34
REMARK   30  A    between atoms: C_34  and  C_35
REMARK   31  A    between atoms: C_35  and  C_36
REMARK   32  A    between atoms: C_36  and  C_37
REMARK   33  A    between atoms: C_37  and  C_38
REMARK   34  A    between atoms: C_38  and  C_39
REMARK   35  A    between atoms: C_39  and  C_40
REMARK   36  A    between atoms: C_40  and  C_41
REMARK   37  A    between atoms: C_41  and  C_42
REMARK   38  A    between atoms: C_42  and  C_43
REMARK   39  A    between atoms: C_43  and  C_44
REMARK   40  A    between atoms: C_44  and  C_45
REMARK   41  A    between atoms: C_45  and  C_46
REMARK                            x       y       z     vdW  Elec       q    Type
REMARK                         _______ _______ _______ _____ _____    ______ ____
ROOT
ATOM      1  C   UNL     1      -8.307   0.724 130.076  0.00  0.00    +0.000 C 
ENDROOT
BRANCH   1   2
ATOM      2  O   UNL     1      -7.493   1.371 129.047  0.00  0.00    +0.000 OA
BRANCH   2   3
ATOM      3  C   UNL     1      -7.935   1.226 127.761  0.00  0.00    +0.000 C 
ATOM      4  O   UNL     1      -9.074   1.487 127.380  0.00  0.00    +0.000 OA
BRANCH   3   5
ATOM      5  C   UNL     1      -6.862   0.703 126.830  0.00  0.00    +0.000 C 
BRANCH   5   6
ATOM      6  C   UNL     1      -6.548  -0.758 127.180  0.00  0.00    +0.000 C 
BRANCH   6   7
ATOM      7  C   UNL     1      -7.243  -1.743 126.253  0.00  0.00    +0.000 C 
BRANCH   7   8
ATOM      8  C   UNL     1      -8.508  -2.288 126.908  0.00  0.00    +0.000 C 
BRANCH   8   9
ATOM      9  C   UNL     1      -9.402  -2.942 125.867  0.00  0.00    +0.000 C 
BRANCH   9  10
ATOM     10  C   UNL     1      -8.576  -3.415 124.683  0.00  0.00    +0.000 C 
BRANCH  10  11
ATOM     11  C   UNL     1      -9.280  -3.064 123.384  0.00  0.00    +0.000 C 
BRANCH  11  12
ATOM     12  C   UNL     1      -8.601  -1.875 122.728  0.00  0.00    +0.000 C 
BRANCH  12  13
ATOM     13  C   UNL     1      -9.487  -0.647 122.834  0.00  0.00    +0.000 C 
BRANCH  13  14
ATOM     14  C   UNL     1      -8.825   0.398 123.717  0.00  0.00    +0.000 C 
BRANCH  14  15
ATOM     15  C   UNL     1      -9.499   1.747 123.527  0.00  0.00    +0.000 C 
BRANCH  15  16
ATOM     16  C   UNL     1      -8.502   2.772 123.006  0.00  0.00    +0.000 C 
ATOM     17  C   UNL     1      -7.084   2.330 123.309  0.00  0.00    +0.000 C 
ENDBRANCH  15  16
ENDBRANCH  14  15
ENDBRANCH  13  14
ENDBRANCH  12  13
ENDBRANCH  11  12
ENDBRANCH  10  11
ENDBRANCH   9  10
ENDBRANCH   8   9
ENDBRANCH   7   8
ENDBRANCH   6   7
ENDBRANCH   5   6
ENDBRANCH   3   5
ENDBRANCH   2   3
ENDBRANCH   1   2
BRANCH   1  18
ATOM     18  C   UNL     1      -8.703   1.737 131.143  0.00  0.00    +0.000 C 
BRANCH  18  19
ATOM     19  O   UNL     1      -8.460   3.055 130.697  0.00  0.00    +0.000 OA
BRANCH  19  20
ATOM     20  P   UNL     1      -9.958   3.829 130.304  0.00  0.00    +0.000 P 
ATOM     21  O   UNL     1      -9.983   4.514 131.673  0.00  0.00    +0.000 OA
ATOM     22  O   UNL     1      -9.343   4.489 129.071  0.00  0.00    +0.000 OA
BRANCH  20  23
ATOM     23  O   UNL     1     -11.454   4.601 129.911  0.00  0.00    +0.000 OA
BRANCH  23  24
ATOM     24  C   UNL     1     -11.292   5.976 130.026  0.00  0.00    +0.000 C 
BRANCH  24  25
ATOM     25  C   UNL     1     -12.512   6.667 129.461  0.00  0.00    +0.000 C 
BRANCH  25  26
ATOM     26  N   UNL     1     -12.104   7.714 128.402  0.00  0.00    +0.000 N 
ATOM     27  C   UNL     1     -12.850   9.017 128.644  0.00  0.00    +0.000 C 
ATOM     28  C   UNL     1     -10.597   7.942 128.466  0.00  0.00    +0.000 C 
ATOM     29  C   UNL     1     -12.466   7.179 127.031  0.00  0.00    +0.000 C 
ENDBRANCH  25  26
ENDBRANCH  24  25
ENDBRANCH  23  24
ENDBRANCH  20  23
ENDBRANCH  19  20
ENDBRANCH  18  19
ENDBRANCH   1  18
BRANCH   1  30
ATOM     30  C   UNL     1      -7.532  -0.442 130.742  0.00  0.00    +0.000 C 
BRANCH  30  31
ATOM     31  O   UNL     1      -8.106  -1.729 130.410  0.00  0.00    +0.000 OA
BRANCH  31  32
ATOM     32  C   UNL     1      -7.415  -2.816 130.840  0.00  0.00    +0.000 C 
ATOM     33  O   UNL     1      -7.445  -3.227 131.998  0.00  0.00    +0.000 OA
BRANCH  32  34
ATOM     34  C   UNL     1      -6.563  -3.425 129.738  0.00  0.00    +0.000 C 
BRANCH  34  35
ATOM     35  C   UNL     1      -5.433  -4.257 130.354  0.00  0.00    +0.000 C 
BRANCH  35  36
ATOM     36  C   UNL     1      -4.130  -3.478 130.496  0.00  0.00    +0.000 C 
BRANCH  36  37
ATOM     37  C   UNL     1      -4.194  -2.192 129.675  0.00  0.00    +0.000 C 
BRANCH  37  38
ATOM     38  C   UNL     1      -3.792  -0.997 130.526  0.00  0.00    +0.000 C 
BRANCH  38  39
ATOM     39  C   UNL     1      -4.152   0.299 129.819  0.00  0.00    +0.000 C 
BRANCH  39  40
ATOM     40  C   UNL     1      -4.233   1.434 130.826  0.00  0.00    +0.000 C 
BRANCH  40  41
ATOM     41  C   UNL     1      -4.719   2.701 130.144  0.00  0.00    +0.000 C 
BRANCH  41  42
ATOM     42  C   UNL     1      -3.637   3.764 130.189  0.00  0.00    +0.000 C 
BRANCH  42  43
ATOM     43  C   UNL     1      -3.154   4.077 128.782  0.00  0.00    +0.000 C 
BRANCH  43  44
ATOM     44  C   UNL     1      -4.037   3.381 127.759  0.00  0.00    +0.000 C 
BRANCH  44  46
ATOM     45  C   UNL     1      -1.748   3.013 126.840  0.00  0.00    +0.000 C 
ATOM     46  C   UNL     1      -3.230   3.016 126.521  0.00  0.00    +0.000 C 
ENDBRANCH  44  46
ENDBRANCH  43  44
ENDBRANCH  42  43
ENDBRANCH  41  42
ENDBRANCH  40  41
ENDBRANCH  39  40
ENDBRANCH  38  39
ENDBRANCH  37  38
ENDBRANCH  36  37
ENDBRANCH  35  36
ENDBRANCH  34  35
ENDBRANCH  32  34
ENDBRANCH  31  32
ENDBRANCH  30  31
ENDBRANCH   1  30
TORSDOF 36
ENDMDL
MODEL 9
REMARK VINA RESULT:      -5.3      2.924      7.907
REMARK  Name = DL-dimyristoylphosphatidylcholine
REMARK  41 active torsions:
REMARK  status: ('A' for Active; 'I' for Inactive)
REMARK    1  A    between atoms: C_1  and  C_2
REMARK    2  A    between atoms: C_2  and  C_3
REMARK    3  A    between atoms: C_3  and  C_4
REMARK    4  A    between atoms: C_4  and  C_5
REMARK    5  A    between atoms: C_5  and  C_6
REMARK    6  A    between atoms: C_6  and  C_7
REMARK    7  A    between atoms: C_7  and  C_8
REMARK    8  A    between atoms: C_8  and  C_9
REMARK    9  A    between atoms: C_9  and  C_10
REMARK   10  A    between atoms: C_10  and  C_11
REMARK   11  A    between atoms: C_11  and  C_12
REMARK   12  A    between atoms: C_12  and  C_13
REMARK   13  A    between atoms: C_13  and  C_14
REMARK   14  A    between atoms: C_14  and  O_16
REMARK   15  A    between atoms: O_16  and  C_17
REMARK   16  A    between atoms: C_17  and  C_18
REMARK   17  A    between atoms: C_18  and  C_19
REMARK   18  A    between atoms: C_18  and  O_31
REMARK   19  A    between atoms: C_19  and  O_20
REMARK   20  A    between atoms: O_20  and  P_21
REMARK   21  A    between atoms: P_21  and  O_24
REMARK   22  A    between atoms: O_24  and  C_25
REMARK   23  A    between atoms: C_25  and  C_26
REMARK   24  A    between atoms: C_26  and  N_27
REMARK   25  A    between atoms: N_27  and  C_28
REMARK   26  A    between atoms: N_27  and  C_29
REMARK   27  A    between atoms: N_27  and  C_30
REMARK   28  A    between atoms: O_31  and  C_32
REMARK   29  A    between atoms: C_32  and  C_34
REMARK   30  A    between atoms: C_34  and  C_35
REMARK   31  A    between atoms: C_35  and  C_36
REMARK   32  A    between atoms: C_36  and  C_37
REMARK   33  A    between atoms: C_37  and  C_38
REMARK   34  A    between atoms: C_38  and  C_39
REMARK   35  A    between atoms: C_39  and  C_40
REMARK   36  A    between atoms: C_40  and  C_41
REMARK   37  A    between atoms: C_41  and  C_42
REMARK   38  A    between atoms: C_42  and  C_43
REMARK   39  A    between atoms: C_43  and  C_44
REMARK   40  A    between atoms: C_44  and  C_45
REMARK   41  A    between atoms: C_45  and  C_46
REMARK                            x       y       z     vdW  Elec       q    Type
REMARK                         _______ _______ _______ _____ _____    ______ ____
ROOT
ATOM      1  C   UNL     1      -6.843   3.819 125.938  0.00  0.00    +0.000 C 
ENDROOT
BRANCH   1   2
ATOM      2  O   UNL     1      -7.560   4.572 126.967  0.00  0.00    +0.000 OA
BRANCH   2   3
ATOM      3  C   UNL     1      -7.292   4.216 128.259  0.00  0.00    +0.000 C 
ATOM      4  O   UNL     1      -6.865   4.982 129.121  0.00  0.00    +0.000 OA
BRANCH   3   5
ATOM      5  C   UNL     1      -7.580   2.755 128.534  0.00  0.00    +0.000 C 
BRANCH   5   6
ATOM      6  C   UNL     1      -8.866   2.634 129.363  0.00  0.00    +0.000 C 
BRANCH   6   7
ATOM      7  C   UNL     1      -8.674   1.797 130.618  0.00  0.00    +0.000 C 
BRANCH   7   8
ATOM      8  C   UNL     1      -8.575   2.696 131.846  0.00  0.00    +0.000 C 
BRANCH   8   9
ATOM      9  C   UNL     1      -9.408   3.952 131.648  0.00  0.00    +0.000 C 
BRANCH   9  10
ATOM     10  C   UNL     1      -8.615   5.182 132.055  0.00  0.00    +0.000 C 
BRANCH  10  11
ATOM     11  C   UNL     1      -9.218   6.423 131.420  0.00  0.00    +0.000 C 
BRANCH  11  12
ATOM     12  C   UNL     1     -10.713   6.470 131.684  0.00  0.00    +0.000 C 
BRANCH  12  13
ATOM     13  C   UNL     1     -11.452   6.863 130.418  0.00  0.00    +0.000 C 
BRANCH  13  14
ATOM     14  C   UNL     1     -10.474   6.981 129.260  0.00  0.00    +0.000 C 
BRANCH  14  15
ATOM     15  C   UNL     1     -10.704   8.283 128.511  0.00  0.00    +0.000 C 
BRANCH  15  16
ATOM     16  C   UNL     1     -10.907   8.016 127.027  0.00  0.00    +0.000 C 
ATOM     17  C   UNL     1     -12.148   7.174 126.808  0.00  0.00    +0.000 C 
ENDBRANCH  15  16
ENDBRANCH  14  15
ENDBRANCH  13  14
ENDBRANCH  12  13
ENDBRANCH  11  12
ENDBRANCH  10  11
ENDBRANCH   9  10
ENDBRANCH   8   9
ENDBRANCH   7   8
ENDBRANCH   6   7
ENDBRANCH   5   6
ENDBRANCH   3   5
ENDBRANCH   2   3
ENDBRANCH   1   2
BRANCH   1  18
ATOM     18  C   UNL     1      -5.480   4.449 125.681  0.00  0.00    +0.000 C 
BRANCH  18  19
ATOM     19  O   UNL     1      -4.444   3.520 125.927  0.00  0.00    +0.000 OA
BRANCH  19  20
ATOM     20  P   UNL     1      -3.374   4.140 127.138  0.00  0.00    +0.000 P 
ATOM     21  O   UNL     1      -4.040   3.260 128.200  0.00  0.00    +0.000 OA
ATOM     22  O   UNL     1      -2.148   3.683 126.349  0.00  0.00    +0.000 OA
BRANCH  20  23
ATOM     23  O   UNL     1      -2.306   4.759 128.348  0.00  0.00    +0.000 OA
BRANCH  23  24
ATOM     24  C   UNL     1      -3.055   5.136 129.456  0.00  0.00    +0.000 C 
BRANCH  24  25
ATOM     25  C   UNL     1      -2.347   6.263 130.171  0.00  0.00    +0.000 C 
BRANCH  25  26
ATOM     26  N   UNL     1      -2.860   6.398 131.622  0.00  0.00    +0.000 N 
ATOM     27  C   UNL     1      -4.278   5.859 131.724  0.00  0.00    +0.000 C 
ATOM     28  C   UNL     1      -1.931   5.637 132.562  0.00  0.00    +0.000 C 
ATOM     29  C   UNL     1      -2.855   7.865 132.000  0.00  0.00    +0.000 C 
ENDBRANCH  25  26
ENDBRANCH  24  25
ENDBRANCH  23  24
ENDBRANCH  20  23
ENDBRANCH  19  20
ENDBRANCH  18  19
ENDBRANCH   1  18
BRANCH   1  30
ATOM     30  C   UNL     1      -7.650   3.789 124.613  0.00  0.00    +0.000 C 
BRANCH  30  31
ATOM     31  O   UNL     1      -9.027   3.398 124.830  0.00  0.00    +0.000 OA
BRANCH  31  32
ATOM     32  C   UNL     1      -9.268   2.062 124.848  0.00  0.00    +0.000 C 
ATOM     33  O   UNL     1      -9.375   1.402 125.880  0.00  0.00    +0.000 OA
BRANCH  32  34
ATOM     34  C   UNL     1      -9.335   1.474 123.447  0.00  0.00    +0.000 C 
BRANCH  34  35
ATOM     35  C   UNL     1      -8.574   0.144 123.405  0.00  0.00    +0.000 C 
BRANCH  35  36
ATOM     36  C   UNL     1      -9.397  -0.993 122.812  0.00  0.00    +0.000 C 
BRANCH  36  37
ATOM     37  C   UNL     1      -8.572  -2.278 122.778  0.00  0.00    +0.000 C 
BRANCH  37  38
ATOM     38  C   UNL     1      -9.060  -3.251 123.840  0.00  0.00    +0.000 C 
BRANCH  38  39
ATOM     39  C   UNL     1      -7.893  -3.750 124.676  0.00  0.00    +0.000 C 
BRANCH  39  40
ATOM     40  C   UNL     1      -6.582  -3.286 124.066  0.00  0.00    +0.000 C 
BRANCH  40  41
ATOM     41  C   UNL     1      -5.669  -2.739 125.149  0.00  0.00    +0.000 C 
BRANCH  41  42
ATOM     42  C   UNL     1      -5.640  -1.222 125.088  0.00  0.00    +0.000 C 
BRANCH  42  43
ATOM     43  C   UNL     1      -6.367  -0.637 126.287  0.00  0.00    +0.000 C 
BRANCH  43  44
ATOM     44  C   UNL     1      -6.457  -1.669 127.399  0.00  0.00    +0.000 C 
BRANCH  44  46
ATOM     45  C   UNL     1      -8.182  -3.187 128.367  0.00  0.00    +0.000 C 
ATOM     46  C   UNL     1      -7.885  -1.771 127.917  0.00  0.00    +0.000 C 
ENDBRANCH  44  46
ENDBRANCH  43  44
ENDBRANCH  42  43
ENDBRANCH  41  42
ENDBRANCH  40  41
ENDBRANCH  39  40
ENDBRANCH  38  39
ENDBRANCH  37  38
ENDBRANCH  36  37
ENDBRANCH  35  36
ENDBRANCH  34  35
ENDBRANCH  32  34
ENDBRANCH  31  32
ENDBRANCH  30  31
ENDBRANCH   1  30
TORSDOF 36
ENDMDL
