MODEL 1
REMARK VINA RESULT:      -5.8      0.000      0.000
REMARK  Name = DL-Methylephedrine
REMARK  7 active torsions:
REMARK  status: ('A' for Active; 'I' for Inactive)
REMARK    1  A    between atoms: C_1  and  C_2
REMARK    2  A    between atoms: C_2  and  C_3
REMARK    3  A    between atoms: C_2  and  N_11
REMARK    4  A    between atoms: C_3  and  O_4
REMARK    5  A    between atoms: C_3  and  C_5
REMARK    6  A    between atoms: N_11  and  C_12
REMARK    7  A    between atoms: N_11  and  C_13
REMARK                            x       y       z     vdW  Elec       q    Type
REMARK                         _______ _______ _______ _____ _____    ______ ____
ROOT
ATOM      1  C   UNL     1     -11.982   7.065 130.285  0.00  0.00    +0.000 C 
ENDROOT
BRANCH   1   2
ATOM      2  C   UNL     1     -10.658   6.756 130.997  0.00  0.00    +0.000 A 
ATOM      3  C   UNL     1      -9.427   7.094 130.426  0.00  0.00    +0.000 A 
ATOM      4  C   UNL     1      -8.189   6.775 130.953  0.00  0.00    +0.000 A 
ATOM      5  C   UNL     1      -8.142   6.163 132.186  0.00  0.00    +0.000 A 
ATOM      6  C   UNL     1      -9.337   5.833 132.822  0.00  0.00    +0.000 A 
ATOM      7  C   UNL     1     -10.582   6.091 132.227  0.00  0.00    +0.000 A 
ENDBRANCH   1   2
BRANCH   1   9
ATOM      8  C   UNL     1     -12.980   9.413 129.925  0.00  0.00    +0.000 C 
ATOM      9  C   UNL     1     -11.951   8.387 129.387  0.00  0.00    +0.000 C 
BRANCH   9  10
ATOM     10  N   UNL     1     -12.205   8.196 127.910  0.00  0.00    +0.000 NA
ATOM     11  C   UNL     1     -10.948   8.080 127.158  0.00  0.00    +0.000 C 
ATOM     12  C   UNL     1     -12.983   7.011 127.556  0.00  0.00    +0.000 C 
ENDBRANCH   9  10
ENDBRANCH   1   9
BRANCH   1  13
ATOM     13  O   UNL     1     -13.042   7.115 131.259  0.00  0.00    +0.000 OA
ATOM     14  H   UNL     1     -12.923   6.351 131.848  0.00  0.00    +0.000 HD
ENDBRANCH   1  13
TORSDOF 4
ENDMDL
MODEL 2
REMARK VINA RESULT:      -5.8      0.250      1.341
REMARK  Name = DL-Methylephedrine
REMARK  7 active torsions:
REMARK  status: ('A' for Active; 'I' for Inactive)
REMARK    1  A    between atoms: C_1  and  C_2
REMARK    2  A    between atoms: C_2  and  C_3
REMARK    3  A    between atoms: C_2  and  N_11
REMARK    4  A    between atoms: C_3  and  O_4
REMARK    5  A    between atoms: C_3  and  C_5
REMARK    6  A    between atoms: N_11  and  C_12
REMARK    7  A    between atoms: N_11  and  C_13
REMARK                            x       y       z     vdW  Elec       q    Type
REMARK                         _______ _______ _______ _____ _____    ______ ____
ROOT
ATOM      1  C   UNL     1     -12.086   7.151 130.373  0.00  0.00    +0.000 C 
ENDROOT
BRANCH   1   2
ATOM      2  C   UNL     1     -10.710   6.797 130.952  0.00  0.00    +0.000 A 
ATOM      3  C   UNL     1     -10.583   6.139 132.180  0.00  0.00    +0.000 A 
ATOM      4  C   UNL     1      -9.386   5.862 132.816  0.00  0.00    +0.000 A 
ATOM      5  C   UNL     1      -8.213   6.161 132.160  0.00  0.00    +0.000 A 
ATOM      6  C   UNL     1      -8.275   6.787 130.917  0.00  0.00    +0.000 A 
ATOM      7  C   UNL     1      -9.502   7.135 130.329  0.00  0.00    +0.000 A 
ENDBRANCH   1   2
BRANCH   1   9
ATOM      8  C   UNL     1     -13.043   9.525 130.077  0.00  0.00    +0.000 C 
ATOM      9  C   UNL     1     -12.097   8.463 129.461  0.00  0.00    +0.000 C 
BRANCH   9  10
ATOM     10  N   UNL     1     -12.488   8.267 128.015  0.00  0.00    +0.000 NA
ATOM     11  C   UNL     1     -11.329   7.907 127.188  0.00  0.00    +0.000 C 
ATOM     12  C   UNL     1     -13.483   7.226 127.771  0.00  0.00    +0.000 C 
ENDBRANCH   9  10
ENDBRANCH   1   9
BRANCH   1  13
ATOM     13  O   UNL     1     -13.040   7.249 131.449  0.00  0.00    +0.000 OA
ATOM     14  H   UNL     1     -12.834   8.061 131.939  0.00  0.00    +0.000 HD
ENDBRANCH   1  13
TORSDOF 4
ENDMDL
MODEL 3
REMARK VINA RESULT:      -5.7      1.900      4.999
REMARK  Name = DL-Methylephedrine
REMARK  7 active torsions:
REMARK  status: ('A' for Active; 'I' for Inactive)
REMARK    1  A    between atoms: C_1  and  C_2
REMARK    2  A    between atoms: C_2  and  C_3
REMARK    3  A    between atoms: C_2  and  N_11
REMARK    4  A    between atoms: C_3  and  O_4
REMARK    5  A    between atoms: C_3  and  C_5
REMARK    6  A    between atoms: N_11  and  C_12
REMARK    7  A    between atoms: N_11  and  C_13
REMARK                            x       y       z     vdW  Elec       q    Type
REMARK                         _______ _______ _______ _____ _____    ______ ____
ROOT
ATOM      1  C   UNL     1     -11.412   6.953 131.164  0.00  0.00    +0.000 C 
ENDROOT
BRANCH   1   2
ATOM      2  C   UNL     1     -12.239   7.391 129.948  0.00  0.00    +0.000 A 
ATOM      3  C   UNL     1     -12.453   8.743 129.660  0.00  0.00    +0.000 A 
ATOM      4  C   UNL     1     -13.255   9.224 128.641  0.00  0.00    +0.000 A 
ATOM      5  C   UNL     1     -13.818   8.319 127.770  0.00  0.00    +0.000 A 
ATOM      6  C   UNL     1     -13.613   6.957 127.985  0.00  0.00    +0.000 A 
ATOM      7  C   UNL     1     -12.863   6.490 129.077  0.00  0.00    +0.000 A 
ENDBRANCH   1   2
BRANCH   1   9
ATOM      8  C   UNL     1     -10.049   4.806 130.751  0.00  0.00    +0.000 C 
ATOM      9  C   UNL     1      -9.976   6.353 130.800  0.00  0.00    +0.000 C 
BRANCH   9  10
ATOM     10  N   UNL     1      -8.839   6.742 131.715  0.00  0.00    +0.000 NA
ATOM     11  C   UNL     1      -8.715   5.812 132.846  0.00  0.00    +0.000 C 
ATOM     12  C   UNL     1      -7.518   6.778 131.091  0.00  0.00    +0.000 C 
ENDBRANCH   9  10
ENDBRANCH   1   9
BRANCH   1  13
ATOM     13  O   UNL     1     -12.185   6.029 131.953  0.00  0.00    +0.000 OA
ATOM     14  H   UNL     1     -11.973   5.136 131.635  0.00  0.00    +0.000 HD
ENDBRANCH   1  13
TORSDOF 4
ENDMDL
MODEL 4
REMARK VINA RESULT:      -5.6      1.878      4.489
REMARK  Name = DL-Methylephedrine
REMARK  7 active torsions:
REMARK  status: ('A' for Active; 'I' for Inactive)
REMARK    1  A    between atoms: C_1  and  C_2
REMARK    2  A    between atoms: C_2  and  C_3
REMARK    3  A    between atoms: C_2  and  N_11
REMARK    4  A    between atoms: C_3  and  O_4
REMARK    5  A    between atoms: C_3  and  C_5
REMARK    6  A    between atoms: N_11  and  C_12
REMARK    7  A    between atoms: N_11  and  C_13
REMARK                            x       y       z     vdW  Elec       q    Type
REMARK                         _______ _______ _______ _____ _____    ______ ____
ROOT
ATOM      1  C   UNL     1     -11.396   6.882 131.210  0.00  0.00    +0.000 C 
ENDROOT
BRANCH   1   2
ATOM      2  C   UNL     1     -12.202   7.313 129.977  0.00  0.00    +0.000 A 
ATOM      3  C   UNL     1     -12.362   8.662 129.647  0.00  0.00    +0.000 A 
ATOM      4  C   UNL     1     -13.143   9.141 128.610  0.00  0.00    +0.000 A 
ATOM      5  C   UNL     1     -13.737   8.231 127.765  0.00  0.00    +0.000 A 
ATOM      6  C   UNL     1     -13.585   6.870 128.022  0.00  0.00    +0.000 A 
ATOM      7  C   UNL     1     -12.857   6.409 129.132  0.00  0.00    +0.000 A 
ENDBRANCH   1   2
BRANCH   1   9
ATOM      8  C   UNL     1      -8.988   7.206 130.353  0.00  0.00    +0.000 C 
ATOM      9  C   UNL     1     -10.010   6.162 130.870  0.00  0.00    +0.000 C 
BRANCH   9  10
ATOM     10  N   UNL     1     -10.072   5.030 129.872  0.00  0.00    +0.000 NA
ATOM     11  C   UNL     1      -8.812   4.897 129.129  0.00  0.00    +0.000 C 
ATOM     12  C   UNL     1     -10.335   3.710 130.439  0.00  0.00    +0.000 C 
ENDBRANCH   9  10
ENDBRANCH   1   9
BRANCH   1  13
ATOM     13  O   UNL     1     -12.224   6.058 132.052  0.00  0.00    +0.000 OA
ATOM     14  H   UNL     1     -13.137   6.150 131.732  0.00  0.00    +0.000 HD
ENDBRANCH   1  13
TORSDOF 4
ENDMDL
MODEL 5
REMARK VINA RESULT:      -5.3      2.336      5.050
REMARK  Name = DL-Methylephedrine
REMARK  7 active torsions:
REMARK  status: ('A' for Active; 'I' for Inactive)
REMARK    1  A    between atoms: C_1  and  C_2
REMARK    2  A    between atoms: C_2  and  C_3
REMARK    3  A    between atoms: C_2  and  N_11
REMARK    4  A    between atoms: C_3  and  O_4
REMARK    5  A    between atoms: C_3  and  C_5
REMARK    6  A    between atoms: N_11  and  C_12
REMARK    7  A    between atoms: N_11  and  C_13
REMARK                            x       y       z     vdW  Elec       q    Type
REMARK                         _______ _______ _______ _____ _____    ______ ____
ROOT
ATOM      1  C   UNL     1     -10.836   6.408 131.470  0.00  0.00    +0.000 C 
ENDROOT
BRANCH   1   2
ATOM      2  C   UNL     1     -11.219   7.154 130.184  0.00  0.00    +0.000 A 
ATOM      3  C   UNL     1     -12.549   7.246 129.764  0.00  0.00    +0.000 A 
ATOM      4  C   UNL     1     -12.973   7.820 128.578  0.00  0.00    +0.000 A 
ATOM      5  C   UNL     1     -12.037   8.440 127.782  0.00  0.00    +0.000 A 
ATOM      6  C   UNL     1     -10.698   8.412 128.165  0.00  0.00    +0.000 A 
ATOM      7  C   UNL     1     -10.281   7.750 129.332  0.00  0.00    +0.000 A 
ENDBRANCH   1   2
BRANCH   1   9
ATOM      8  C   UNL     1     -10.641   4.009 130.552  0.00  0.00    +0.000 C 
ATOM      9  C   UNL     1      -9.865   5.160 131.241  0.00  0.00    +0.000 C 
BRANCH   9  10
ATOM     10  N   UNL     1      -9.193   4.603 132.473  0.00  0.00    +0.000 NA
ATOM     11  C   UNL     1      -8.105   3.679 132.123  0.00  0.00    +0.000 C 
ATOM     12  C   UNL     1      -8.593   5.595 133.362  0.00  0.00    +0.000 C 
ENDBRANCH   9  10
ENDBRANCH   1   9
BRANCH   1  13
ATOM     13  O   UNL     1     -12.036   6.022 132.167  0.00  0.00    +0.000 OA
ATOM     14  H   UNL     1     -12.131   6.623 132.924  0.00  0.00    +0.000 HD
ENDBRANCH   1  13
TORSDOF 4
ENDMDL
MODEL 6
REMARK VINA RESULT:      -5.2      2.789      4.917
REMARK  Name = DL-Methylephedrine
REMARK  7 active torsions:
REMARK  status: ('A' for Active; 'I' for Inactive)
REMARK    1  A    between atoms: C_1  and  C_2
REMARK    2  A    between atoms: C_2  and  C_3
REMARK    3  A    between atoms: C_2  and  N_11
REMARK    4  A    between atoms: C_3  and  O_4
REMARK    5  A    between atoms: C_3  and  C_5
REMARK    6  A    between atoms: N_11  and  C_12
REMARK    7  A    between atoms: N_11  and  C_13
REMARK                            x       y       z     vdW  Elec       q    Type
REMARK                         _______ _______ _______ _____ _____    ______ ____
ROOT
ATOM      1  C   UNL     1      -9.356   5.804 132.302  0.00  0.00    +0.000 C 
ENDROOT
BRANCH   1   2
ATOM      2  C   UNL     1     -10.401   6.501 131.420  0.00  0.00    +0.000 A 
ATOM      3  C   UNL     1     -10.044   7.117 130.216  0.00  0.00    +0.000 A 
ATOM      4  C   UNL     1     -10.901   7.841 129.406  0.00  0.00    +0.000 A 
ATOM      5  C   UNL     1     -12.235   7.889 129.744  0.00  0.00    +0.000 A 
ATOM      6  C   UNL     1     -12.658   7.264 130.915  0.00  0.00    +0.000 A 
ATOM      7  C   UNL     1     -11.754   6.606 131.765  0.00  0.00    +0.000 A 
ENDBRANCH   1   2
BRANCH   1   9
ATOM      8  C   UNL     1      -9.143   3.632 133.670  0.00  0.00    +0.000 C 
ATOM      9  C   UNL     1      -9.420   4.208 132.259  0.00  0.00    +0.000 C 
BRANCH   9  10
ATOM     10  N   UNL     1      -8.488   3.529 131.283  0.00  0.00    +0.000 NA
ATOM     11  C   UNL     1      -9.204   3.072 130.084  0.00  0.00    +0.000 C 
ATOM     12  C   UNL     1      -7.387   4.354 130.791  0.00  0.00    +0.000 C 
ENDBRANCH   9  10
ENDBRANCH   1   9
BRANCH   1  13
ATOM     13  O   UNL     1      -9.469   6.300 133.649  0.00  0.00    +0.000 OA
ATOM     14  H   UNL     1      -8.566   6.443 133.977  0.00  0.00    +0.000 HD
ENDBRANCH   1  13
TORSDOF 4
ENDMDL
MODEL 7
REMARK VINA RESULT:      -5.2      8.657     10.833
REMARK  Name = DL-Methylephedrine
REMARK  7 active torsions:
REMARK  status: ('A' for Active; 'I' for Inactive)
REMARK    1  A    between atoms: C_1  and  C_2
REMARK    2  A    between atoms: C_2  and  C_3
REMARK    3  A    between atoms: C_2  and  N_11
REMARK    4  A    between atoms: C_3  and  O_4
REMARK    5  A    between atoms: C_3  and  C_5
REMARK    6  A    between atoms: N_11  and  C_12
REMARK    7  A    between atoms: N_11  and  C_13
REMARK                            x       y       z     vdW  Elec       q    Type
REMARK                         _______ _______ _______ _____ _____    ______ ____
ROOT
ATOM      1  C   UNL     1      -5.936   3.720 122.310  0.00  0.00    +0.000 C 
ENDROOT
BRANCH   1   2
ATOM      2  C   UNL     1      -6.915   3.873 121.138  0.00  0.00    +0.000 A 
ATOM      3  C   UNL     1      -6.485   4.314 119.883  0.00  0.00    +0.000 A 
ATOM      4  C   UNL     1      -7.309   4.564 118.800  0.00  0.00    +0.000 A 
ATOM      5  C   UNL     1      -8.649   4.268 118.918  0.00  0.00    +0.000 A 
ATOM      6  C   UNL     1      -9.132   3.793 120.135  0.00  0.00    +0.000 A 
ATOM      7  C   UNL     1      -8.289   3.627 121.246  0.00  0.00    +0.000 A 
ENDBRANCH   1   2
BRANCH   1   9
ATOM      8  C   UNL     1      -6.037   4.641 124.714  0.00  0.00    +0.000 C 
ATOM      9  C   UNL     1      -6.638   3.596 123.740  0.00  0.00    +0.000 C 
BRANCH   9  10
ATOM     10  N   UNL     1      -6.567   2.240 124.403  0.00  0.00    +0.000 NA
ATOM     11  C   UNL     1      -5.748   2.278 125.622  0.00  0.00    +0.000 C 
ATOM     12  C   UNL     1      -7.851   1.676 124.812  0.00  0.00    +0.000 C 
ENDBRANCH   9  10
ENDBRANCH   1   9
BRANCH   1  13
ATOM     13  O   UNL     1      -4.990   4.806 122.280  0.00  0.00    +0.000 OA
ATOM     14  H   UNL     1      -4.921   5.149 123.186  0.00  0.00    +0.000 HD
ENDBRANCH   1  13
TORSDOF 4
ENDMDL
MODEL 8
REMARK VINA RESULT:      -5.2      8.772     10.370
REMARK  Name = DL-Methylephedrine
REMARK  7 active torsions:
REMARK  status: ('A' for Active; 'I' for Inactive)
REMARK    1  A    between atoms: C_1  and  C_2
REMARK    2  A    between atoms: C_2  and  C_3
REMARK    3  A    between atoms: C_2  and  N_11
REMARK    4  A    between atoms: C_3  and  O_4
REMARK    5  A    between atoms: C_3  and  C_5
REMARK    6  A    between atoms: N_11  and  C_12
REMARK    7  A    between atoms: N_11  and  C_13
REMARK                            x       y       z     vdW  Elec       q    Type
REMARK                         _______ _______ _______ _____ _____    ______ ____
ROOT
ATOM      1  C   UNL     1      -7.457   3.005 123.755  0.00  0.00    +0.000 C 
ENDROOT
BRANCH   1   2
ATOM      2  C   UNL     1      -6.751   3.545 122.505  0.00  0.00    +0.000 A 
ATOM      3  C   UNL     1      -5.472   4.106 122.576  0.00  0.00    +0.000 A 
ATOM      4  C   UNL     1      -4.800   4.695 121.520  0.00  0.00    +0.000 A 
ATOM      5  C   UNL     1      -5.378   4.649 120.271  0.00  0.00    +0.000 A 
ATOM      6  C   UNL     1      -6.638   4.071 120.130  0.00  0.00    +0.000 A 
ATOM      7  C   UNL     1      -7.337   3.555 121.233  0.00  0.00    +0.000 A 
ENDBRANCH   1   2
BRANCH   1   9
ATOM      8  C   UNL     1      -9.694   1.753 124.015  0.00  0.00    +0.000 C 
ATOM      9  C   UNL     1      -8.229   1.624 123.529  0.00  0.00    +0.000 C 
BRANCH   9  10
ATOM     10  N   UNL     1      -7.622   0.405 124.184  0.00  0.00    +0.000 NA
ATOM     11  C   UNL     1      -8.640  -0.400 124.872  0.00  0.00    +0.000 C 
ATOM     12  C   UNL     1      -6.940  -0.517 123.279  0.00  0.00    +0.000 C 
ENDBRANCH   9  10
ENDBRANCH   1   9
BRANCH   1  13
ATOM     13  O   UNL     1      -8.336   4.020 124.277  0.00  0.00    +0.000 OA
ATOM     14  H   UNL     1      -7.878   4.871 124.179  0.00  0.00    +0.000 HD
ENDBRANCH   1  13
TORSDOF 4
ENDMDL
MODEL 9
REMARK VINA RESULT:      -5.1     10.707     11.310
REMARK  Name = DL-Methylephedrine
REMARK  7 active torsions:
REMARK  status: ('A' for Active; 'I' for Inactive)
REMARK    1  A    between atoms: C_1  and  C_2
REMARK    2  A    between atoms: C_2  and  C_3
REMARK    3  A    between atoms: C_2  and  N_11
REMARK    4  A    between atoms: C_3  and  O_4
REMARK    5  A    between atoms: C_3  and  C_5
REMARK    6  A    between atoms: N_11  and  C_12
REMARK    7  A    between atoms: N_11  and  C_13
REMARK                            x       y       z     vdW  Elec       q    Type
REMARK                         _______ _______ _______ _____ _____    ______ ____
ROOT
ATOM      1  C   UNL     1      -7.477  -2.559 124.934  0.00  0.00    +0.000 C 
ENDROOT
BRANCH   1   2
ATOM      2  C   UNL     1      -7.746  -2.802 126.425  0.00  0.00    +0.000 A 
ATOM      3  C   UNL     1      -8.724  -3.705 126.851  0.00  0.00    +0.000 A 
ATOM      4  C   UNL     1      -9.093  -3.919 128.167  0.00  0.00    +0.000 A 
ATOM      5  C   UNL     1      -8.385  -3.275 129.157  0.00  0.00    +0.000 A 
ATOM      6  C   UNL     1      -7.374  -2.387 128.796  0.00  0.00    +0.000 A 
ATOM      7  C   UNL     1      -7.075  -2.122 127.449  0.00  0.00    +0.000 A 
ENDBRANCH   1   2
BRANCH   1   9
ATOM      8  C   UNL     1      -9.421  -3.068 123.322  0.00  0.00    +0.000 C 
ATOM      9  C   UNL     1      -8.718  -1.950 124.133  0.00  0.00    +0.000 C 
BRANCH   9  10
ATOM     10  N   UNL     1      -8.411  -0.808 123.192  0.00  0.00    +0.000 NA
ATOM     11  C   UNL     1      -9.412   0.262 123.298  0.00  0.00    +0.000 C 
ATOM     12  C   UNL     1      -7.119  -0.158 123.399  0.00  0.00    +0.000 C 
ENDBRANCH   9  10
ENDBRANCH   1   9
BRANCH   1  13
ATOM     13  O   UNL     1      -7.010  -3.782 124.332  0.00  0.00    +0.000 OA
ATOM     14  H   UNL     1      -7.788  -4.350 124.203  0.00  0.00    +0.000 HD
ENDBRANCH   1  13
TORSDOF 4
ENDMDL
