MODEL 1
REMARK VINA RESULT:      -6.9      0.000      0.000
REMARK  Name = Dobutamine
REMARK  11 active torsions:
REMARK  status: ('A' for Active; 'I' for Inactive)
REMARK    1  A    between atoms: C_1  and  C_2
REMARK    2  A    between atoms: C_2  and  C_3
REMARK    3  A    between atoms: C_2  and  N_12
REMARK    4  A    between atoms: C_3  and  C_4
REMARK    5  A    between atoms: C_4  and  C_5
REMARK    6  A    between atoms: C_8  and  O_9
REMARK    7  A    between atoms: N_12  and  C_13
REMARK    8  A    between atoms: C_13  and  C_14
REMARK    9  A    between atoms: C_14  and  C_15
REMARK   10  A    between atoms: C_17  and  O_18
REMARK   11  A    between atoms: C_19  and  O_20
REMARK                            x       y       z     vdW  Elec       q    Type
REMARK                         _______ _______ _______ _____ _____    ______ ____
ROOT
ATOM      1  N   UNL     1     -10.524   6.451 132.405  0.00  0.00    +0.000 NA
ATOM      2  H   UNL     1     -10.397   7.457 132.285  0.00  0.00    +0.000 HD
ENDROOT
BRANCH   1   4
ATOM      3  C   UNL     1      -9.604   4.694 130.985  0.00  0.00    +0.000 C 
ATOM      4  C   UNL     1      -9.276   5.755 132.041  0.00  0.00    +0.000 C 
BRANCH   4   5
ATOM      5  C   UNL     1      -8.257   6.756 131.489  0.00  0.00    +0.000 C 
BRANCH   5   6
ATOM      6  C   UNL     1      -7.067   6.118 130.783  0.00  0.00    +0.000 C 
BRANCH   6   7
ATOM      7  C   UNL     1      -5.736   6.648 131.258  0.00  0.00    +0.000 A 
ATOM      8  C   UNL     1      -5.270   6.247 132.514  0.00  0.00    +0.000 A 
ATOM      9  C   UNL     1      -3.992   6.609 132.943  0.00  0.00    +0.000 A 
ATOM     10  C   UNL     1      -3.184   7.380 132.109  0.00  0.00    +0.000 A 
ATOM     11  C   UNL     1      -3.639   7.816 130.880  0.00  0.00    +0.000 A 
ATOM     12  C   UNL     1      -4.912   7.455 130.454  0.00  0.00    +0.000 A 
BRANCH  10  13
ATOM     13  O   UNL     1      -1.914   7.724 132.463  0.00  0.00    +0.000 OA
ATOM     14  H   UNL     1      -1.960   8.473 133.075  0.00  0.00    +0.000 HD
ENDBRANCH  10  13
ENDBRANCH   6   7
ENDBRANCH   5   6
ENDBRANCH   4   5
ENDBRANCH   1   4
BRANCH   1  15
ATOM     15  C   UNL     1     -11.669   6.000 131.606  0.00  0.00    +0.000 C 
BRANCH  15  16
ATOM     16  C   UNL     1     -12.426   7.175 130.989  0.00  0.00    +0.000 C 
BRANCH  16  17
ATOM     17  C   UNL     1     -11.983   7.388 129.559  0.00  0.00    +0.000 A 
ATOM     18  C   UNL     1     -12.669   6.777 128.497  0.00  0.00    +0.000 A 
ATOM     19  C   UNL     1     -12.252   7.008 127.189  0.00  0.00    +0.000 A 
ATOM     20  C   UNL     1     -11.165   7.839 126.933  0.00  0.00    +0.000 A 
ATOM     21  C   UNL     1     -10.492   8.468 127.968  0.00  0.00    +0.000 A 
ATOM     22  C   UNL     1     -10.907   8.248 129.283  0.00  0.00    +0.000 A 
BRANCH  19  23
ATOM     23  O   UNL     1     -12.885   6.438 126.118  0.00  0.00    +0.000 OA
ATOM     24  H   UNL     1     -13.250   7.151 125.568  0.00  0.00    +0.000 HD
ENDBRANCH  19  23
BRANCH  20  25
ATOM     25  O   UNL     1     -10.744   8.047 125.650  0.00  0.00    +0.000 OA
ATOM     26  H   UNL     1     -10.139   8.813 125.709  0.00  0.00    +0.000 HD
ENDBRANCH  20  25
ENDBRANCH  16  17
ENDBRANCH  15  16
ENDBRANCH   1  15
TORSDOF 10
ENDMDL
MODEL 2
REMARK VINA RESULT:      -6.9      8.758     10.729
REMARK  Name = Dobutamine
REMARK  11 active torsions:
REMARK  status: ('A' for Active; 'I' for Inactive)
REMARK    1  A    between atoms: C_1  and  C_2
REMARK    2  A    between atoms: C_2  and  C_3
REMARK    3  A    between atoms: C_2  and  N_12
REMARK    4  A    between atoms: C_3  and  C_4
REMARK    5  A    between atoms: C_4  and  C_5
REMARK    6  A    between atoms: C_8  and  O_9
REMARK    7  A    between atoms: N_12  and  C_13
REMARK    8  A    between atoms: C_13  and  C_14
REMARK    9  A    between atoms: C_14  and  C_15
REMARK   10  A    between atoms: C_17  and  O_18
REMARK   11  A    between atoms: C_19  and  O_20
REMARK                            x       y       z     vdW  Elec       q    Type
REMARK                         _______ _______ _______ _____ _____    ______ ____
ROOT
ATOM      1  N   UNL     1      -6.234   2.644 125.871  0.00  0.00    +0.000 NA
ATOM      2  H   UNL     1      -6.335   3.258 126.679  0.00  0.00    +0.000 HD
ENDROOT
BRANCH   1   4
ATOM      3  C   UNL     1      -4.325   2.169 127.312  0.00  0.00    +0.000 C 
ATOM      4  C   UNL     1      -5.162   1.665 126.131  0.00  0.00    +0.000 C 
BRANCH   4   5
ATOM      5  C   UNL     1      -5.766   0.297 126.455  0.00  0.00    +0.000 C 
BRANCH   5   6
ATOM      6  C   UNL     1      -5.511  -0.770 125.397  0.00  0.00    +0.000 C 
BRANCH   6   7
ATOM      7  C   UNL     1      -6.766  -1.487 124.958  0.00  0.00    +0.000 A 
ATOM      8  C   UNL     1      -7.830  -0.724 124.467  0.00  0.00    +0.000 A 
ATOM      9  C   UNL     1      -8.959  -1.347 123.932  0.00  0.00    +0.000 A 
ATOM     10  C   UNL     1      -9.019  -2.739 123.897  0.00  0.00    +0.000 A 
ATOM     11  C   UNL     1      -7.994  -3.510 124.410  0.00  0.00    +0.000 A 
ATOM     12  C   UNL     1      -6.870  -2.889 124.942  0.00  0.00    +0.000 A 
BRANCH  10  13
ATOM     13  O   UNL     1     -10.079  -3.396 123.348  0.00  0.00    +0.000 OA
ATOM     14  H   UNL     1     -10.501  -2.809 122.703  0.00  0.00    +0.000 HD
ENDBRANCH  10  13
ENDBRANCH   6   7
ENDBRANCH   5   6
ENDBRANCH   4   5
ENDBRANCH   1   4
BRANCH   1  15
ATOM     15  C   UNL     1      -5.978   3.448 124.670  0.00  0.00    +0.000 C 
BRANCH  15  16
ATOM     16  C   UNL     1      -6.470   2.746 123.405  0.00  0.00    +0.000 C 
BRANCH  16  17
ATOM     17  C   UNL     1      -6.155   3.586 122.187  0.00  0.00    +0.000 A 
ATOM     18  C   UNL     1      -5.116   4.530 122.218  0.00  0.00    +0.000 A 
ATOM     19  C   UNL     1      -4.833   5.275 121.076  0.00  0.00    +0.000 A 
ATOM     20  C   UNL     1      -5.573   5.086 119.911  0.00  0.00    +0.000 A 
ATOM     21  C   UNL     1      -6.586   4.142 119.858  0.00  0.00    +0.000 A 
ATOM     22  C   UNL     1      -6.872   3.386 120.996  0.00  0.00    +0.000 A 
BRANCH  19  23
ATOM     23  O   UNL     1      -3.832   6.207 121.050  0.00  0.00    +0.000 OA
ATOM     24  H   UNL     1      -3.901   6.703 120.217  0.00  0.00    +0.000 HD
ENDBRANCH  19  23
BRANCH  20  25
ATOM     25  O   UNL     1      -5.309   5.833 118.798  0.00  0.00    +0.000 OA
ATOM     26  H   UNL     1      -4.432   5.523 118.494  0.00  0.00    +0.000 HD
ENDBRANCH  20  25
ENDBRANCH  16  17
ENDBRANCH  15  16
ENDBRANCH   1  15
TORSDOF 10
ENDMDL
MODEL 3
REMARK VINA RESULT:      -6.9      9.178     10.429
REMARK  Name = Dobutamine
REMARK  11 active torsions:
REMARK  status: ('A' for Active; 'I' for Inactive)
REMARK    1  A    between atoms: C_1  and  C_2
REMARK    2  A    between atoms: C_2  and  C_3
REMARK    3  A    between atoms: C_2  and  N_12
REMARK    4  A    between atoms: C_3  and  C_4
REMARK    5  A    between atoms: C_4  and  C_5
REMARK    6  A    between atoms: C_8  and  O_9
REMARK    7  A    between atoms: N_12  and  C_13
REMARK    8  A    between atoms: C_13  and  C_14
REMARK    9  A    between atoms: C_14  and  C_15
REMARK   10  A    between atoms: C_17  and  O_18
REMARK   11  A    between atoms: C_19  and  O_20
REMARK                            x       y       z     vdW  Elec       q    Type
REMARK                         _______ _______ _______ _____ _____    ______ ____
ROOT
ATOM      1  N   UNL     1      -9.646  -0.132 123.680  0.00  0.00    +0.000 NA
ATOM      2  H   UNL     1      -9.196   0.199 124.534  0.00  0.00    +0.000 HD
ENDROOT
BRANCH   1   4
ATOM      3  C   UNL     1      -7.383  -0.844 123.114  0.00  0.00    +0.000 C 
ATOM      4  C   UNL     1      -8.862  -1.246 123.115  0.00  0.00    +0.000 C 
BRANCH   4   5
ATOM      5  C   UNL     1      -9.068  -2.511 123.952  0.00  0.00    +0.000 C 
BRANCH   5   6
ATOM      6  C   UNL     1      -7.808  -3.020 124.642  0.00  0.00    +0.000 C 
BRANCH   6   7
ATOM      7  C   UNL     1      -7.879  -2.937 126.149  0.00  0.00    +0.000 A 
ATOM      8  C   UNL     1      -8.852  -3.691 126.811  0.00  0.00    +0.000 A 
ATOM      9  C   UNL     1      -8.876  -3.746 128.206  0.00  0.00    +0.000 A 
ATOM     10  C   UNL     1      -7.922  -3.038 128.934  0.00  0.00    +0.000 A 
ATOM     11  C   UNL     1      -6.974  -2.259 128.299  0.00  0.00    +0.000 A 
ATOM     12  C   UNL     1      -6.952  -2.204 126.910  0.00  0.00    +0.000 A 
BRANCH  10  13
ATOM     13  O   UNL     1      -7.876  -3.092 130.295  0.00  0.00    +0.000 OA
ATOM     14  H   UNL     1      -7.792  -2.188 130.634  0.00  0.00    +0.000 HD
ENDBRANCH  10  13
ENDBRANCH   6   7
ENDBRANCH   5   6
ENDBRANCH   4   5
ENDBRANCH   1   4
BRANCH   1  15
ATOM     15  C   UNL     1      -9.794   0.984 122.737  0.00  0.00    +0.000 C 
BRANCH  15  16
ATOM     16  C   UNL     1      -9.267   2.292 123.323  0.00  0.00    +0.000 C 
BRANCH  16  17
ATOM     17  C   UNL     1      -8.272   2.924 122.376  0.00  0.00    +0.000 A 
ATOM     18  C   UNL     1      -8.681   3.400 121.119  0.00  0.00    +0.000 A 
ATOM     19  C   UNL     1      -7.748   3.997 120.276  0.00  0.00    +0.000 A 
ATOM     20  C   UNL     1      -6.419   4.123 120.674  0.00  0.00    +0.000 A 
ATOM     21  C   UNL     1      -6.005   3.681 121.920  0.00  0.00    +0.000 A 
ATOM     22  C   UNL     1      -6.935   3.087 122.775  0.00  0.00    +0.000 A 
BRANCH  19  23
ATOM     23  O   UNL     1      -8.092   4.477 119.043  0.00  0.00    +0.000 OA
ATOM     24  H   UNL     1      -8.990   4.845 119.101  0.00  0.00    +0.000 HD
ENDBRANCH  19  23
BRANCH  20  25
ATOM     25  O   UNL     1      -5.500   4.690 119.837  0.00  0.00    +0.000 OA
ATOM     26  H   UNL     1      -5.617   5.653 119.956  0.00  0.00    +0.000 HD
ENDBRANCH  20  25
ENDBRANCH  16  17
ENDBRANCH  15  16
ENDBRANCH   1  15
TORSDOF 10
ENDMDL
MODEL 4
REMARK VINA RESULT:      -6.9      8.204     10.196
REMARK  Name = Dobutamine
REMARK  11 active torsions:
REMARK  status: ('A' for Active; 'I' for Inactive)
REMARK    1  A    between atoms: C_1  and  C_2
REMARK    2  A    between atoms: C_2  and  C_3
REMARK    3  A    between atoms: C_2  and  N_12
REMARK    4  A    between atoms: C_3  and  C_4
REMARK    5  A    between atoms: C_4  and  C_5
REMARK    6  A    between atoms: C_8  and  O_9
REMARK    7  A    between atoms: N_12  and  C_13
REMARK    8  A    between atoms: C_13  and  C_14
REMARK    9  A    between atoms: C_14  and  C_15
REMARK   10  A    between atoms: C_17  and  O_18
REMARK   11  A    between atoms: C_19  and  O_20
REMARK                            x       y       z     vdW  Elec       q    Type
REMARK                         _______ _______ _______ _____ _____    ______ ____
ROOT
ATOM      1  N   UNL     1      -4.967   0.093 127.522  0.00  0.00    +0.000 NA
ATOM      2  H   UNL     1      -4.767  -0.454 126.684  0.00  0.00    +0.000 HD
ENDROOT
BRANCH   1   4
ATOM      3  C   UNL     1      -6.870  -0.152 129.027  0.00  0.00    +0.000 C 
ATOM      4  C   UNL     1      -5.559  -0.785 128.548  0.00  0.00    +0.000 C 
BRANCH   4   5
ATOM      5  C   UNL     1      -5.824  -2.174 127.963  0.00  0.00    +0.000 C 
BRANCH   5   6
ATOM      6  C   UNL     1      -5.596  -2.278 126.460  0.00  0.00    +0.000 C 
BRANCH   6   7
ATOM      7  C   UNL     1      -6.873  -2.456 125.673  0.00  0.00    +0.000 A 
ATOM      8  C   UNL     1      -6.835  -2.257 124.290  0.00  0.00    +0.000 A 
ATOM      9  C   UNL     1      -7.957  -2.532 123.506  0.00  0.00    +0.000 A 
ATOM     10  C   UNL     1      -9.118  -3.003 124.114  0.00  0.00    +0.000 A 
ATOM     11  C   UNL     1      -9.186  -3.173 125.484  0.00  0.00    +0.000 A 
ATOM     12  C   UNL     1      -8.070  -2.898 126.264  0.00  0.00    +0.000 A 
BRANCH  10  13
ATOM     13  O   UNL     1     -10.225  -3.326 123.389  0.00  0.00    +0.000 OA
ATOM     14  H   UNL     1     -11.009  -3.123 123.921  0.00  0.00    +0.000 HD
ENDBRANCH  10  13
ENDBRANCH   6   7
ENDBRANCH   5   6
ENDBRANCH   4   5
ENDBRANCH   1   4
BRANCH   1  15
ATOM     15  C   UNL     1      -5.842   1.220 127.177  0.00  0.00    +0.000 C 
BRANCH  15  16
ATOM     16  C   UNL     1      -5.896   1.452 125.668  0.00  0.00    +0.000 C 
BRANCH  16  17
ATOM     17  C   UNL     1      -7.330   1.428 125.189  0.00  0.00    +0.000 A 
ATOM     18  C   UNL     1      -7.672   1.933 123.923  0.00  0.00    +0.000 A 
ATOM     19  C   UNL     1      -8.996   1.879 123.499  0.00  0.00    +0.000 A 
ATOM     20  C   UNL     1      -9.977   1.328 124.319  0.00  0.00    +0.000 A 
ATOM     21  C   UNL     1      -9.652   0.804 125.561  0.00  0.00    +0.000 A 
ATOM     22  C   UNL     1      -8.326   0.848 125.993  0.00  0.00    +0.000 A 
BRANCH  19  23
ATOM     23  O   UNL     1      -9.383   2.355 122.276  0.00  0.00    +0.000 OA
ATOM     24  H   UNL     1      -8.667   2.914 121.928  0.00  0.00    +0.000 HD
ENDBRANCH  19  23
BRANCH  20  25
ATOM     25  O   UNL     1     -11.280   1.295 123.910  0.00  0.00    +0.000 OA
ATOM     26  H   UNL     1     -11.655   2.147 124.208  0.00  0.00    +0.000 HD
ENDBRANCH  20  25
ENDBRANCH  16  17
ENDBRANCH  15  16
ENDBRANCH   1  15
TORSDOF 10
ENDMDL
MODEL 5
REMARK VINA RESULT:      -6.8      7.332     10.228
REMARK  Name = Dobutamine
REMARK  11 active torsions:
REMARK  status: ('A' for Active; 'I' for Inactive)
REMARK    1  A    between atoms: C_1  and  C_2
REMARK    2  A    between atoms: C_2  and  C_3
REMARK    3  A    between atoms: C_2  and  N_12
REMARK    4  A    between atoms: C_3  and  C_4
REMARK    5  A    between atoms: C_4  and  C_5
REMARK    6  A    between atoms: C_8  and  O_9
REMARK    7  A    between atoms: N_12  and  C_13
REMARK    8  A    between atoms: C_13  and  C_14
REMARK    9  A    between atoms: C_14  and  C_15
REMARK   10  A    between atoms: C_17  and  O_18
REMARK   11  A    between atoms: C_19  and  O_20
REMARK                            x       y       z     vdW  Elec       q    Type
REMARK                         _______ _______ _______ _____ _____    ______ ____
ROOT
ATOM      1  N   UNL     1      -8.590   3.336 125.422  0.00  0.00    +0.000 NA
ATOM      2  H   UNL     1      -9.577   3.117 125.558  0.00  0.00    +0.000 HD
ENDROOT
BRANCH   1   4
ATOM      3  C   UNL     1      -9.243   2.237 123.345  0.00  0.00    +0.000 C 
ATOM      4  C   UNL     1      -8.071   2.567 124.276  0.00  0.00    +0.000 C 
BRANCH   4   5
ATOM      5  C   UNL     1      -7.014   3.384 123.529  0.00  0.00    +0.000 C 
BRANCH   5   6
ATOM      6  C   UNL     1      -6.541   2.758 122.223  0.00  0.00    +0.000 C 
BRANCH   6   7
ATOM      7  C   UNL     1      -6.405   3.755 121.097  0.00  0.00    +0.000 A 
ATOM      8  C   UNL     1      -5.250   4.541 121.041  0.00  0.00    +0.000 A 
ATOM      9  C   UNL     1      -5.021   5.385 119.953  0.00  0.00    +0.000 A 
ATOM     10  C   UNL     1      -5.958   5.441 118.923  0.00  0.00    +0.000 A 
ATOM     11  C   UNL     1      -7.122   4.700 118.977  0.00  0.00    +0.000 A 
ATOM     12  C   UNL     1      -7.349   3.860 120.061  0.00  0.00    +0.000 A 
BRANCH  10  13
ATOM     13  O   UNL     1      -5.762   6.217 117.819  0.00  0.00    +0.000 OA
ATOM     14  H   UNL     1      -4.911   5.977 117.425  0.00  0.00    +0.000 HD
ENDBRANCH  10  13
ENDBRANCH   6   7
ENDBRANCH   5   6
ENDBRANCH   4   5
ENDBRANCH   1   4
BRANCH   1  15
ATOM     15  C   UNL     1      -7.850   3.063 126.660  0.00  0.00    +0.000 C 
BRANCH  15  16
ATOM     16  C   UNL     1      -6.943   4.230 127.046  0.00  0.00    +0.000 C 
BRANCH  16  17
ATOM     17  C   UNL     1      -5.492   3.811 126.962  0.00  0.00    +0.000 A 
ATOM     18  C   UNL     1      -4.469   4.688 127.362  0.00  0.00    +0.000 A 
ATOM     19  C   UNL     1      -3.143   4.269 127.295  0.00  0.00    +0.000 A 
ATOM     20  C   UNL     1      -2.831   2.991 126.838  0.00  0.00    +0.000 A 
ATOM     21  C   UNL     1      -3.830   2.107 126.462  0.00  0.00    +0.000 A 
ATOM     22  C   UNL     1      -5.162   2.515 126.532  0.00  0.00    +0.000 A 
BRANCH  19  23
ATOM     23  O   UNL     1      -2.109   5.081 127.672  0.00  0.00    +0.000 OA
ATOM     24  H   UNL     1      -1.609   4.630 128.372  0.00  0.00    +0.000 HD
ENDBRANCH  19  23
BRANCH  20  25
ATOM     25  O   UNL     1      -1.528   2.589 126.752  0.00  0.00    +0.000 OA
ATOM     26  H   UNL     1      -1.307   2.667 125.803  0.00  0.00    +0.000 HD
ENDBRANCH  20  25
ENDBRANCH  16  17
ENDBRANCH  15  16
ENDBRANCH   1  15
TORSDOF 10
ENDMDL
MODEL 6
REMARK VINA RESULT:      -6.7      8.042     10.433
REMARK  Name = Dobutamine
REMARK  11 active torsions:
REMARK  status: ('A' for Active; 'I' for Inactive)
REMARK    1  A    between atoms: C_1  and  C_2
REMARK    2  A    between atoms: C_2  and  C_3
REMARK    3  A    between atoms: C_2  and  N_12
REMARK    4  A    between atoms: C_3  and  C_4
REMARK    5  A    between atoms: C_4  and  C_5
REMARK    6  A    between atoms: C_8  and  O_9
REMARK    7  A    between atoms: N_12  and  C_13
REMARK    8  A    between atoms: C_13  and  C_14
REMARK    9  A    between atoms: C_14  and  C_15
REMARK   10  A    between atoms: C_17  and  O_18
REMARK   11  A    between atoms: C_19  and  O_20
REMARK                            x       y       z     vdW  Elec       q    Type
REMARK                         _______ _______ _______ _____ _____    ______ ____
ROOT
ATOM      1  N   UNL     1      -4.509   1.112 126.760  0.00  0.00    +0.000 NA
ATOM      2  H   UNL     1      -4.692   0.872 127.735  0.00  0.00    +0.000 HD
ENDROOT
BRANCH   1   4
ATOM      3  C   UNL     1      -3.537   3.321 126.412  0.00  0.00    +0.000 C 
ATOM      4  C   UNL     1      -4.844   2.530 126.535  0.00  0.00    +0.000 C 
BRANCH   4   5
ATOM      5  C   UNL     1      -5.675   2.678 125.258  0.00  0.00    +0.000 C 
BRANCH   5   6
ATOM      6  C   UNL     1      -7.032   3.340 125.463  0.00  0.00    +0.000 C 
BRANCH   6   7
ATOM      7  C   UNL     1      -8.157   2.631 124.747  0.00  0.00    +0.000 A 
ATOM      8  C   UNL     1      -8.264   2.784 123.362  0.00  0.00    +0.000 A 
ATOM      9  C   UNL     1      -9.208   2.051 122.641  0.00  0.00    +0.000 A 
ATOM     10  C   UNL     1     -10.047   1.167 123.315  0.00  0.00    +0.000 A 
ATOM     11  C   UNL     1      -9.981   1.028 124.688  0.00  0.00    +0.000 A 
ATOM     12  C   UNL     1      -9.042   1.759 125.406  0.00  0.00    +0.000 A 
BRANCH  10  13
ATOM     13  O   UNL     1     -10.956   0.397 122.653  0.00  0.00    +0.000 OA
ATOM     14  H   UNL     1     -10.977  -0.477 123.069  0.00  0.00    +0.000 HD
ENDBRANCH  10  13
ENDBRANCH   6   7
ENDBRANCH   5   6
ENDBRANCH   4   5
ENDBRANCH   1   4
BRANCH   1  15
ATOM     15  C   UNL     1      -5.264   0.212 125.881  0.00  0.00    +0.000 C 
BRANCH  15  16
ATOM     16  C   UNL     1      -6.115  -0.775 126.678  0.00  0.00    +0.000 C 
BRANCH  16  17
ATOM     17  C   UNL     1      -7.156  -1.408 125.783  0.00  0.00    +0.000 A 
ATOM     18  C   UNL     1      -8.292  -2.027 126.331  0.00  0.00    +0.000 A 
ATOM     19  C   UNL     1      -9.245  -2.583 125.482  0.00  0.00    +0.000 A 
ATOM     20  C   UNL     1      -9.078  -2.525 124.101  0.00  0.00    +0.000 A 
ATOM     21  C   UNL     1      -7.975  -1.897 123.545  0.00  0.00    +0.000 A 
ATOM     22  C   UNL     1      -7.017  -1.331 124.387  0.00  0.00    +0.000 A 
BRANCH  19  23
ATOM     23  O   UNL     1     -10.369  -3.197 125.963  0.00  0.00    +0.000 OA
ATOM     24  H   UNL     1     -11.113  -2.966 125.381  0.00  0.00    +0.000 HD
ENDBRANCH  19  23
BRANCH  20  25
ATOM     25  O   UNL     1     -10.004  -3.090 123.271  0.00  0.00    +0.000 OA
ATOM     26  H   UNL     1      -9.492  -3.708 122.713  0.00  0.00    +0.000 HD
ENDBRANCH  20  25
ENDBRANCH  16  17
ENDBRANCH  15  16
ENDBRANCH   1  15
TORSDOF 10
ENDMDL
MODEL 7
REMARK VINA RESULT:      -6.6      8.288      9.850
REMARK  Name = Dobutamine
REMARK  11 active torsions:
REMARK  status: ('A' for Active; 'I' for Inactive)
REMARK    1  A    between atoms: C_1  and  C_2
REMARK    2  A    between atoms: C_2  and  C_3
REMARK    3  A    between atoms: C_2  and  N_12
REMARK    4  A    between atoms: C_3  and  C_4
REMARK    5  A    between atoms: C_4  and  C_5
REMARK    6  A    between atoms: C_8  and  O_9
REMARK    7  A    between atoms: N_12  and  C_13
REMARK    8  A    between atoms: C_13  and  C_14
REMARK    9  A    between atoms: C_14  and  C_15
REMARK   10  A    between atoms: C_17  and  O_18
REMARK   11  A    between atoms: C_19  and  O_20
REMARK                            x       y       z     vdW  Elec       q    Type
REMARK                         _______ _______ _______ _____ _____    ______ ____
ROOT
ATOM      1  N   UNL     1      -9.422  -1.481 123.339  0.00  0.00    +0.000 NA
ATOM      2  H   UNL     1      -9.875  -1.618 124.243  0.00  0.00    +0.000 HD
ENDROOT
BRANCH   1   4
ATOM      3  C   UNL     1      -7.017  -1.792 123.085  0.00  0.00    +0.000 C 
ATOM      4  C   UNL     1      -8.373  -2.502 123.158  0.00  0.00    +0.000 C 
BRANCH   4   5
ATOM      5  C   UNL     1      -8.392  -3.488 124.328  0.00  0.00    +0.000 C 
BRANCH   5   6
ATOM      6  C   UNL     1      -9.377  -3.133 125.435  0.00  0.00    +0.000 C 
BRANCH   6   7
ATOM      7  C   UNL     1      -8.709  -2.834 126.756  0.00  0.00    +0.000 A 
ATOM      8  C   UNL     1      -8.051  -1.610 126.906  0.00  0.00    +0.000 A 
ATOM      9  C   UNL     1      -7.528  -1.235 128.144  0.00  0.00    +0.000 A 
ATOM     10  C   UNL     1      -7.663  -2.096 129.232  0.00  0.00    +0.000 A 
ATOM     11  C   UNL     1      -8.278  -3.325 129.096  0.00  0.00    +0.000 A 
ATOM     12  C   UNL     1      -8.798  -3.697 127.862  0.00  0.00    +0.000 A 
BRANCH  10  13
ATOM     13  O   UNL     1      -7.207  -1.759 130.472  0.00  0.00    +0.000 OA
ATOM     14  H   UNL     1      -7.916  -1.921 131.112  0.00  0.00    +0.000 HD
ENDBRANCH  10  13
ENDBRANCH   6   7
ENDBRANCH   5   6
ENDBRANCH   4   5
ENDBRANCH   1   4
BRANCH   1  15
ATOM     15  C   UNL     1      -8.894  -0.114 123.254  0.00  0.00    +0.000 C 
BRANCH  15  16
ATOM     16  C   UNL     1      -9.357   0.744 124.430  0.00  0.00    +0.000 C 
BRANCH  16  17
ATOM     17  C   UNL     1      -8.329   1.811 124.732  0.00  0.00    +0.000 A 
ATOM     18  C   UNL     1      -8.713   3.155 124.880  0.00  0.00    +0.000 A 
ATOM     19  C   UNL     1      -7.749   4.113 125.179  0.00  0.00    +0.000 A 
ATOM     20  C   UNL     1      -6.415   3.746 125.333  0.00  0.00    +0.000 A 
ATOM     21  C   UNL     1      -6.024   2.422 125.215  0.00  0.00    +0.000 A 
ATOM     22  C   UNL     1      -6.984   1.452 124.921  0.00  0.00    +0.000 A 
BRANCH  19  23
ATOM     23  O   UNL     1      -8.068   5.435 125.334  0.00  0.00    +0.000 OA
ATOM     24  H   UNL     1      -8.587   5.528 126.151  0.00  0.00    +0.000 HD
ENDBRANCH  19  23
BRANCH  20  25
ATOM     25  O   UNL     1      -5.467   4.691 125.606  0.00  0.00    +0.000 OA
ATOM     26  H   UNL     1      -4.910   4.723 124.802  0.00  0.00    +0.000 HD
ENDBRANCH  20  25
ENDBRANCH  16  17
ENDBRANCH  15  16
ENDBRANCH   1  15
TORSDOF 10
ENDMDL
MODEL 8
REMARK VINA RESULT:      -6.6      8.260     10.355
REMARK  Name = Dobutamine
REMARK  11 active torsions:
REMARK  status: ('A' for Active; 'I' for Inactive)
REMARK    1  A    between atoms: C_1  and  C_2
REMARK    2  A    between atoms: C_2  and  C_3
REMARK    3  A    between atoms: C_2  and  N_12
REMARK    4  A    between atoms: C_3  and  C_4
REMARK    5  A    between atoms: C_4  and  C_5
REMARK    6  A    between atoms: C_8  and  O_9
REMARK    7  A    between atoms: N_12  and  C_13
REMARK    8  A    between atoms: C_13  and  C_14
REMARK    9  A    between atoms: C_14  and  C_15
REMARK   10  A    between atoms: C_17  and  O_18
REMARK   11  A    between atoms: C_19  and  O_20
REMARK                            x       y       z     vdW  Elec       q    Type
REMARK                         _______ _______ _______ _____ _____    ______ ____
ROOT
ATOM      1  N   UNL     1      -7.820  -1.594 129.594  0.00  0.00    +0.000 NA
ATOM      2  H   UNL     1      -8.813  -1.422 129.436  0.00  0.00    +0.000 HD
ENDROOT
BRANCH   1   4
ATOM      3  C   UNL     1      -5.698  -0.683 128.808  0.00  0.00    +0.000 C 
ATOM      4  C   UNL     1      -7.069  -0.340 129.401  0.00  0.00    +0.000 C 
BRANCH   4   5
ATOM      5  C   UNL     1      -7.836   0.592 128.459  0.00  0.00    +0.000 C 
BRANCH   5   6
ATOM      6  C   UNL     1      -7.062   1.004 127.213  0.00  0.00    +0.000 C 
BRANCH   6   7
ATOM      7  C   UNL     1      -7.919   1.068 125.971  0.00  0.00    +0.000 A 
ATOM      8  C   UNL     1      -7.301   1.356 124.751  0.00  0.00    +0.000 A 
ATOM      9  C   UNL     1      -8.027   1.303 123.561  0.00  0.00    +0.000 A 
ATOM     10  C   UNL     1      -9.378   0.964 123.599  0.00  0.00    +0.000 A 
ATOM     11  C   UNL     1     -10.015   0.711 124.798  0.00  0.00    +0.000 A 
ATOM     12  C   UNL     1      -9.292   0.765 125.983  0.00  0.00    +0.000 A 
BRANCH  10  13
ATOM     13  O   UNL     1     -10.121   0.857 122.462  0.00  0.00    +0.000 OA
ATOM     14  H   UNL     1      -9.776   0.117 121.940  0.00  0.00    +0.000 HD
ENDBRANCH  10  13
ENDBRANCH   6   7
ENDBRANCH   5   6
ENDBRANCH   4   5
ENDBRANCH   1   4
BRANCH   1  15
ATOM     15  C   UNL     1      -7.358  -2.666 128.704  0.00  0.00    +0.000 C 
BRANCH  15  16
ATOM     16  C   UNL     1      -8.505  -3.251 127.881  0.00  0.00    +0.000 C 
BRANCH  16  17
ATOM     17  C   UNL     1      -8.291  -2.963 126.412  0.00  0.00    +0.000 A 
ATOM     18  C   UNL     1      -9.353  -3.073 125.499  0.00  0.00    +0.000 A 
ATOM     19  C   UNL     1      -9.133  -2.782 124.155  0.00  0.00    +0.000 A 
ATOM     20  C   UNL     1      -7.873  -2.382 123.718  0.00  0.00    +0.000 A 
ATOM     21  C   UNL     1      -6.822  -2.246 124.610  0.00  0.00    +0.000 A 
ATOM     22  C   UNL     1      -7.033  -2.529 125.960  0.00  0.00    +0.000 A 
BRANCH  19  23
ATOM     23  O   UNL     1     -10.132  -2.872 123.224  0.00  0.00    +0.000 OA
ATOM     24  H   UNL     1     -10.284  -1.986 122.856  0.00  0.00    +0.000 HD
ENDBRANCH  19  23
BRANCH  20  25
ATOM     25  O   UNL     1      -7.654  -2.118 122.396  0.00  0.00    +0.000 OA
ATOM     26  H   UNL     1      -8.235  -1.356 122.196  0.00  0.00    +0.000 HD
ENDBRANCH  20  25
ENDBRANCH  16  17
ENDBRANCH  15  16
ENDBRANCH   1  15
TORSDOF 10
ENDMDL
MODEL 9
REMARK VINA RESULT:      -6.6      7.995      9.156
REMARK  Name = Dobutamine
REMARK  11 active torsions:
REMARK  status: ('A' for Active; 'I' for Inactive)
REMARK    1  A    between atoms: C_1  and  C_2
REMARK    2  A    between atoms: C_2  and  C_3
REMARK    3  A    between atoms: C_2  and  N_12
REMARK    4  A    between atoms: C_3  and  C_4
REMARK    5  A    between atoms: C_4  and  C_5
REMARK    6  A    between atoms: C_8  and  O_9
REMARK    7  A    between atoms: N_12  and  C_13
REMARK    8  A    between atoms: C_13  and  C_14
REMARK    9  A    between atoms: C_14  and  C_15
REMARK   10  A    between atoms: C_17  and  O_18
REMARK   11  A    between atoms: C_19  and  O_20
REMARK                            x       y       z     vdW  Elec       q    Type
REMARK                         _______ _______ _______ _____ _____    ______ ____
ROOT
ATOM      1  N   UNL     1      -8.024  -2.470 123.913  0.00  0.00    +0.000 NA
ATOM      2  H   UNL     1      -8.336  -2.274 124.864  0.00  0.00    +0.000 HD
ENDROOT
BRANCH   1   4
ATOM      3  C   UNL     1      -5.865  -2.134 122.829  0.00  0.00    +0.000 C 
ATOM      4  C   UNL     1      -6.608  -2.884 123.940  0.00  0.00    +0.000 C 
BRANCH   4   5
ATOM      5  C   UNL     1      -5.991  -2.561 125.302  0.00  0.00    +0.000 C 
BRANCH   5   6
ATOM      6  C   UNL     1      -5.282  -1.214 125.369  0.00  0.00    +0.000 C 
BRANCH   6   7
ATOM      7  C   UNL     1      -5.963  -0.225 126.285  0.00  0.00    +0.000 A 
ATOM      8  C   UNL     1      -5.393   1.042 126.438  0.00  0.00    +0.000 A 
ATOM      9  C   UNL     1      -6.051   2.029 127.172  0.00  0.00    +0.000 A 
ATOM     10  C   UNL     1      -7.282   1.740 127.758  0.00  0.00    +0.000 A 
ATOM     11  C   UNL     1      -7.845   0.484 127.648  0.00  0.00    +0.000 A 
ATOM     12  C   UNL     1      -7.189  -0.500 126.917  0.00  0.00    +0.000 A 
BRANCH  10  13
ATOM     13  O   UNL     1      -7.984   2.681 128.449  0.00  0.00    +0.000 OA
ATOM     14  H   UNL     1      -7.968   2.446 129.388  0.00  0.00    +0.000 HD
ENDBRANCH  10  13
ENDBRANCH   6   7
ENDBRANCH   5   6
ENDBRANCH   4   5
ENDBRANCH   1   4
BRANCH   1  15
ATOM     15  C   UNL     1      -8.246  -1.291 123.069  0.00  0.00    +0.000 C 
BRANCH  15  16
ATOM     16  C   UNL     1      -9.171  -0.279 123.743  0.00  0.00    +0.000 C 
BRANCH  16  17
ATOM     17  C   UNL     1      -8.498   1.073 123.819  0.00  0.00    +0.000 A 
ATOM     18  C   UNL     1      -9.076   2.121 124.553  0.00  0.00    +0.000 A 
ATOM     19  C   UNL     1      -8.423   3.349 124.624  0.00  0.00    +0.000 A 
ATOM     20  C   UNL     1      -7.207   3.539 123.973  0.00  0.00    +0.000 A 
ATOM     21  C   UNL     1      -6.612   2.507 123.264  0.00  0.00    +0.000 A 
ATOM     22  C   UNL     1      -7.255   1.270 123.193  0.00  0.00    +0.000 A 
BRANCH  19  23
ATOM     23  O   UNL     1      -8.942   4.403 125.326  0.00  0.00    +0.000 OA
ATOM     24  H   UNL     1      -9.301   4.062 126.162  0.00  0.00    +0.000 HD
ENDBRANCH  19  23
BRANCH  20  25
ATOM     25  O   UNL     1      -6.579   4.750 124.025  0.00  0.00    +0.000 OA
ATOM     26  H   UNL     1      -6.123   4.756 124.890  0.00  0.00    +0.000 HD
ENDBRANCH  20  25
ENDBRANCH  16  17
ENDBRANCH  15  16
ENDBRANCH   1  15
TORSDOF 10
ENDMDL
