MODEL 1
REMARK VINA RESULT:      -6.3      0.000      0.000
REMARK  Name = Doconexent
REMARK  16 active torsions:
REMARK  status: ('A' for Active; 'I' for Inactive)
REMARK    1  A    between atoms: C_1  and  C_2
REMARK    2  A    between atoms: C_2  and  C_3
REMARK    3  A    between atoms: C_4  and  C_5
REMARK    4  A    between atoms: C_5  and  C_6
REMARK    5  A    between atoms: C_7  and  C_8
REMARK    6  A    between atoms: C_8  and  C_9
REMARK    7  A    between atoms: C_10  and  C_11
REMARK    8  A    between atoms: C_11  and  C_12
REMARK    9  A    between atoms: C_13  and  C_14
REMARK   10  A    between atoms: C_14  and  C_15
REMARK   11  A    between atoms: C_16  and  C_17
REMARK   12  A    between atoms: C_17  and  C_18
REMARK   13  A    between atoms: C_19  and  C_20
REMARK   14  A    between atoms: C_20  and  C_21
REMARK   15  A    between atoms: C_21  and  C_22
REMARK   16  A    between atoms: C_22  and  O_23
REMARK                            x       y       z     vdW  Elec       q    Type
REMARK                         _______ _______ _______ _____ _____    ______ ____
ROOT
ATOM      1  C   UNL     1      -7.019  -3.386 131.479  0.00  0.00    +0.000 C 
ATOM      2  C   UNL     1      -7.966  -2.810 130.724  0.00  0.00    +0.000 C 
ENDROOT
BRANCH   1   3
ATOM      3  C   UNL     1      -5.854  -4.095 130.871  0.00  0.00    +0.000 C 
BRANCH   3   5
ATOM      4  C   UNL     1      -3.832  -2.836 130.199  0.00  0.00    +0.000 C 
ATOM      5  C   UNL     1      -4.552  -3.426 131.164  0.00  0.00    +0.000 C 
BRANCH   4   6
ATOM      6  C   UNL     1      -4.291  -2.815 128.779  0.00  0.00    +0.000 C 
BRANCH   6   8
ATOM      7  C   UNL     1      -5.430  -1.304 127.191  0.00  0.00    +0.000 C 
ATOM      8  C   UNL     1      -4.875  -1.500 128.391  0.00  0.00    +0.000 C 
BRANCH   7   9
ATOM      9  C   UNL     1      -5.505  -2.370 126.163  0.00  0.00    +0.000 C 
BRANCH   9  11
ATOM     10  C   UNL     1      -5.426  -2.454 123.669  0.00  0.00    +0.000 C 
ATOM     11  C   UNL     1      -5.405  -1.751 124.791  0.00  0.00    +0.000 C 
BRANCH  10  13
ATOM     12  C   UNL     1      -4.221  -4.609 123.495  0.00  0.00    +0.000 C 
ATOM     13  C   UNL     1      -5.553  -3.856 123.850  0.00  0.00    +0.000 C 
ENDBRANCH  10  13
ENDBRANCH   9  11
ENDBRANCH   7   9
ENDBRANCH   6   8
ENDBRANCH   4   6
ENDBRANCH   3   5
ENDBRANCH   1   3
BRANCH   2  14
ATOM     14  C   UNL     1      -7.908  -2.846 129.234  0.00  0.00    +0.000 C 
BRANCH  14  15
ATOM     15  C   UNL     1      -8.746  -3.935 128.653  0.00  0.00    +0.000 C 
ATOM     16  C   UNL     1      -9.206  -3.877 127.398  0.00  0.00    +0.000 C 
BRANCH  16  17
ATOM     17  C   UNL     1      -8.910  -2.725 126.512  0.00  0.00    +0.000 C 
BRANCH  17  18
ATOM     18  C   UNL     1      -9.130  -3.085 125.081  0.00  0.00    +0.000 C 
ATOM     19  C   UNL     1      -9.123  -2.170 124.127  0.00  0.00    +0.000 C 
BRANCH  19  20
ATOM     20  C   UNL     1      -8.893  -0.805 124.512  0.00  0.00    +0.000 C 
BRANCH  20  21
ATOM     21  C   UNL     1      -8.771  -0.064 123.245  0.00  0.00    +0.000 C 
BRANCH  21  22
ATOM     22  C   UNL     1      -9.920   0.920 123.339  0.00  0.00    +0.000 C 
ATOM     23  O   UNL     1      -9.560   2.357 124.466  0.00  0.00    +0.000 OA
BRANCH  22  24
ATOM     24  O   UNL     1     -10.933   0.451 122.546  0.00  0.00    +0.000 OA
ATOM     25  H   UNL     1     -11.619  -0.163 122.200  0.00  0.00    +0.000 HD
ENDBRANCH  22  24
ENDBRANCH  21  22
ENDBRANCH  20  21
ENDBRANCH  19  20
ENDBRANCH  17  18
ENDBRANCH  16  17
ENDBRANCH  14  15
ENDBRANCH   2  14
TORSDOF 15
ENDMDL
MODEL 2
REMARK VINA RESULT:      -6.3      1.967      4.438
REMARK  Name = Doconexent
REMARK  16 active torsions:
REMARK  status: ('A' for Active; 'I' for Inactive)
REMARK    1  A    between atoms: C_1  and  C_2
REMARK    2  A    between atoms: C_2  and  C_3
REMARK    3  A    between atoms: C_4  and  C_5
REMARK    4  A    between atoms: C_5  and  C_6
REMARK    5  A    between atoms: C_7  and  C_8
REMARK    6  A    between atoms: C_8  and  C_9
REMARK    7  A    between atoms: C_10  and  C_11
REMARK    8  A    between atoms: C_11  and  C_12
REMARK    9  A    between atoms: C_13  and  C_14
REMARK   10  A    between atoms: C_14  and  C_15
REMARK   11  A    between atoms: C_16  and  C_17
REMARK   12  A    between atoms: C_17  and  C_18
REMARK   13  A    between atoms: C_19  and  C_20
REMARK   14  A    between atoms: C_20  and  C_21
REMARK   15  A    between atoms: C_21  and  C_22
REMARK   16  A    between atoms: C_22  and  O_23
REMARK                            x       y       z     vdW  Elec       q    Type
REMARK                         _______ _______ _______ _____ _____    ______ ____
ROOT
ATOM      1  C   UNL     1      -6.091  -2.385 127.841  0.00  0.00    +0.000 C 
ATOM      2  C   UNL     1      -5.521  -1.407 127.121  0.00  0.00    +0.000 C 
ENDROOT
BRANCH   1   3
ATOM      3  C   UNL     1      -7.450  -2.230 128.439  0.00  0.00    +0.000 C 
BRANCH   3   5
ATOM      4  C   UNL     1      -9.087  -3.587 127.172  0.00  0.00    +0.000 C 
ATOM      5  C   UNL     1      -8.306  -3.438 128.252  0.00  0.00    +0.000 C 
BRANCH   4   6
ATOM      6  C   UNL     1      -9.144  -2.552 126.098  0.00  0.00    +0.000 C 
BRANCH   6   8
ATOM      7  C   UNL     1      -8.599  -2.763 123.698  0.00  0.00    +0.000 C 
ATOM      8  C   UNL     1      -9.334  -3.149 124.745  0.00  0.00    +0.000 C 
BRANCH   7   9
ATOM      9  C   UNL     1      -7.548  -1.721 123.801  0.00  0.00    +0.000 C 
BRANCH   9  11
ATOM     10  C   UNL     1      -5.445  -2.463 122.677  0.00  0.00    +0.000 C 
ATOM     11  C   UNL     1      -6.611  -1.837 122.624  0.00  0.00    +0.000 C 
BRANCH  10  13
ATOM     12  C   UNL     1      -4.514  -4.465 123.796  0.00  0.00    +0.000 C 
ATOM     13  C   UNL     1      -5.134  -3.029 123.942  0.00  0.00    +0.000 C 
ENDBRANCH  10  13
ENDBRANCH   9  11
ENDBRANCH   7   9
ENDBRANCH   6   8
ENDBRANCH   4   6
ENDBRANCH   3   5
ENDBRANCH   1   3
BRANCH   2  14
ATOM     14  C   UNL     1      -6.216  -0.109 126.877  0.00  0.00    +0.000 C 
BRANCH  14  15
ATOM     15  C   UNL     1      -5.405   1.065 127.312  0.00  0.00    +0.000 C 
ATOM     16  C   UNL     1      -5.633   2.294 126.834  0.00  0.00    +0.000 C 
BRANCH  16  17
ATOM     17  C   UNL     1      -6.705   2.559 125.844  0.00  0.00    +0.000 C 
BRANCH  17  18
ATOM     18  C   UNL     1      -6.130   2.788 124.486  0.00  0.00    +0.000 C 
ATOM     19  C   UNL     1      -6.899   3.049 123.442  0.00  0.00    +0.000 C 
BRANCH  19  20
ATOM     20  C   UNL     1      -8.318   3.108 123.656  0.00  0.00    +0.000 C 
BRANCH  20  21
ATOM     21  C   UNL     1      -8.900   2.238 122.620  0.00  0.00    +0.000 C 
BRANCH  21  22
ATOM     22  C   UNL     1      -9.950   1.472 123.401  0.00  0.00    +0.000 C 
ATOM     23  O   UNL     1     -10.669   0.043 122.448  0.00  0.00    +0.000 OA
BRANCH  22  24
ATOM     24  O   UNL     1     -10.078   2.074 124.624  0.00  0.00    +0.000 OA
ATOM     25  H   UNL     1      -9.921   2.259 125.577  0.00  0.00    +0.000 HD
ENDBRANCH  22  24
ENDBRANCH  21  22
ENDBRANCH  20  21
ENDBRANCH  19  20
ENDBRANCH  17  18
ENDBRANCH  16  17
ENDBRANCH  14  15
ENDBRANCH   2  14
TORSDOF 15
ENDMDL
MODEL 3
REMARK VINA RESULT:      -6.2      1.757      2.621
REMARK  Name = Doconexent
REMARK  16 active torsions:
REMARK  status: ('A' for Active; 'I' for Inactive)
REMARK    1  A    between atoms: C_1  and  C_2
REMARK    2  A    between atoms: C_2  and  C_3
REMARK    3  A    between atoms: C_4  and  C_5
REMARK    4  A    between atoms: C_5  and  C_6
REMARK    5  A    between atoms: C_7  and  C_8
REMARK    6  A    between atoms: C_8  and  C_9
REMARK    7  A    between atoms: C_10  and  C_11
REMARK    8  A    between atoms: C_11  and  C_12
REMARK    9  A    between atoms: C_13  and  C_14
REMARK   10  A    between atoms: C_14  and  C_15
REMARK   11  A    between atoms: C_16  and  C_17
REMARK   12  A    between atoms: C_17  and  C_18
REMARK   13  A    between atoms: C_19  and  C_20
REMARK   14  A    between atoms: C_20  and  C_21
REMARK   15  A    between atoms: C_21  and  C_22
REMARK   16  A    between atoms: C_22  and  O_23
REMARK                            x       y       z     vdW  Elec       q    Type
REMARK                         _______ _______ _______ _____ _____    ______ ____
ROOT
ATOM      1  C   UNL     1      -8.582  -3.776 128.710  0.00  0.00    +0.000 C 
ATOM      2  C   UNL     1      -9.159  -3.805 127.500  0.00  0.00    +0.000 C 
ENDROOT
BRANCH   1   3
ATOM      3  C   UNL     1      -7.345  -2.982 128.971  0.00  0.00    +0.000 C 
BRANCH   3   5
ATOM      4  C   UNL     1      -6.842  -0.559 128.898  0.00  0.00    +0.000 C 
ATOM      5  C   UNL     1      -7.632  -1.558 129.316  0.00  0.00    +0.000 C 
BRANCH   4   6
ATOM      6  C   UNL     1      -5.630  -0.815 128.064  0.00  0.00    +0.000 C 
BRANCH   6   8
ATOM      7  C   UNL     1      -5.459  -0.313 125.651  0.00  0.00    +0.000 C 
ATOM      8  C   UNL     1      -5.525   0.125 126.912  0.00  0.00    +0.000 C 
BRANCH   7   9
ATOM      9  C   UNL     1      -5.485  -1.756 125.305  0.00  0.00    +0.000 C 
BRANCH   9  11
ATOM     10  C   UNL     1      -5.142  -2.781 123.055  0.00  0.00    +0.000 C 
ATOM     11  C   UNL     1      -5.770  -1.912 123.832  0.00  0.00    +0.000 C 
BRANCH  10  13
ATOM     12  C   UNL     1      -4.346  -5.100 123.400  0.00  0.00    +0.000 C 
ATOM     13  C   UNL     1      -4.166  -3.572 123.718  0.00  0.00    +0.000 C 
ENDBRANCH  10  13
ENDBRANCH   9  11
ENDBRANCH   7   9
ENDBRANCH   6   8
ENDBRANCH   4   6
ENDBRANCH   3   5
ENDBRANCH   1   3
BRANCH   2  14
ATOM     14  C   UNL     1      -8.596  -3.046 126.346  0.00  0.00    +0.000 C 
BRANCH  14  15
ATOM     15  C   UNL     1      -8.324  -3.916 125.165  0.00  0.00    +0.000 C 
ATOM     16  C   UNL     1      -8.830  -3.642 123.957  0.00  0.00    +0.000 C 
BRANCH  16  17
ATOM     17  C   UNL     1      -9.691  -2.457 123.724  0.00  0.00    +0.000 C 
BRANCH  17  18
ATOM     18  C   UNL     1      -9.044  -1.509 122.769  0.00  0.00    +0.000 C 
ATOM     19  C   UNL     1      -8.746  -0.269 123.117  0.00  0.00    +0.000 C 
BRANCH  19  20
ATOM     20  C   UNL     1      -9.067   0.144 124.456  0.00  0.00    +0.000 C 
BRANCH  20  21
ATOM     21  C   UNL     1      -9.956   1.307 124.296  0.00  0.00    +0.000 C 
BRANCH  21  22
ATOM     22  C   UNL     1      -9.042   2.459 124.666  0.00  0.00    +0.000 C 
ATOM     23  O   UNL     1      -8.614   2.499 126.477  0.00  0.00    +0.000 OA
BRANCH  22  24
ATOM     24  O   UNL     1      -8.788   3.170 123.523  0.00  0.00    +0.000 OA
ATOM     25  H   UNL     1      -8.416   3.383 122.638  0.00  0.00    +0.000 HD
ENDBRANCH  22  24
ENDBRANCH  21  22
ENDBRANCH  20  21
ENDBRANCH  19  20
ENDBRANCH  17  18
ENDBRANCH  16  17
ENDBRANCH  14  15
ENDBRANCH   2  14
TORSDOF 15
ENDMDL
MODEL 4
REMARK VINA RESULT:      -6.2      3.430      5.373
REMARK  Name = Doconexent
REMARK  16 active torsions:
REMARK  status: ('A' for Active; 'I' for Inactive)
REMARK    1  A    between atoms: C_1  and  C_2
REMARK    2  A    between atoms: C_2  and  C_3
REMARK    3  A    between atoms: C_4  and  C_5
REMARK    4  A    between atoms: C_5  and  C_6
REMARK    5  A    between atoms: C_7  and  C_8
REMARK    6  A    between atoms: C_8  and  C_9
REMARK    7  A    between atoms: C_10  and  C_11
REMARK    8  A    between atoms: C_11  and  C_12
REMARK    9  A    between atoms: C_13  and  C_14
REMARK   10  A    between atoms: C_14  and  C_15
REMARK   11  A    between atoms: C_16  and  C_17
REMARK   12  A    between atoms: C_17  and  C_18
REMARK   13  A    between atoms: C_19  and  C_20
REMARK   14  A    between atoms: C_20  and  C_21
REMARK   15  A    between atoms: C_21  and  C_22
REMARK   16  A    between atoms: C_22  and  O_23
REMARK                            x       y       z     vdW  Elec       q    Type
REMARK                         _______ _______ _______ _____ _____    ______ ____
ROOT
ATOM      1  C   UNL     1      -7.879   0.692 127.998  0.00  0.00    +0.000 C 
ATOM      2  C   UNL     1      -8.364   1.284 126.898  0.00  0.00    +0.000 C 
ENDROOT
BRANCH   1   3
ATOM      3  C   UNL     1      -7.688  -0.787 128.074  0.00  0.00    +0.000 C 
BRANCH   3   5
ATOM      4  C   UNL     1      -5.498  -1.829 127.580  0.00  0.00    +0.000 C 
ATOM      5  C   UNL     1      -6.292  -1.172 128.437  0.00  0.00    +0.000 C 
BRANCH   4   6
ATOM      6  C   UNL     1      -5.965  -2.211 126.215  0.00  0.00    +0.000 C 
BRANCH   6   8
ATOM      7  C   UNL     1      -5.851  -1.398 123.885  0.00  0.00    +0.000 C 
ATOM      8  C   UNL     1      -5.551  -1.226 125.176  0.00  0.00    +0.000 C 
BRANCH   7   9
ATOM      9  C   UNL     1      -6.612  -2.571 123.392  0.00  0.00    +0.000 C 
BRANCH   9  11
ATOM     10  C   UNL     1      -9.105  -2.565 123.525  0.00  0.00    +0.000 C 
ATOM     11  C   UNL     1      -7.989  -2.130 122.961  0.00  0.00    +0.000 C 
BRANCH  10  13
ATOM     12  C   UNL     1      -9.603  -3.006 125.910  0.00  0.00    +0.000 C 
ATOM     13  C   UNL     1      -8.913  -3.490 124.584  0.00  0.00    +0.000 C 
ENDBRANCH  10  13
ENDBRANCH   9  11
ENDBRANCH   7   9
ENDBRANCH   6   8
ENDBRANCH   4   6
ENDBRANCH   3   5
ENDBRANCH   1   3
BRANCH   2  14
ATOM     14  C   UNL     1      -8.740   0.498 125.686  0.00  0.00    +0.000 C 
BRANCH  14  15
ATOM     15  C   UNL     1      -9.525   1.299 124.703  0.00  0.00    +0.000 C 
ATOM     16  C   UNL     1      -8.943   1.901 123.660  0.00  0.00    +0.000 C 
BRANCH  16  17
ATOM     17  C   UNL     1      -7.482   1.805 123.421  0.00  0.00    +0.000 C 
BRANCH  17  18
ATOM     18  C   UNL     1      -6.809   3.105 123.712  0.00  0.00    +0.000 C 
ATOM     19  C   UNL     1      -6.182   3.788 122.770  0.00  0.00    +0.000 C 
BRANCH  19  20
ATOM     20  C   UNL     1      -6.168   3.237 121.443  0.00  0.00    +0.000 C 
BRANCH  20  21
ATOM     21  C   UNL     1      -4.967   3.802 120.805  0.00  0.00    +0.000 C 
BRANCH  21  22
ATOM     22  C   UNL     1      -5.532   4.996 120.062  0.00  0.00    +0.000 C 
ATOM     23  O   UNL     1      -7.050   4.583 119.066  0.00  0.00    +0.000 OA
BRANCH  22  24
ATOM     24  O   UNL     1      -4.735   6.074 120.340  0.00  0.00    +0.000 OA
ATOM     25  H   UNL     1      -4.439   7.011 120.383  0.00  0.00    +0.000 HD
ENDBRANCH  22  24
ENDBRANCH  21  22
ENDBRANCH  20  21
ENDBRANCH  19  20
ENDBRANCH  17  18
ENDBRANCH  16  17
ENDBRANCH  14  15
ENDBRANCH   2  14
TORSDOF 15
ENDMDL
MODEL 5
REMARK VINA RESULT:      -6.2      3.085      6.454
REMARK  Name = Doconexent
REMARK  16 active torsions:
REMARK  status: ('A' for Active; 'I' for Inactive)
REMARK    1  A    between atoms: C_1  and  C_2
REMARK    2  A    between atoms: C_2  and  C_3
REMARK    3  A    between atoms: C_4  and  C_5
REMARK    4  A    between atoms: C_5  and  C_6
REMARK    5  A    between atoms: C_7  and  C_8
REMARK    6  A    between atoms: C_8  and  C_9
REMARK    7  A    between atoms: C_10  and  C_11
REMARK    8  A    between atoms: C_11  and  C_12
REMARK    9  A    between atoms: C_13  and  C_14
REMARK   10  A    between atoms: C_14  and  C_15
REMARK   11  A    between atoms: C_16  and  C_17
REMARK   12  A    between atoms: C_17  and  C_18
REMARK   13  A    between atoms: C_19  and  C_20
REMARK   14  A    between atoms: C_20  and  C_21
REMARK   15  A    between atoms: C_21  and  C_22
REMARK   16  A    between atoms: C_22  and  O_23
REMARK                            x       y       z     vdW  Elec       q    Type
REMARK                         _______ _______ _______ _____ _____    ______ ____
ROOT
ATOM      1  C   UNL     1      -8.814  -2.845 123.599  0.00  0.00    +0.000 C 
ATOM      2  C   UNL     1      -9.328  -3.270 124.762  0.00  0.00    +0.000 C 
ENDROOT
BRANCH   1   3
ATOM      3  C   UNL     1      -7.549  -2.054 123.542  0.00  0.00    +0.000 C 
BRANCH   3   5
ATOM      4  C   UNL     1      -5.313  -2.352 124.562  0.00  0.00    +0.000 C 
ATOM      5  C   UNL     1      -6.343  -2.868 123.875  0.00  0.00    +0.000 C 
BRANCH   4   6
ATOM      6  C   UNL     1      -5.316  -0.935 125.031  0.00  0.00    +0.000 C 
BRANCH   6   8
ATOM      7  C   UNL     1      -6.634   0.011 126.893  0.00  0.00    +0.000 C 
ATOM      8  C   UNL     1      -5.671  -0.815 126.473  0.00  0.00    +0.000 C 
BRANCH   7   9
ATOM      9  C   UNL     1      -7.417   0.863 125.965  0.00  0.00    +0.000 C 
BRANCH   9  11
ATOM     10  C   UNL     1      -9.791   0.748 125.202  0.00  0.00    +0.000 C 
ATOM     11  C   UNL     1      -8.888   0.595 126.158  0.00  0.00    +0.000 C 
BRANCH  10  13
ATOM     12  C   UNL     1     -10.090   0.620 122.748  0.00  0.00    +0.000 C 
ATOM     13  C   UNL     1      -9.267   1.190 123.958  0.00  0.00    +0.000 C 
ENDBRANCH  10  13
ENDBRANCH   9  11
ENDBRANCH   7   9
ENDBRANCH   6   8
ENDBRANCH   4   6
ENDBRANCH   3   5
ENDBRANCH   1   3
BRANCH   2  14
ATOM     14  C   UNL     1      -8.663  -2.977 126.065  0.00  0.00    +0.000 C 
BRANCH  14  15
ATOM     15  C   UNL     1      -9.323  -3.664 127.213  0.00  0.00    +0.000 C 
ATOM     16  C   UNL     1      -8.750  -3.726 128.421  0.00  0.00    +0.000 C 
BRANCH  16  17
ATOM     17  C   UNL     1      -7.425  -3.115 128.687  0.00  0.00    +0.000 C 
BRANCH  17  18
ATOM     18  C   UNL     1      -6.769  -3.758 129.863  0.00  0.00    +0.000 C 
ATOM     19  C   UNL     1      -5.455  -3.764 130.006  0.00  0.00    +0.000 C 
BRANCH  19  20
ATOM     20  C   UNL     1      -4.668  -3.125 128.987  0.00  0.00    +0.000 C 
BRANCH  20  21
ATOM     21  C   UNL     1      -3.295  -3.107 129.517  0.00  0.00    +0.000 C 
BRANCH  21  22
ATOM     22  C   UNL     1      -3.293  -1.842 130.353  0.00  0.00    +0.000 C 
ATOM     23  O   UNL     1      -2.686  -2.117 132.091  0.00  0.00    +0.000 OA
BRANCH  22  24
ATOM     24  O   UNL     1      -3.761  -0.824 129.565  0.00  0.00    +0.000 OA
ATOM     25  H   UNL     1      -4.406  -0.238 129.110  0.00  0.00    +0.000 HD
ENDBRANCH  22  24
ENDBRANCH  21  22
ENDBRANCH  20  21
ENDBRANCH  19  20
ENDBRANCH  17  18
ENDBRANCH  16  17
ENDBRANCH  14  15
ENDBRANCH   2  14
TORSDOF 15
ENDMDL
MODEL 6
REMARK VINA RESULT:      -6.2      2.542      4.947
REMARK  Name = Doconexent
REMARK  16 active torsions:
REMARK  status: ('A' for Active; 'I' for Inactive)
REMARK    1  A    between atoms: C_1  and  C_2
REMARK    2  A    between atoms: C_2  and  C_3
REMARK    3  A    between atoms: C_4  and  C_5
REMARK    4  A    between atoms: C_5  and  C_6
REMARK    5  A    between atoms: C_7  and  C_8
REMARK    6  A    between atoms: C_8  and  C_9
REMARK    7  A    between atoms: C_10  and  C_11
REMARK    8  A    between atoms: C_11  and  C_12
REMARK    9  A    between atoms: C_13  and  C_14
REMARK   10  A    between atoms: C_14  and  C_15
REMARK   11  A    between atoms: C_16  and  C_17
REMARK   12  A    between atoms: C_17  and  C_18
REMARK   13  A    between atoms: C_19  and  C_20
REMARK   14  A    between atoms: C_20  and  C_21
REMARK   15  A    between atoms: C_21  and  C_22
REMARK   16  A    between atoms: C_22  and  O_23
REMARK                            x       y       z     vdW  Elec       q    Type
REMARK                         _______ _______ _______ _____ _____    ______ ____
ROOT
ATOM      1  C   UNL     1      -5.449  -0.890 126.490  0.00  0.00    +0.000 C 
ATOM      2  C   UNL     1      -5.518   0.243 125.777  0.00  0.00    +0.000 C 
ENDROOT
BRANCH   1   3
ATOM      3  C   UNL     1      -5.521  -0.886 127.981  0.00  0.00    +0.000 C 
BRANCH   3   5
ATOM      4  C   UNL     1      -6.266  -2.972 129.085  0.00  0.00    +0.000 C 
ATOM      5  C   UNL     1      -5.271  -2.232 128.576  0.00  0.00    +0.000 C 
BRANCH   4   6
ATOM      6  C   UNL     1      -7.680  -2.492 129.084  0.00  0.00    +0.000 C 
BRANCH   6   8
ATOM      7  C   UNL     1      -9.002  -3.783 127.445  0.00  0.00    +0.000 C 
ATOM      8  C   UNL     1      -8.644  -3.567 128.714  0.00  0.00    +0.000 C 
BRANCH   7   9
ATOM      9  C   UNL     1      -8.472  -2.977 126.318  0.00  0.00    +0.000 C 
BRANCH   9  11
ATOM     10  C   UNL     1      -8.039  -3.382 123.893  0.00  0.00    +0.000 C 
ATOM     11  C   UNL     1      -8.360  -3.847 125.090  0.00  0.00    +0.000 C 
BRANCH  10  13
ATOM     12  C   UNL     1      -6.646  -1.627 122.839  0.00  0.00    +0.000 C 
ATOM     13  C   UNL     1      -7.800  -1.983 123.844  0.00  0.00    +0.000 C 
ENDBRANCH  10  13
ENDBRANCH   9  11
ENDBRANCH   7   9
ENDBRANCH   6   8
ENDBRANCH   4   6
ENDBRANCH   3   5
ENDBRANCH   1   3
BRANCH   2  14
ATOM     14  C   UNL     1      -5.673   1.574 126.436  0.00  0.00    +0.000 C 
BRANCH  14  15
ATOM     15  C   UNL     1      -4.453   2.423 126.305  0.00  0.00    +0.000 C 
ATOM     16  C   UNL     1      -4.484   3.608 125.684  0.00  0.00    +0.000 C 
BRANCH  16  17
ATOM     17  C   UNL     1      -5.733   4.145 125.092  0.00  0.00    +0.000 C 
BRANCH  17  18
ATOM     18  C   UNL     1      -5.735   3.973 123.609  0.00  0.00    +0.000 C 
ATOM     19  C   UNL     1      -6.740   3.389 122.980  0.00  0.00    +0.000 C 
BRANCH  19  20
ATOM     20  C   UNL     1      -7.843   2.921 123.773  0.00  0.00    +0.000 C 
BRANCH  20  21
ATOM     21  C   UNL     1      -8.285   1.677 123.120  0.00  0.00    +0.000 C 
BRANCH  21  22
ATOM     22  C   UNL     1      -9.725   1.569 123.584  0.00  0.00    +0.000 C 
ATOM     23  O   UNL     1     -10.742   0.412 122.539  0.00  0.00    +0.000 OA
BRANCH  22  24
ATOM     24  O   UNL     1      -9.872   2.386 124.673  0.00  0.00    +0.000 OA
ATOM     25  H   UNL     1      -9.752   3.168 125.256  0.00  0.00    +0.000 HD
ENDBRANCH  22  24
ENDBRANCH  21  22
ENDBRANCH  20  21
ENDBRANCH  19  20
ENDBRANCH  17  18
ENDBRANCH  16  17
ENDBRANCH  14  15
ENDBRANCH   2  14
TORSDOF 15
ENDMDL
MODEL 7
REMARK VINA RESULT:      -6.0      3.440      5.622
REMARK  Name = Doconexent
REMARK  16 active torsions:
REMARK  status: ('A' for Active; 'I' for Inactive)
REMARK    1  A    between atoms: C_1  and  C_2
REMARK    2  A    between atoms: C_2  and  C_3
REMARK    3  A    between atoms: C_4  and  C_5
REMARK    4  A    between atoms: C_5  and  C_6
REMARK    5  A    between atoms: C_7  and  C_8
REMARK    6  A    between atoms: C_8  and  C_9
REMARK    7  A    between atoms: C_10  and  C_11
REMARK    8  A    between atoms: C_11  and  C_12
REMARK    9  A    between atoms: C_13  and  C_14
REMARK   10  A    between atoms: C_14  and  C_15
REMARK   11  A    between atoms: C_16  and  C_17
REMARK   12  A    between atoms: C_17  and  C_18
REMARK   13  A    between atoms: C_19  and  C_20
REMARK   14  A    between atoms: C_20  and  C_21
REMARK   15  A    between atoms: C_21  and  C_22
REMARK   16  A    between atoms: C_22  and  O_23
REMARK                            x       y       z     vdW  Elec       q    Type
REMARK                         _______ _______ _______ _____ _____    ______ ____
ROOT
ATOM      1  C   UNL     1      -7.957  -0.028 126.617  0.00  0.00    +0.000 C 
ATOM      2  C   UNL     1      -7.520   1.020 125.904  0.00  0.00    +0.000 C 
ENDROOT
BRANCH   1   3
ATOM      3  C   UNL     1      -7.022  -1.069 127.137  0.00  0.00    +0.000 C 
BRANCH   3   5
ATOM      4  C   UNL     1      -8.222  -3.032 128.049  0.00  0.00    +0.000 C 
ATOM      5  C   UNL     1      -7.605  -1.861 128.261  0.00  0.00    +0.000 C 
BRANCH   4   6
ATOM      6  C   UNL     1      -8.361  -3.609 126.679  0.00  0.00    +0.000 C 
BRANCH   6   8
ATOM      7  C   UNL     1      -9.565  -2.891 124.645  0.00  0.00    +0.000 C 
ATOM      8  C   UNL     1      -9.564  -3.094 125.966  0.00  0.00    +0.000 C 
BRANCH   7   9
ATOM      9  C   UNL     1      -8.378  -3.160 123.795  0.00  0.00    +0.000 C 
BRANCH   9  11
ATOM     10  C   UNL     1      -6.691  -1.605 122.812  0.00  0.00    +0.000 C 
ATOM     11  C   UNL     1      -7.950  -1.884 123.115  0.00  0.00    +0.000 C 
BRANCH  10  13
ATOM     12  C   UNL     1      -5.044  -2.272 124.535  0.00  0.00    +0.000 C 
ATOM     13  C   UNL     1      -5.757  -2.610 123.177  0.00  0.00    +0.000 C 
ENDBRANCH  10  13
ENDBRANCH   9  11
ENDBRANCH   7   9
ENDBRANCH   6   8
ENDBRANCH   4   6
ENDBRANCH   3   5
ENDBRANCH   1   3
BRANCH   2  14
ATOM     14  C   UNL     1      -6.072   1.205 125.592  0.00  0.00    +0.000 C 
BRANCH  14  15
ATOM     15  C   UNL     1      -5.577   2.565 125.953  0.00  0.00    +0.000 C 
ATOM     16  C   UNL     1      -5.553   3.564 125.063  0.00  0.00    +0.000 C 
BRANCH  16  17
ATOM     17  C   UNL     1      -6.017   3.376 123.667  0.00  0.00    +0.000 C 
BRANCH  17  18
ATOM     18  C   UNL     1      -5.232   4.228 122.726  0.00  0.00    +0.000 C 
ATOM     19  C   UNL     1      -5.500   4.260 121.432  0.00  0.00    +0.000 C 
BRANCH  19  20
ATOM     20  C   UNL     1      -6.582   3.445 120.953  0.00  0.00    +0.000 C 
BRANCH  20  21
ATOM     21  C   UNL     1      -7.175   4.207 119.841  0.00  0.00    +0.000 C 
BRANCH  21  22
ATOM     22  C   UNL     1      -8.660   4.045 120.101  0.00  0.00    +0.000 C 
ATOM     23  O   UNL     1      -9.695   4.255 118.568  0.00  0.00    +0.000 OA
BRANCH  22  24
ATOM     24  O   UNL     1      -8.821   3.787 121.436  0.00  0.00    +0.000 OA
ATOM     25  H   UNL     1      -9.253   3.490 122.268  0.00  0.00    +0.000 HD
ENDBRANCH  22  24
ENDBRANCH  21  22
ENDBRANCH  20  21
ENDBRANCH  19  20
ENDBRANCH  17  18
ENDBRANCH  16  17
ENDBRANCH  14  15
ENDBRANCH   2  14
TORSDOF 15
ENDMDL
MODEL 8
REMARK VINA RESULT:      -6.0      2.368      3.995
REMARK  Name = Doconexent
REMARK  16 active torsions:
REMARK  status: ('A' for Active; 'I' for Inactive)
REMARK    1  A    between atoms: C_1  and  C_2
REMARK    2  A    between atoms: C_2  and  C_3
REMARK    3  A    between atoms: C_4  and  C_5
REMARK    4  A    between atoms: C_5  and  C_6
REMARK    5  A    between atoms: C_7  and  C_8
REMARK    6  A    between atoms: C_8  and  C_9
REMARK    7  A    between atoms: C_10  and  C_11
REMARK    8  A    between atoms: C_11  and  C_12
REMARK    9  A    between atoms: C_13  and  C_14
REMARK   10  A    between atoms: C_14  and  C_15
REMARK   11  A    between atoms: C_16  and  C_17
REMARK   12  A    between atoms: C_17  and  C_18
REMARK   13  A    between atoms: C_19  and  C_20
REMARK   14  A    between atoms: C_20  and  C_21
REMARK   15  A    between atoms: C_21  and  C_22
REMARK   16  A    between atoms: C_22  and  O_23
REMARK                            x       y       z     vdW  Elec       q    Type
REMARK                         _______ _______ _______ _____ _____    ______ ____
ROOT
ATOM      1  C   UNL     1      -7.543  -1.318 130.661  0.00  0.00    +0.000 C 
ATOM      2  C   UNL     1      -7.706  -0.063 131.103  0.00  0.00    +0.000 C 
ENDROOT
BRANCH   1   3
ATOM      3  C   UNL     1      -7.978  -1.731 129.294  0.00  0.00    +0.000 C 
BRANCH   3   5
ATOM      4  C   UNL     1      -8.658  -3.790 128.101  0.00  0.00    +0.000 C 
ATOM      5  C   UNL     1      -8.517  -3.123 129.255  0.00  0.00    +0.000 C 
BRANCH   4   6
ATOM      6  C   UNL     1      -8.284  -3.180 126.792  0.00  0.00    +0.000 C 
BRANCH   6   8
ATOM      7  C   UNL     1      -9.360  -3.076 124.570  0.00  0.00    +0.000 C 
ATOM      8  C   UNL     1      -9.462  -2.983 125.900  0.00  0.00    +0.000 C 
BRANCH   7   9
ATOM      9  C   UNL     1      -8.079  -3.379 123.887  0.00  0.00    +0.000 C 
BRANCH   9  11
ATOM     10  C   UNL     1      -6.494  -1.629 123.077  0.00  0.00    +0.000 C 
ATOM     11  C   UNL     1      -7.683  -2.208 123.022  0.00  0.00    +0.000 C 
BRANCH  10  13
ATOM     12  C   UNL     1      -5.379  -1.248 125.254  0.00  0.00    +0.000 C 
ATOM     13  C   UNL     1      -5.600  -2.198 124.022  0.00  0.00    +0.000 C 
ENDBRANCH  10  13
ENDBRANCH   9  11
ENDBRANCH   7   9
ENDBRANCH   6   8
ENDBRANCH   4   6
ENDBRANCH   3   5
ENDBRANCH   1   3
BRANCH   2  14
ATOM     14  C   UNL     1      -8.332   0.992 130.253  0.00  0.00    +0.000 C 
BRANCH  14  15
ATOM     15  C   UNL     1      -7.333   1.721 129.417  0.00  0.00    +0.000 C 
ATOM     16  C   UNL     1      -7.511   1.898 128.103  0.00  0.00    +0.000 C 
BRANCH  16  17
ATOM     17  C   UNL     1      -8.710   1.379 127.401  0.00  0.00    +0.000 C 
BRANCH  17  18
ATOM     18  C   UNL     1      -8.323   0.434 126.314  0.00  0.00    +0.000 C 
ATOM     19  C   UNL     1      -8.699   0.626 125.061  0.00  0.00    +0.000 C 
BRANCH  19  20
ATOM     20  C   UNL     1      -9.499   1.785 124.774  0.00  0.00    +0.000 C 
BRANCH  20  21
ATOM     21  C   UNL     1      -8.778   2.494 123.703  0.00  0.00    +0.000 C 
BRANCH  21  22
ATOM     22  C   UNL     1      -7.982   3.523 124.482  0.00  0.00    +0.000 C 
ATOM     23  O   UNL     1      -6.146   3.218 124.429  0.00  0.00    +0.000 OA
BRANCH  22  24
ATOM     24  O   UNL     1      -8.872   4.410 125.027  0.00  0.00    +0.000 OA
ATOM     25  H   UNL     1      -9.719   4.756 125.388  0.00  0.00    +0.000 HD
ENDBRANCH  22  24
ENDBRANCH  21  22
ENDBRANCH  20  21
ENDBRANCH  19  20
ENDBRANCH  17  18
ENDBRANCH  16  17
ENDBRANCH  14  15
ENDBRANCH   2  14
TORSDOF 15
ENDMDL
MODEL 9
REMARK VINA RESULT:      -6.0      2.631      4.119
REMARK  Name = Doconexent
REMARK  16 active torsions:
REMARK  status: ('A' for Active; 'I' for Inactive)
REMARK    1  A    between atoms: C_1  and  C_2
REMARK    2  A    between atoms: C_2  and  C_3
REMARK    3  A    between atoms: C_4  and  C_5
REMARK    4  A    between atoms: C_5  and  C_6
REMARK    5  A    between atoms: C_7  and  C_8
REMARK    6  A    between atoms: C_8  and  C_9
REMARK    7  A    between atoms: C_10  and  C_11
REMARK    8  A    between atoms: C_11  and  C_12
REMARK    9  A    between atoms: C_13  and  C_14
REMARK   10  A    between atoms: C_14  and  C_15
REMARK   11  A    between atoms: C_16  and  C_17
REMARK   12  A    between atoms: C_17  and  C_18
REMARK   13  A    between atoms: C_19  and  C_20
REMARK   14  A    between atoms: C_20  and  C_21
REMARK   15  A    between atoms: C_21  and  C_22
REMARK   16  A    between atoms: C_22  and  O_23
REMARK                            x       y       z     vdW  Elec       q    Type
REMARK                         _______ _______ _______ _____ _____    ______ ____
ROOT
ATOM      1  C   UNL     1      -8.290  -3.552 128.532  0.00  0.00    +0.000 C 
ATOM      2  C   UNL     1      -9.109  -3.750 127.489  0.00  0.00    +0.000 C 
ENDROOT
BRANCH   1   3
ATOM      3  C   UNL     1      -7.146  -2.596 128.460  0.00  0.00    +0.000 C 
BRANCH   3   5
ATOM      4  C   UNL     1      -7.325  -0.131 128.591  0.00  0.00    +0.000 C 
ATOM      5  C   UNL     1      -7.408  -1.324 129.196  0.00  0.00    +0.000 C 
BRANCH   4   6
ATOM      6  C   UNL     1      -6.966  -0.008 127.147  0.00  0.00    +0.000 C 
BRANCH   6   8
ATOM      7  C   UNL     1      -5.067   1.326 126.299  0.00  0.00    +0.000 C 
ATOM      8  C   UNL     1      -5.511   0.242 126.943  0.00  0.00    +0.000 C 
BRANCH   7   9
ATOM      9  C   UNL     1      -5.981   2.354 125.743  0.00  0.00    +0.000 C 
BRANCH   9  11
ATOM     10  C   UNL     1      -5.252   4.125 124.142  0.00  0.00    +0.000 C 
ATOM     11  C   UNL     1      -5.183   3.570 125.342  0.00  0.00    +0.000 C 
BRANCH  10  13
ATOM     12  C   UNL     1      -5.803   3.824 121.748  0.00  0.00    +0.000 C 
ATOM     13  C   UNL     1      -6.146   3.487 123.244  0.00  0.00    +0.000 C 
ENDBRANCH  10  13
ENDBRANCH   9  11
ENDBRANCH   7   9
ENDBRANCH   6   8
ENDBRANCH   4   6
ENDBRANCH   3   5
ENDBRANCH   1   3
BRANCH   2  14
ATOM     14  C   UNL     1      -8.923  -3.025 126.198  0.00  0.00    +0.000 C 
BRANCH  14  15
ATOM     15  C   UNL     1      -8.412  -3.910 125.111  0.00  0.00    +0.000 C 
ATOM     16  C   UNL     1      -7.295  -3.621 124.433  0.00  0.00    +0.000 C 
BRANCH  16  17
ATOM     17  C   UNL     1      -6.502  -2.402 124.724  0.00  0.00    +0.000 C 
BRANCH  17  18
ATOM     18  C   UNL     1      -6.236  -1.630 123.475  0.00  0.00    +0.000 C 
ATOM     19  C   UNL     1      -7.007  -0.622 123.105  0.00  0.00    +0.000 C 
BRANCH  19  20
ATOM     20  C   UNL     1      -8.120  -0.287 123.951  0.00  0.00    +0.000 C 
BRANCH  20  21
ATOM     21  C   UNL     1      -8.626   0.994 123.431  0.00  0.00    +0.000 C 
BRANCH  21  22
ATOM     22  C   UNL     1      -9.430   1.519 124.604  0.00  0.00    +0.000 C 
ATOM     23  O   UNL     1      -9.141   3.328 124.935  0.00  0.00    +0.000 OA
BRANCH  22  24
ATOM     24  O   UNL     1     -10.159   0.475 125.107  0.00  0.00    +0.000 OA
ATOM     25  H   UNL     1     -10.385  -0.301 125.667  0.00  0.00    +0.000 HD
ENDBRANCH  22  24
ENDBRANCH  21  22
ENDBRANCH  20  21
ENDBRANCH  19  20
ENDBRANCH  17  18
ENDBRANCH  16  17
ENDBRANCH  14  15
ENDBRANCH   2  14
TORSDOF 15
ENDMDL
