MODEL 1
REMARK VINA RESULT:      -6.2      0.000      0.000
REMARK  Name = Docusate
REMARK  23 active torsions:
REMARK  status: ('A' for Active; 'I' for Inactive)
REMARK    1  A    between atoms: C_1  and  C_2
REMARK    2  A    between atoms: C_2  and  C_3
REMARK    3  A    between atoms: C_3  and  C_4
REMARK    4  A    between atoms: C_4  and  C_5
REMARK    5  A    between atoms: C_5  and  C_6
REMARK    6  A    between atoms: C_5  and  C_8
REMARK    7  A    between atoms: C_6  and  C_7
REMARK    8  A    between atoms: C_8  and  O_9
REMARK    9  A    between atoms: O_9  and  C_10
REMARK   10  A    between atoms: C_10  and  C_12
REMARK   11  A    between atoms: C_12  and  C_13
REMARK   12  A    between atoms: C_13  and  C_14
REMARK   13  A    between atoms: C_13  and  S_25
REMARK   14  A    between atoms: C_14  and  O_16
REMARK   15  A    between atoms: O_16  and  C_17
REMARK   16  A    between atoms: C_17  and  C_18
REMARK   17  A    between atoms: C_18  and  C_19
REMARK   18  A    between atoms: C_18  and  C_21
REMARK   19  A    between atoms: C_19  and  C_20
REMARK   20  A    between atoms: C_21  and  C_22
REMARK   21  A    between atoms: C_22  and  C_23
REMARK   22  A    between atoms: C_23  and  C_24
REMARK   23  A    between atoms: S_25  and  O_26
REMARK                            x       y       z     vdW  Elec       q    Type
REMARK                         _______ _______ _______ _____ _____    ______ ____
ROOT
ATOM      1  C   UNL     1      -6.518   3.421 126.936  0.00  0.00    +0.000 C 
ENDROOT
BRANCH   1   2
ATOM      2  S   UNL     1      -7.718   4.106 128.101  0.00  0.00    +0.000 S 
ATOM      3  O   UNL     1      -8.716   3.080 128.394  0.00  0.00    +0.000 OA
ATOM      4  O   UNL     1      -7.060   4.804 129.165  0.00  0.00    +0.000 OA
BRANCH   2   5
ATOM      5  O   UNL     1      -8.474   5.169 127.142  0.00  0.00    +0.000 OA
ATOM      6  H   UNL     1      -9.406   5.295 127.400  0.00  0.00    +0.000 HD
ENDBRANCH   2   5
ENDBRANCH   1   2
BRANCH   1   7
ATOM      7  C   UNL     1      -6.239   4.494 125.882  0.00  0.00    +0.000 C 
ATOM      8  O   UNL     1      -5.581   5.508 126.038  0.00  0.00    +0.000 OA
BRANCH   7   9
ATOM      9  O   UNL     1      -6.850   4.209 124.687  0.00  0.00    +0.000 OA
BRANCH   9  10
ATOM     10  C   UNL     1      -5.975   4.041 123.530  0.00  0.00    +0.000 C 
BRANCH  10  11
ATOM     11  C   UNL     1      -6.502   2.957 122.542  0.00  0.00    +0.000 C 
BRANCH  11  12
ATOM     12  C   UNL     1      -7.986   2.689 122.695  0.00  0.00    +0.000 C 
ATOM     13  C   UNL     1      -8.724   3.200 121.553  0.00  0.00    +0.000 C 
ENDBRANCH  11  12
BRANCH  11  14
ATOM     14  C   UNL     1      -6.353   3.384 121.083  0.00  0.00    +0.000 C 
BRANCH  14  15
ATOM     15  C   UNL     1      -5.354   4.541 120.941  0.00  0.00    +0.000 C 
BRANCH  15  16
ATOM     16  C   UNL     1      -5.492   5.211 119.595  0.00  0.00    +0.000 C 
ATOM     17  C   UNL     1      -6.802   4.801 118.950  0.00  0.00    +0.000 C 
ENDBRANCH  15  16
ENDBRANCH  14  15
ENDBRANCH  11  14
ENDBRANCH  10  11
ENDBRANCH   9  10
ENDBRANCH   7   9
ENDBRANCH   1   7
BRANCH   1  18
ATOM     18  C   UNL     1      -7.007   2.051 126.399  0.00  0.00    +0.000 C 
BRANCH  18  19
ATOM     19  C   UNL     1      -5.857   1.074 126.229  0.00  0.00    +0.000 C 
ATOM     20  O   UNL     1      -4.692   1.448 126.212  0.00  0.00    +0.000 OA
BRANCH  19  21
ATOM     21  O   UNL     1      -6.256  -0.235 126.090  0.00  0.00    +0.000 OA
BRANCH  21  22
ATOM     22  C   UNL     1      -5.357  -1.130 125.367  0.00  0.00    +0.000 C 
BRANCH  22  23
ATOM     23  C   UNL     1      -6.039  -1.912 124.243  0.00  0.00    +0.000 C 
BRANCH  23  24
ATOM     24  C   UNL     1      -4.909  -2.665 123.549  0.00  0.00    +0.000 C 
ATOM     25  C   UNL     1      -4.670  -4.077 124.022  0.00  0.00    +0.000 C 
ENDBRANCH  23  24
BRANCH  23  26
ATOM     26  C   UNL     1      -6.841  -0.904 123.358  0.00  0.00    +0.000 C 
BRANCH  26  27
ATOM     27  C   UNL     1      -8.342  -1.105 123.432  0.00  0.00    +0.000 C 
BRANCH  27  29
ATOM     28  C   UNL     1      -9.334  -3.295 123.913  0.00  0.00    +0.000 C 
ATOM     29  C   UNL     1      -8.886  -2.362 122.791  0.00  0.00    +0.000 C 
ENDBRANCH  27  29
ENDBRANCH  26  27
ENDBRANCH  23  26
ENDBRANCH  22  23
ENDBRANCH  21  22
ENDBRANCH  19  21
ENDBRANCH  18  19
ENDBRANCH   1  18
TORSDOF 19
ENDMDL
MODEL 2
REMARK VINA RESULT:      -6.1      2.482      5.902
REMARK  Name = Docusate
REMARK  23 active torsions:
REMARK  status: ('A' for Active; 'I' for Inactive)
REMARK    1  A    between atoms: C_1  and  C_2
REMARK    2  A    between atoms: C_2  and  C_3
REMARK    3  A    between atoms: C_3  and  C_4
REMARK    4  A    between atoms: C_4  and  C_5
REMARK    5  A    between atoms: C_5  and  C_6
REMARK    6  A    between atoms: C_5  and  C_8
REMARK    7  A    between atoms: C_6  and  C_7
REMARK    8  A    between atoms: C_8  and  O_9
REMARK    9  A    between atoms: O_9  and  C_10
REMARK   10  A    between atoms: C_10  and  C_12
REMARK   11  A    between atoms: C_12  and  C_13
REMARK   12  A    between atoms: C_13  and  C_14
REMARK   13  A    between atoms: C_13  and  S_25
REMARK   14  A    between atoms: C_14  and  O_16
REMARK   15  A    between atoms: O_16  and  C_17
REMARK   16  A    between atoms: C_17  and  C_18
REMARK   17  A    between atoms: C_18  and  C_19
REMARK   18  A    between atoms: C_18  and  C_21
REMARK   19  A    between atoms: C_19  and  C_20
REMARK   20  A    between atoms: C_21  and  C_22
REMARK   21  A    between atoms: C_22  and  C_23
REMARK   22  A    between atoms: C_23  and  C_24
REMARK   23  A    between atoms: S_25  and  O_26
REMARK                            x       y       z     vdW  Elec       q    Type
REMARK                         _______ _______ _______ _____ _____    ______ ____
ROOT
ATOM      1  C   UNL     1      -7.283   3.440 124.561  0.00  0.00    +0.000 C 
ENDROOT
BRANCH   1   2
ATOM      2  S   UNL     1      -5.850   4.531 124.406  0.00  0.00    +0.000 S 
ATOM      3  O   UNL     1      -4.859   4.138 125.404  0.00  0.00    +0.000 OA
ATOM      4  O   UNL     1      -5.475   4.693 123.032  0.00  0.00    +0.000 OA
BRANCH   2   5
ATOM      5  O   UNL     1      -6.482   5.915 124.961  0.00  0.00    +0.000 OA
ATOM      6  H   UNL     1      -6.650   6.554 124.243  0.00  0.00    +0.000 HD
ENDBRANCH   2   5
ENDBRANCH   1   2
BRANCH   1   7
ATOM      7  C   UNL     1      -7.554   3.251 126.055  0.00  0.00    +0.000 C 
ATOM      8  O   UNL     1      -8.077   4.059 126.803  0.00  0.00    +0.000 OA
BRANCH   7   9
ATOM      9  O   UNL     1      -7.111   2.034 126.506  0.00  0.00    +0.000 OA
BRANCH   9  10
ATOM     10  C   UNL     1      -8.065   1.233 127.268  0.00  0.00    +0.000 C 
BRANCH  10  11
ATOM     11  C   UNL     1      -7.371   0.097 128.079  0.00  0.00    +0.000 C 
BRANCH  11  12
ATOM     12  C   UNL     1      -7.709   0.133 129.555  0.00  0.00    +0.000 C 
ATOM     13  C   UNL     1      -8.288   1.413 129.923  0.00  0.00    +0.000 C 
ENDBRANCH  11  12
BRANCH  11  14
ATOM     14  C   UNL     1      -7.824  -1.291 127.630  0.00  0.00    +0.000 C 
BRANCH  14  15
ATOM     15  C   UNL     1      -7.714  -2.309 128.774  0.00  0.00    +0.000 C 
BRANCH  15  16
ATOM     16  C   UNL     1      -8.445  -3.586 128.432  0.00  0.00    +0.000 C 
ATOM     17  C   UNL     1      -8.950  -3.522 127.004  0.00  0.00    +0.000 C 
ENDBRANCH  15  16
ENDBRANCH  14  15
ENDBRANCH  11  14
ENDBRANCH  10  11
ENDBRANCH   9  10
ENDBRANCH   7   9
ENDBRANCH   1   7
BRANCH   1  18
ATOM     18  C   UNL     1      -7.065   2.142 123.741  0.00  0.00    +0.000 C 
BRANCH  18  19
ATOM     19  C   UNL     1      -8.377   1.427 123.466  0.00  0.00    +0.000 C 
ATOM     20  O   UNL     1      -9.286   1.966 122.848  0.00  0.00    +0.000 OA
BRANCH  19  21
ATOM     21  O   UNL     1      -8.435   0.154 123.981  0.00  0.00    +0.000 OA
BRANCH  21  22
ATOM     22  C   UNL     1      -8.636  -0.938 123.033  0.00  0.00    +0.000 C 
BRANCH  22  23
ATOM     23  C   UNL     1      -7.536  -1.999 123.073  0.00  0.00    +0.000 C 
BRANCH  23  24
ATOM     24  C   UNL     1      -8.259  -3.301 123.400  0.00  0.00    +0.000 C 
ATOM     25  C   UNL     1      -9.766  -3.229 123.427  0.00  0.00    +0.000 C 
ENDBRANCH  23  24
BRANCH  23  26
ATOM     26  C   UNL     1      -6.446  -1.542 124.095  0.00  0.00    +0.000 C 
BRANCH  26  27
ATOM     27  C   UNL     1      -5.534  -2.668 124.542  0.00  0.00    +0.000 C 
BRANCH  27  29
ATOM     28  C   UNL     1      -4.439  -4.686 123.683  0.00  0.00    +0.000 C 
ATOM     29  C   UNL     1      -4.535  -3.170 123.525  0.00  0.00    +0.000 C 
ENDBRANCH  27  29
ENDBRANCH  26  27
ENDBRANCH  23  26
ENDBRANCH  22  23
ENDBRANCH  21  22
ENDBRANCH  19  21
ENDBRANCH  18  19
ENDBRANCH   1  18
TORSDOF 19
ENDMDL
MODEL 3
REMARK VINA RESULT:      -6.0      3.713      5.773
REMARK  Name = Docusate
REMARK  23 active torsions:
REMARK  status: ('A' for Active; 'I' for Inactive)
REMARK    1  A    between atoms: C_1  and  C_2
REMARK    2  A    between atoms: C_2  and  C_3
REMARK    3  A    between atoms: C_3  and  C_4
REMARK    4  A    between atoms: C_4  and  C_5
REMARK    5  A    between atoms: C_5  and  C_6
REMARK    6  A    between atoms: C_5  and  C_8
REMARK    7  A    between atoms: C_6  and  C_7
REMARK    8  A    between atoms: C_8  and  O_9
REMARK    9  A    between atoms: O_9  and  C_10
REMARK   10  A    between atoms: C_10  and  C_12
REMARK   11  A    between atoms: C_12  and  C_13
REMARK   12  A    between atoms: C_13  and  C_14
REMARK   13  A    between atoms: C_13  and  S_25
REMARK   14  A    between atoms: C_14  and  O_16
REMARK   15  A    between atoms: O_16  and  C_17
REMARK   16  A    between atoms: C_17  and  C_18
REMARK   17  A    between atoms: C_18  and  C_19
REMARK   18  A    between atoms: C_18  and  C_21
REMARK   19  A    between atoms: C_19  and  C_20
REMARK   20  A    between atoms: C_21  and  C_22
REMARK   21  A    between atoms: C_22  and  C_23
REMARK   22  A    between atoms: C_23  and  C_24
REMARK   23  A    between atoms: S_25  and  O_26
REMARK                            x       y       z     vdW  Elec       q    Type
REMARK                         _______ _______ _______ _____ _____    ______ ____
ROOT
ATOM      1  C   UNL     1      -7.670   3.508 126.804  0.00  0.00    +0.000 C 
ENDROOT
BRANCH   1   2
ATOM      2  S   UNL     1      -7.851   4.834 125.590  0.00  0.00    +0.000 S 
ATOM      3  O   UNL     1      -8.987   5.665 125.978  0.00  0.00    +0.000 OA
ATOM      4  O   UNL     1      -6.583   5.430 125.288  0.00  0.00    +0.000 OA
BRANCH   2   5
ATOM      5  O   UNL     1      -8.367   3.983 124.312  0.00  0.00    +0.000 OA
ATOM      6  H   UNL     1      -7.635   3.734 123.717  0.00  0.00    +0.000 HD
ENDBRANCH   2   5
ENDBRANCH   1   2
BRANCH   1   7
ATOM      7  C   UNL     1      -7.574   4.160 128.184  0.00  0.00    +0.000 C 
ATOM      8  O   UNL     1      -6.562   4.588 128.713  0.00  0.00    +0.000 OA
BRANCH   7   9
ATOM      9  O   UNL     1      -8.789   4.200 128.819  0.00  0.00    +0.000 OA
BRANCH   9  10
ATOM     10  C   UNL     1      -9.008   5.312 129.740  0.00  0.00    +0.000 C 
BRANCH  10  11
ATOM     11  C   UNL     1     -10.361   6.040 129.480  0.00  0.00    +0.000 C 
BRANCH  11  12
ATOM     12  C   UNL     1     -11.436   5.667 130.480  0.00  0.00    +0.000 C 
ATOM     13  C   UNL     1     -11.318   6.464 131.688  0.00  0.00    +0.000 C 
ENDBRANCH  11  12
BRANCH  11  14
ATOM     14  C   UNL     1     -10.237   7.556 129.620  0.00  0.00    +0.000 C 
BRANCH  14  15
ATOM     15  C   UNL     1     -10.517   8.263 128.287  0.00  0.00    +0.000 C 
BRANCH  15  16
ATOM     16  C   UNL     1     -12.003   8.383 128.042  0.00  0.00    +0.000 C 
ATOM     17  C   UNL     1     -12.661   9.089 129.213  0.00  0.00    +0.000 C 
ENDBRANCH  15  16
ENDBRANCH  14  15
ENDBRANCH  11  14
ENDBRANCH  10  11
ENDBRANCH   9  10
ENDBRANCH   7   9
ENDBRANCH   1   7
BRANCH   1  18
ATOM     18  C   UNL     1      -6.498   2.571 126.412  0.00  0.00    +0.000 C 
BRANCH  18  19
ATOM     19  C   UNL     1      -6.995   1.207 125.967  0.00  0.00    +0.000 C 
ATOM     20  O   UNL     1      -8.190   0.960 125.866  0.00  0.00    +0.000 OA
BRANCH  19  21
ATOM     21  O   UNL     1      -5.989   0.306 125.711  0.00  0.00    +0.000 OA
BRANCH  21  22
ATOM     22  C   UNL     1      -6.237  -0.687 124.668  0.00  0.00    +0.000 C 
BRANCH  22  23
ATOM     23  C   UNL     1      -6.024  -2.130 125.127  0.00  0.00    +0.000 C 
BRANCH  23  24
ATOM     24  C   UNL     1      -5.870  -2.932 123.840  0.00  0.00    +0.000 C 
ATOM     25  C   UNL     1      -4.461  -3.320 123.468  0.00  0.00    +0.000 C 
ENDBRANCH  23  24
BRANCH  23  26
ATOM     26  C   UNL     1      -7.217  -2.534 126.053  0.00  0.00    +0.000 C 
BRANCH  26  27
ATOM     27  C   UNL     1      -8.139  -3.560 125.425  0.00  0.00    +0.000 C 
BRANCH  27  29
ATOM     28  C   UNL     1      -9.466  -3.171 123.400  0.00  0.00    +0.000 C 
ATOM     29  C   UNL     1      -9.472  -3.051 124.922  0.00  0.00    +0.000 C 
ENDBRANCH  27  29
ENDBRANCH  26  27
ENDBRANCH  23  26
ENDBRANCH  22  23
ENDBRANCH  21  22
ENDBRANCH  19  21
ENDBRANCH  18  19
ENDBRANCH   1  18
TORSDOF 19
ENDMDL
MODEL 4
REMARK VINA RESULT:      -5.9      1.579      2.617
REMARK  Name = Docusate
REMARK  23 active torsions:
REMARK  status: ('A' for Active; 'I' for Inactive)
REMARK    1  A    between atoms: C_1  and  C_2
REMARK    2  A    between atoms: C_2  and  C_3
REMARK    3  A    between atoms: C_3  and  C_4
REMARK    4  A    between atoms: C_4  and  C_5
REMARK    5  A    between atoms: C_5  and  C_6
REMARK    6  A    between atoms: C_5  and  C_8
REMARK    7  A    between atoms: C_6  and  C_7
REMARK    8  A    between atoms: C_8  and  O_9
REMARK    9  A    between atoms: O_9  and  C_10
REMARK   10  A    between atoms: C_10  and  C_12
REMARK   11  A    between atoms: C_12  and  C_13
REMARK   12  A    between atoms: C_13  and  C_14
REMARK   13  A    between atoms: C_13  and  S_25
REMARK   14  A    between atoms: C_14  and  O_16
REMARK   15  A    between atoms: O_16  and  C_17
REMARK   16  A    between atoms: C_17  and  C_18
REMARK   17  A    between atoms: C_18  and  C_19
REMARK   18  A    between atoms: C_18  and  C_21
REMARK   19  A    between atoms: C_19  and  C_20
REMARK   20  A    between atoms: C_21  and  C_22
REMARK   21  A    between atoms: C_22  and  C_23
REMARK   22  A    between atoms: C_23  and  C_24
REMARK   23  A    between atoms: S_25  and  O_26
REMARK                            x       y       z     vdW  Elec       q    Type
REMARK                         _______ _______ _______ _____ _____    ______ ____
ROOT
ATOM      1  C   UNL     1      -7.750   2.926 128.243  0.00  0.00    +0.000 C 
ENDROOT
BRANCH   1   2
ATOM      2  S   UNL     1      -8.654   3.835 129.515  0.00  0.00    +0.000 S 
ATOM      3  O   UNL     1      -9.956   3.201 129.701  0.00  0.00    +0.000 OA
ATOM      4  O   UNL     1      -7.814   4.114 130.643  0.00  0.00    +0.000 OA
BRANCH   2   5
ATOM      5  O   UNL     1      -8.964   5.210 128.719  0.00  0.00    +0.000 OA
ATOM      6  H   UNL     1      -8.148   5.685 128.476  0.00  0.00    +0.000 HD
ENDBRANCH   2   5
ENDBRANCH   1   2
BRANCH   1   7
ATOM      7  C   UNL     1      -7.434   3.908 127.114  0.00  0.00    +0.000 C 
ATOM      8  O   UNL     1      -6.485   4.671 127.062  0.00  0.00    +0.000 OA
BRANCH   7   9
ATOM      9  O   UNL     1      -8.381   3.870 126.122  0.00  0.00    +0.000 OA
BRANCH   9  10
ATOM     10  C   UNL     1      -7.888   3.733 124.754  0.00  0.00    +0.000 C 
BRANCH  10  11
ATOM     11  C   UNL     1      -8.040   2.280 124.212  0.00  0.00    +0.000 C 
BRANCH  11  12
ATOM     12  C   UNL     1      -9.452   1.959 123.767  0.00  0.00    +0.000 C 
ATOM     13  C   UNL     1      -9.476   0.762 122.944  0.00  0.00    +0.000 C 
ENDBRANCH  11  12
BRANCH  11  14
ATOM     14  C   UNL     1      -7.195   2.038 122.963  0.00  0.00    +0.000 C 
BRANCH  14  15
ATOM     15  C   UNL     1      -6.351   3.272 122.615  0.00  0.00    +0.000 C 
BRANCH  15  16
ATOM     16  C   UNL     1      -5.857   3.203 121.188  0.00  0.00    +0.000 C 
ATOM     17  C   UNL     1      -6.795   3.979 120.283  0.00  0.00    +0.000 C 
ENDBRANCH  15  16
ENDBRANCH  14  15
ENDBRANCH  11  14
ENDBRANCH  10  11
ENDBRANCH   9  10
ENDBRANCH   7   9
ENDBRANCH   1   7
BRANCH   1  18
ATOM     18  C   UNL     1      -8.529   1.649 127.834  0.00  0.00    +0.000 C 
BRANCH  18  19
ATOM     19  C   UNL     1      -7.592   0.534 127.403  0.00  0.00    +0.000 C 
ATOM     20  O   UNL     1      -6.410   0.745 127.163  0.00  0.00    +0.000 OA
BRANCH  19  21
ATOM     21  O   UNL     1      -8.199  -0.695 127.303  0.00  0.00    +0.000 OA
BRANCH  21  22
ATOM     22  C   UNL     1      -7.487  -1.730 126.558  0.00  0.00    +0.000 C 
BRANCH  22  23
ATOM     23  C   UNL     1      -7.805  -1.742 125.063  0.00  0.00    +0.000 C 
BRANCH  23  24
ATOM     24  C   UNL     1      -8.445  -3.103 124.810  0.00  0.00    +0.000 C 
ATOM     25  C   UNL     1      -9.330  -3.199 123.593  0.00  0.00    +0.000 C 
ENDBRANCH  23  24
BRANCH  23  26
ATOM     26  C   UNL     1      -6.488  -1.444 124.276  0.00  0.00    +0.000 C 
BRANCH  26  27
ATOM     27  C   UNL     1      -5.407  -2.482 124.504  0.00  0.00    +0.000 C 
BRANCH  27  29
ATOM     28  C   UNL     1      -4.407  -4.570 123.698  0.00  0.00    +0.000 C 
ATOM     29  C   UNL     1      -4.872  -3.180 123.274  0.00  0.00    +0.000 C 
ENDBRANCH  27  29
ENDBRANCH  26  27
ENDBRANCH  23  26
ENDBRANCH  22  23
ENDBRANCH  21  22
ENDBRANCH  19  21
ENDBRANCH  18  19
ENDBRANCH   1  18
TORSDOF 19
ENDMDL
MODEL 5
REMARK VINA RESULT:      -5.8      3.015      5.630
REMARK  Name = Docusate
REMARK  23 active torsions:
REMARK  status: ('A' for Active; 'I' for Inactive)
REMARK    1  A    between atoms: C_1  and  C_2
REMARK    2  A    between atoms: C_2  and  C_3
REMARK    3  A    between atoms: C_3  and  C_4
REMARK    4  A    between atoms: C_4  and  C_5
REMARK    5  A    between atoms: C_5  and  C_6
REMARK    6  A    between atoms: C_5  and  C_8
REMARK    7  A    between atoms: C_6  and  C_7
REMARK    8  A    between atoms: C_8  and  O_9
REMARK    9  A    between atoms: O_9  and  C_10
REMARK   10  A    between atoms: C_10  and  C_12
REMARK   11  A    between atoms: C_12  and  C_13
REMARK   12  A    between atoms: C_13  and  C_14
REMARK   13  A    between atoms: C_13  and  S_25
REMARK   14  A    between atoms: C_14  and  O_16
REMARK   15  A    between atoms: O_16  and  C_17
REMARK   16  A    between atoms: C_17  and  C_18
REMARK   17  A    between atoms: C_18  and  C_19
REMARK   18  A    between atoms: C_18  and  C_21
REMARK   19  A    between atoms: C_19  and  C_20
REMARK   20  A    between atoms: C_21  and  C_22
REMARK   21  A    between atoms: C_22  and  C_23
REMARK   22  A    between atoms: C_23  and  C_24
REMARK   23  A    between atoms: S_25  and  O_26
REMARK                            x       y       z     vdW  Elec       q    Type
REMARK                         _______ _______ _______ _____ _____    ______ ____
ROOT
ATOM      1  C   UNL     1      -7.493   1.840 125.820  0.00  0.00    +0.000 C 
ENDROOT
BRANCH   1   2
ATOM      2  S   UNL     1      -7.783   3.602 125.545  0.00  0.00    +0.000 S 
ATOM      3  O   UNL     1      -8.137   4.218 126.821  0.00  0.00    +0.000 OA
ATOM      4  O   UNL     1      -6.754   4.170 124.724  0.00  0.00    +0.000 OA
BRANCH   2   5
ATOM      5  O   UNL     1      -9.168   3.538 124.709  0.00  0.00    +0.000 OA
ATOM      6  H   UNL     1      -9.802   4.221 124.996  0.00  0.00    +0.000 HD
ENDBRANCH   2   5
ENDBRANCH   1   2
BRANCH   1   7
ATOM      7  C   UNL     1      -8.824   1.118 125.604  0.00  0.00    +0.000 C 
ATOM      8  O   UNL     1      -9.708   0.967 126.431  0.00  0.00    +0.000 OA
BRANCH   7   9
ATOM      9  O   UNL     1      -8.929   0.605 124.337  0.00  0.00    +0.000 OA
BRANCH   9  10
ATOM     10  C   UNL     1      -7.743  -0.054 123.798  0.00  0.00    +0.000 C 
BRANCH  10  11
ATOM     11  C   UNL     1      -7.350  -1.324 124.610  0.00  0.00    +0.000 C 
BRANCH  11  12
ATOM     12  C   UNL     1      -8.008  -2.586 124.089  0.00  0.00    +0.000 C 
ATOM     13  C   UNL     1      -8.703  -2.330 122.840  0.00  0.00    +0.000 C 
ENDBRANCH  11  12
BRANCH  11  14
ATOM     14  C   UNL     1      -5.855  -1.625 124.523  0.00  0.00    +0.000 C 
BRANCH  14  15
ATOM     15  C   UNL     1      -5.594  -3.136 124.450  0.00  0.00    +0.000 C 
BRANCH  15  16
ATOM     16  C   UNL     1      -4.546  -3.454 123.410  0.00  0.00    +0.000 C 
ATOM     17  C   UNL     1      -4.189  -4.927 123.475  0.00  0.00    +0.000 C 
ENDBRANCH  15  16
ENDBRANCH  14  15
ENDBRANCH  11  14
ENDBRANCH  10  11
ENDBRANCH   9  10
ENDBRANCH   7   9
ENDBRANCH   1   7
BRANCH   1  18
ATOM     18  C   UNL     1      -6.812   1.613 127.195  0.00  0.00    +0.000 C 
BRANCH  18  19
ATOM     19  C   UNL     1      -5.449   0.961 127.043  0.00  0.00    +0.000 C 
ATOM     20  O   UNL     1      -4.612   1.395 126.262  0.00  0.00    +0.000 OA
BRANCH  19  21
ATOM     21  O   UNL     1      -5.267  -0.141 127.844  0.00  0.00    +0.000 OA
BRANCH  21  22
ATOM     22  C   UNL     1      -6.464  -0.748 128.420  0.00  0.00    +0.000 C 
BRANCH  22  23
ATOM     23  C   UNL     1      -6.633  -2.228 128.071  0.00  0.00    +0.000 C 
BRANCH  23  24
ATOM     24  C   UNL     1      -8.141  -2.457 128.058  0.00  0.00    +0.000 C 
ATOM     25  C   UNL     1      -8.589  -3.897 128.082  0.00  0.00    +0.000 C 
ENDBRANCH  23  24
BRANCH  23  26
ATOM     26  C   UNL     1      -5.817  -3.073 129.102  0.00  0.00    +0.000 C 
BRANCH  26  27
ATOM     27  C   UNL     1      -6.100  -2.695 130.543  0.00  0.00    +0.000 C 
BRANCH  27  29
ATOM     28  C   UNL     1      -5.544  -5.058 130.891  0.00  0.00    +0.000 C 
ATOM     29  C   UNL     1      -6.195  -3.834 131.532  0.00  0.00    +0.000 C 
ENDBRANCH  27  29
ENDBRANCH  26  27
ENDBRANCH  23  26
ENDBRANCH  22  23
ENDBRANCH  21  22
ENDBRANCH  19  21
ENDBRANCH  18  19
ENDBRANCH   1  18
TORSDOF 19
ENDMDL
MODEL 6
REMARK VINA RESULT:      -5.8      3.008      5.371
REMARK  Name = Docusate
REMARK  23 active torsions:
REMARK  status: ('A' for Active; 'I' for Inactive)
REMARK    1  A    between atoms: C_1  and  C_2
REMARK    2  A    between atoms: C_2  and  C_3
REMARK    3  A    between atoms: C_3  and  C_4
REMARK    4  A    between atoms: C_4  and  C_5
REMARK    5  A    between atoms: C_5  and  C_6
REMARK    6  A    between atoms: C_5  and  C_8
REMARK    7  A    between atoms: C_6  and  C_7
REMARK    8  A    between atoms: C_8  and  O_9
REMARK    9  A    between atoms: O_9  and  C_10
REMARK   10  A    between atoms: C_10  and  C_12
REMARK   11  A    between atoms: C_12  and  C_13
REMARK   12  A    between atoms: C_13  and  C_14
REMARK   13  A    between atoms: C_13  and  S_25
REMARK   14  A    between atoms: C_14  and  O_16
REMARK   15  A    between atoms: O_16  and  C_17
REMARK   16  A    between atoms: C_17  and  C_18
REMARK   17  A    between atoms: C_18  and  C_19
REMARK   18  A    between atoms: C_18  and  C_21
REMARK   19  A    between atoms: C_19  and  C_20
REMARK   20  A    between atoms: C_21  and  C_22
REMARK   21  A    between atoms: C_22  and  C_23
REMARK   22  A    between atoms: C_23  and  C_24
REMARK   23  A    between atoms: S_25  and  O_26
REMARK                            x       y       z     vdW  Elec       q    Type
REMARK                         _______ _______ _______ _____ _____    ______ ____
ROOT
ATOM      1  C   UNL     1      -7.098   2.216 126.151  0.00  0.00    +0.000 C 
ENDROOT
BRANCH   1   2
ATOM      2  S   UNL     1      -7.448   3.760 125.281  0.00  0.00    +0.000 S 
ATOM      3  O   UNL     1      -6.630   3.805 124.071  0.00  0.00    +0.000 OA
ATOM      4  O   UNL     1      -8.858   4.005 125.215  0.00  0.00    +0.000 OA
BRANCH   2   5
ATOM      5  O   UNL     1      -6.761   4.821 126.293  0.00  0.00    +0.000 OA
ATOM      6  H   UNL     1      -7.357   5.564 126.505  0.00  0.00    +0.000 HD
ENDBRANCH   2   5
ENDBRANCH   1   2
BRANCH   1   7
ATOM      7  C   UNL     1      -6.364   2.574 127.444  0.00  0.00    +0.000 C 
ATOM      8  O   UNL     1      -6.878   2.856 128.513  0.00  0.00    +0.000 OA
BRANCH   7   9
ATOM      9  O   UNL     1      -5.003   2.574 127.278  0.00  0.00    +0.000 OA
BRANCH   9  10
ATOM     10  C   UNL     1      -4.205   3.008 128.421  0.00  0.00    +0.000 C 
BRANCH  10  11
ATOM     11  C   UNL     1      -3.137   4.073 128.028  0.00  0.00    +0.000 C 
BRANCH  11  12
ATOM     12  C   UNL     1      -2.547   3.839 126.652  0.00  0.00    +0.000 C 
ATOM     13  C   UNL     1      -1.453   2.885 126.713  0.00  0.00    +0.000 C 
ENDBRANCH  11  12
BRANCH  11  14
ATOM     14  C   UNL     1      -3.728   5.478 127.941  0.00  0.00    +0.000 C 
BRANCH  14  15
ATOM     15  C   UNL     1      -3.154   6.393 129.032  0.00  0.00    +0.000 C 
BRANCH  15  16
ATOM     16  C   UNL     1      -2.564   5.581 130.161  0.00  0.00    +0.000 C 
ATOM     17  C   UNL     1      -1.632   6.449 130.985  0.00  0.00    +0.000 C 
ENDBRANCH  15  16
ENDBRANCH  14  15
ENDBRANCH  11  14
ENDBRANCH  10  11
ENDBRANCH   9  10
ENDBRANCH   7   9
ENDBRANCH   1   7
BRANCH   1  18
ATOM     18  C   UNL     1      -6.372   1.218 125.212  0.00  0.00    +0.000 C 
BRANCH  18  19
ATOM     19  C   UNL     1      -7.357   0.352 124.446  0.00  0.00    +0.000 C 
ATOM     20  O   UNL     1      -8.507   0.190 124.832  0.00  0.00    +0.000 OA
BRANCH  19  21
ATOM     21  O   UNL     1      -6.828  -0.221 123.313  0.00  0.00    +0.000 OA
BRANCH  21  22
ATOM     22  C   UNL     1      -7.121  -1.634 123.084  0.00  0.00    +0.000 C 
BRANCH  22  23
ATOM     23  C   UNL     1      -6.467  -2.571 124.100  0.00  0.00    +0.000 C 
BRANCH  23  24
ATOM     24  C   UNL     1      -5.111  -2.920 123.495  0.00  0.00    +0.000 C 
ATOM     25  C   UNL     1      -4.609  -4.316 123.762  0.00  0.00    +0.000 C 
ENDBRANCH  23  24
BRANCH  23  26
ATOM     26  C   UNL     1      -7.435  -3.771 124.359  0.00  0.00    +0.000 C 
BRANCH  26  27
ATOM     27  C   UNL     1      -8.573  -3.429 125.300  0.00  0.00    +0.000 C 
BRANCH  27  29
ATOM     28  C   UNL     1      -8.836  -3.753 127.716  0.00  0.00    +0.000 C 
ATOM     29  C   UNL     1      -8.185  -2.873 126.652  0.00  0.00    +0.000 C 
ENDBRANCH  27  29
ENDBRANCH  26  27
ENDBRANCH  23  26
ENDBRANCH  22  23
ENDBRANCH  21  22
ENDBRANCH  19  21
ENDBRANCH  18  19
ENDBRANCH   1  18
TORSDOF 19
ENDMDL
MODEL 7
REMARK VINA RESULT:      -5.7      3.228      7.296
REMARK  Name = Docusate
REMARK  23 active torsions:
REMARK  status: ('A' for Active; 'I' for Inactive)
REMARK    1  A    between atoms: C_1  and  C_2
REMARK    2  A    between atoms: C_2  and  C_3
REMARK    3  A    between atoms: C_3  and  C_4
REMARK    4  A    between atoms: C_4  and  C_5
REMARK    5  A    between atoms: C_5  and  C_6
REMARK    6  A    between atoms: C_5  and  C_8
REMARK    7  A    between atoms: C_6  and  C_7
REMARK    8  A    between atoms: C_8  and  O_9
REMARK    9  A    between atoms: O_9  and  C_10
REMARK   10  A    between atoms: C_10  and  C_12
REMARK   11  A    between atoms: C_12  and  C_13
REMARK   12  A    between atoms: C_13  and  C_14
REMARK   13  A    between atoms: C_13  and  S_25
REMARK   14  A    between atoms: C_14  and  O_16
REMARK   15  A    between atoms: O_16  and  C_17
REMARK   16  A    between atoms: C_17  and  C_18
REMARK   17  A    between atoms: C_18  and  C_19
REMARK   18  A    between atoms: C_18  and  C_21
REMARK   19  A    between atoms: C_19  and  C_20
REMARK   20  A    between atoms: C_21  and  C_22
REMARK   21  A    between atoms: C_22  and  C_23
REMARK   22  A    between atoms: C_23  and  C_24
REMARK   23  A    between atoms: S_25  and  O_26
REMARK                            x       y       z     vdW  Elec       q    Type
REMARK                         _______ _______ _______ _____ _____    ______ ____
ROOT
ATOM      1  C   UNL     1      -7.920   1.636 125.241  0.00  0.00    +0.000 C 
ENDROOT
BRANCH   1   2
ATOM      2  S   UNL     1      -8.193   3.161 124.313  0.00  0.00    +0.000 S 
ATOM      3  O   UNL     1      -8.747   4.163 125.220  0.00  0.00    +0.000 OA
ATOM      4  O   UNL     1      -7.061   3.472 123.491  0.00  0.00    +0.000 OA
BRANCH   2   5
ATOM      5  O   UNL     1      -9.433   2.709 123.376  0.00  0.00    +0.000 OA
ATOM      6  H   UNL     1     -10.294   2.954 123.764  0.00  0.00    +0.000 HD
ENDBRANCH   2   5
ENDBRANCH   1   2
BRANCH   1   7
ATOM      7  C   UNL     1      -8.871   0.579 124.677  0.00  0.00    +0.000 C 
ATOM      8  O   UNL     1     -10.007   0.353 125.056  0.00  0.00    +0.000 OA
BRANCH   7   9
ATOM      9  O   UNL     1      -8.291  -0.147 123.669  0.00  0.00    +0.000 OA
BRANCH   9  10
ATOM     10  C   UNL     1      -7.006  -0.773 123.970  0.00  0.00    +0.000 C 
BRANCH  10  11
ATOM     11  C   UNL     1      -6.898  -2.215 123.388  0.00  0.00    +0.000 C 
BRANCH  11  12
ATOM     12  C   UNL     1      -5.471  -2.626 123.087  0.00  0.00    +0.000 C 
ATOM     13  C   UNL     1      -5.040  -3.690 123.977  0.00  0.00    +0.000 C 
ENDBRANCH  11  12
BRANCH  11  14
ATOM     14  C   UNL     1      -7.386  -3.273 124.375  0.00  0.00    +0.000 C 
BRANCH  14  15
ATOM     15  C   UNL     1      -8.915  -3.407 124.338  0.00  0.00    +0.000 C 
BRANCH  15  16
ATOM     16  C   UNL     1      -9.521  -3.054 125.675  0.00  0.00    +0.000 C 
ATOM     17  C   UNL     1      -8.420  -2.794 126.685  0.00  0.00    +0.000 C 
ENDBRANCH  15  16
ENDBRANCH  14  15
ENDBRANCH  11  14
ENDBRANCH  10  11
ENDBRANCH   9  10
ENDBRANCH   7   9
ENDBRANCH   1   7
BRANCH   1  18
ATOM     18  C   UNL     1      -8.028   1.903 126.765  0.00  0.00    +0.000 C 
BRANCH  18  19
ATOM     19  C   UNL     1      -6.678   1.792 127.451  0.00  0.00    +0.000 C 
ATOM     20  O   UNL     1      -6.252   0.720 127.861  0.00  0.00    +0.000 OA
BRANCH  19  21
ATOM     21  O   UNL     1      -6.013   2.990 127.567  0.00  0.00    +0.000 OA
BRANCH  21  22
ATOM     22  C   UNL     1      -5.278   3.224 128.807  0.00  0.00    +0.000 C 
BRANCH  22  23
ATOM     23  C   UNL     1      -3.899   3.852 128.596  0.00  0.00    +0.000 C 
BRANCH  23  24
ATOM     24  C   UNL     1      -3.098   2.793 127.846  0.00  0.00    +0.000 C 
ATOM     25  C   UNL     1      -2.107   3.311 126.834  0.00  0.00    +0.000 C 
ENDBRANCH  23  24
BRANCH  23  26
ATOM     26  C   UNL     1      -3.336   4.283 129.989  0.00  0.00    +0.000 C 
BRANCH  26  27
ATOM     27  C   UNL     1      -3.097   5.776 130.101  0.00  0.00    +0.000 C 
BRANCH  27  29
ATOM     28  C   UNL     1      -2.670   7.143 128.111  0.00  0.00    +0.000 C 
ATOM     29  C   UNL     1      -2.001   6.350 129.231  0.00  0.00    +0.000 C 
ENDBRANCH  27  29
ENDBRANCH  26  27
ENDBRANCH  23  26
ENDBRANCH  22  23
ENDBRANCH  21  22
ENDBRANCH  19  21
ENDBRANCH  18  19
ENDBRANCH   1  18
TORSDOF 19
ENDMDL
MODEL 8
REMARK VINA RESULT:      -5.7      3.220      7.353
REMARK  Name = Docusate
REMARK  23 active torsions:
REMARK  status: ('A' for Active; 'I' for Inactive)
REMARK    1  A    between atoms: C_1  and  C_2
REMARK    2  A    between atoms: C_2  and  C_3
REMARK    3  A    between atoms: C_3  and  C_4
REMARK    4  A    between atoms: C_4  and  C_5
REMARK    5  A    between atoms: C_5  and  C_6
REMARK    6  A    between atoms: C_5  and  C_8
REMARK    7  A    between atoms: C_6  and  C_7
REMARK    8  A    between atoms: C_8  and  O_9
REMARK    9  A    between atoms: O_9  and  C_10
REMARK   10  A    between atoms: C_10  and  C_12
REMARK   11  A    between atoms: C_12  and  C_13
REMARK   12  A    between atoms: C_13  and  C_14
REMARK   13  A    between atoms: C_13  and  S_25
REMARK   14  A    between atoms: C_14  and  O_16
REMARK   15  A    between atoms: O_16  and  C_17
REMARK   16  A    between atoms: C_17  and  C_18
REMARK   17  A    between atoms: C_18  and  C_19
REMARK   18  A    between atoms: C_18  and  C_21
REMARK   19  A    between atoms: C_19  and  C_20
REMARK   20  A    between atoms: C_21  and  C_22
REMARK   21  A    between atoms: C_22  and  C_23
REMARK   22  A    between atoms: C_23  and  C_24
REMARK   23  A    between atoms: S_25  and  O_26
REMARK                            x       y       z     vdW  Elec       q    Type
REMARK                         _______ _______ _______ _____ _____    ______ ____
ROOT
ATOM      1  C   UNL     1      -7.266   2.140 125.686  0.00  0.00    +0.000 C 
ENDROOT
BRANCH   1   2
ATOM      2  S   UNL     1      -8.454   2.334 124.339  0.00  0.00    +0.000 S 
ATOM      3  O   UNL     1      -7.925   1.662 123.155  0.00  0.00    +0.000 OA
ATOM      4  O   UNL     1      -9.789   2.072 124.788  0.00  0.00    +0.000 OA
BRANCH   2   5
ATOM      5  O   UNL     1      -8.286   3.916 124.035  0.00  0.00    +0.000 OA
ATOM      6  H   UNL     1      -8.254   4.445 124.855  0.00  0.00    +0.000 HD
ENDBRANCH   2   5
ENDBRANCH   1   2
BRANCH   1   7
ATOM      7  C   UNL     1      -7.627   0.856 126.434  0.00  0.00    +0.000 C 
ATOM      8  O   UNL     1      -8.231   0.779 127.490  0.00  0.00    +0.000 OA
BRANCH   7   9
ATOM      9  O   UNL     1      -7.164  -0.262 125.788  0.00  0.00    +0.000 OA
BRANCH   9  10
ATOM     10  C   UNL     1      -8.144  -1.307 125.506  0.00  0.00    +0.000 C 
BRANCH  10  11
ATOM     11  C   UNL     1      -7.528  -2.497 124.709  0.00  0.00    +0.000 C 
BRANCH  11  12
ATOM     12  C   UNL     1      -8.517  -3.618 124.462  0.00  0.00    +0.000 C 
ATOM     13  C   UNL     1      -9.466  -3.252 123.424  0.00  0.00    +0.000 C 
ENDBRANCH  11  12
BRANCH  11  14
ATOM     14  C   UNL     1      -7.082  -2.083 123.308  0.00  0.00    +0.000 C 
BRANCH  14  15
ATOM     15  C   UNL     1      -5.634  -2.512 123.035  0.00  0.00    +0.000 C 
BRANCH  15  16
ATOM     16  C   UNL     1      -5.094  -3.345 124.175  0.00  0.00    +0.000 C 
ATOM     17  C   UNL     1      -4.317  -4.525 123.624  0.00  0.00    +0.000 C 
ENDBRANCH  15  16
ENDBRANCH  14  15
ENDBRANCH  11  14
ENDBRANCH  10  11
ENDBRANCH   9  10
ENDBRANCH   7   9
ENDBRANCH   1   7
BRANCH   1  18
ATOM     18  C   UNL     1      -7.205   3.431 126.544  0.00  0.00    +0.000 C 
BRANCH  18  19
ATOM     19  C   UNL     1      -5.890   4.167 126.355  0.00  0.00    +0.000 C 
ATOM     20  O   UNL     1      -5.500   4.512 125.247  0.00  0.00    +0.000 OA
BRANCH  19  21
ATOM     21  O   UNL     1      -5.203   4.387 127.525  0.00  0.00    +0.000 OA
BRANCH  21  22
ATOM     22  C   UNL     1      -3.993   5.201 127.443  0.00  0.00    +0.000 C 
BRANCH  22  23
ATOM     23  C   UNL     1      -2.787   4.584 128.152  0.00  0.00    +0.000 C 
BRANCH  23  24
ATOM     24  C   UNL     1      -2.650   3.190 127.551  0.00  0.00    +0.000 C 
ATOM     25  C   UNL     1      -1.535   3.009 126.551  0.00  0.00    +0.000 C 
ENDBRANCH  23  24
BRANCH  23  26
ATOM     26  C   UNL     1      -3.035   4.649 129.694  0.00  0.00    +0.000 C 
BRANCH  26  27
ATOM     27  C   UNL     1      -2.787   6.023 130.283  0.00  0.00    +0.000 C 
BRANCH  27  29
ATOM     28  C   UNL     1      -1.720   4.936 132.204  0.00  0.00    +0.000 C 
ATOM     29  C   UNL     1      -1.645   6.139 131.267  0.00  0.00    +0.000 C 
ENDBRANCH  27  29
ENDBRANCH  26  27
ENDBRANCH  23  26
ENDBRANCH  22  23
ENDBRANCH  21  22
ENDBRANCH  19  21
ENDBRANCH  18  19
ENDBRANCH   1  18
TORSDOF 19
ENDMDL
MODEL 9
REMARK VINA RESULT:      -5.7      5.456      8.611
REMARK  Name = Docusate
REMARK  23 active torsions:
REMARK  status: ('A' for Active; 'I' for Inactive)
REMARK    1  A    between atoms: C_1  and  C_2
REMARK    2  A    between atoms: C_2  and  C_3
REMARK    3  A    between atoms: C_3  and  C_4
REMARK    4  A    between atoms: C_4  and  C_5
REMARK    5  A    between atoms: C_5  and  C_6
REMARK    6  A    between atoms: C_5  and  C_8
REMARK    7  A    between atoms: C_6  and  C_7
REMARK    8  A    between atoms: C_8  and  O_9
REMARK    9  A    between atoms: O_9  and  C_10
REMARK   10  A    between atoms: C_10  and  C_12
REMARK   11  A    between atoms: C_12  and  C_13
REMARK   12  A    between atoms: C_13  and  C_14
REMARK   13  A    between atoms: C_13  and  S_25
REMARK   14  A    between atoms: C_14  and  O_16
REMARK   15  A    between atoms: O_16  and  C_17
REMARK   16  A    between atoms: C_17  and  C_18
REMARK   17  A    between atoms: C_18  and  C_19
REMARK   18  A    between atoms: C_18  and  C_21
REMARK   19  A    between atoms: C_19  and  C_20
REMARK   20  A    between atoms: C_21  and  C_22
REMARK   21  A    between atoms: C_22  and  C_23
REMARK   22  A    between atoms: C_23  and  C_24
REMARK   23  A    between atoms: S_25  and  O_26
REMARK                            x       y       z     vdW  Elec       q    Type
REMARK                         _______ _______ _______ _____ _____    ______ ____
ROOT
ATOM      1  C   UNL     1      -8.321   4.600 130.581  0.00  0.00    +0.000 C 
ENDROOT
BRANCH   1   2
ATOM      2  S   UNL     1      -9.243   3.063 130.811  0.00  0.00    +0.000 S 
ATOM      3  O   UNL     1      -8.577   2.006 130.054  0.00  0.00    +0.000 OA
ATOM      4  O   UNL     1      -9.581   2.868 132.190  0.00  0.00    +0.000 OA
BRANCH   2   5
ATOM      5  O   UNL     1     -10.583   3.404 129.968  0.00  0.00    +0.000 OA
ATOM      6  H   UNL     1     -10.799   2.705 129.323  0.00  0.00    +0.000 HD
ENDBRANCH   2   5
ENDBRANCH   1   2
BRANCH   1   7
ATOM      7  C   UNL     1      -9.078   5.440 129.552  0.00  0.00    +0.000 C 
ATOM      8  O   UNL     1      -9.022   5.322 128.340  0.00  0.00    +0.000 OA
BRANCH   7   9
ATOM      9  O   UNL     1      -9.849   6.407 130.146  0.00  0.00    +0.000 OA
BRANCH   9  10
ATOM     10  C   UNL     1     -11.204   6.571 129.629  0.00  0.00    +0.000 C 
BRANCH  10  11
ATOM     11  C   UNL     1     -11.498   8.038 129.193  0.00  0.00    +0.000 C 
BRANCH  11  12
ATOM     12  C   UNL     1     -10.600   8.513 128.068  0.00  0.00    +0.000 C 
ATOM     13  C   UNL     1     -10.912   7.819 126.830  0.00  0.00    +0.000 C 
ENDBRANCH  11  12
BRANCH  11  14
ATOM     14  C   UNL     1     -12.909   8.202 128.633  0.00  0.00    +0.000 C 
BRANCH  14  15
ATOM     15  C   UNL     1     -13.393   9.654 128.757  0.00  0.00    +0.000 C 
BRANCH  15  16
ATOM     16  C   UNL     1     -13.201  10.168 130.165  0.00  0.00    +0.000 C 
ATOM     17  C   UNL     1     -13.622  11.623 130.241  0.00  0.00    +0.000 C 
ENDBRANCH  15  16
ENDBRANCH  14  15
ENDBRANCH  11  14
ENDBRANCH  10  11
ENDBRANCH   9  10
ENDBRANCH   7   9
ENDBRANCH   1   7
BRANCH   1  18
ATOM     18  C   UNL     1      -6.837   4.295 130.250  0.00  0.00    +0.000 C 
BRANCH  18  19
ATOM     19  C   UNL     1      -5.897   5.263 130.947  0.00  0.00    +0.000 C 
ATOM     20  O   UNL     1      -6.292   6.328 131.401  0.00  0.00    +0.000 OA
BRANCH  19  21
ATOM     21  O   UNL     1      -4.593   4.829 131.001  0.00  0.00    +0.000 OA
BRANCH  21  22
ATOM     22  C   UNL     1      -3.551   5.833 130.801  0.00  0.00    +0.000 C 
BRANCH  22  23
ATOM     23  C   UNL     1      -2.688   5.587 129.563  0.00  0.00    +0.000 C 
BRANCH  23  24
ATOM     24  C   UNL     1      -2.762   6.887 128.770  0.00  0.00    +0.000 C 
ATOM     25  C   UNL     1      -3.790   7.887 129.238  0.00  0.00    +0.000 C 
ENDBRANCH  23  24
BRANCH  23  26
ATOM     26  C   UNL     1      -3.219   4.308 128.839  0.00  0.00    +0.000 C 
BRANCH  26  27
ATOM     27  C   UNL     1      -2.384   3.912 127.636  0.00  0.00    +0.000 C 
BRANCH  27  29
ATOM     28  C   UNL     1      -4.087   3.790 125.877  0.00  0.00    +0.000 C 
ATOM     29  C   UNL     1      -3.038   2.983 126.638  0.00  0.00    +0.000 C 
ENDBRANCH  27  29
ENDBRANCH  26  27
ENDBRANCH  23  26
ENDBRANCH  22  23
ENDBRANCH  21  22
ENDBRANCH  19  21
ENDBRANCH  18  19
ENDBRANCH   1  18
TORSDOF 19
ENDMDL
