MODEL 1
REMARK VINA RESULT:      -6.2      0.000      0.000
REMARK  Name = Dofetilide
REMARK  14 active torsions:
REMARK  status: ('A' for Active; 'I' for Inactive)
REMARK    1  A    between atoms: C_1  and  N_2
REMARK    2  A    between atoms: N_2  and  C_3
REMARK    3  A    between atoms: N_2  and  C_17
REMARK    4  A    between atoms: C_3  and  C_4
REMARK    5  A    between atoms: C_4  and  O_5
REMARK    6  A    between atoms: O_5  and  C_6
REMARK    7  A    between atoms: C_9  and  N_10
REMARK    8  A    between atoms: N_10  and  S_11
REMARK    9  A    between atoms: S_11  and  C_12
REMARK   10  A    between atoms: C_17  and  C_18
REMARK   11  A    between atoms: C_18  and  C_19
REMARK   12  A    between atoms: C_22  and  N_23
REMARK   13  A    between atoms: N_23  and  S_24
REMARK   14  A    between atoms: S_24  and  C_25
REMARK                            x       y       z     vdW  Elec       q    Type
REMARK                         _______ _______ _______ _____ _____    ______ ____
ROOT
ATOM      1  C   UNL     1      -5.677  -2.287 133.349  0.00  0.00    +0.000 C 
ATOM      2  N   UNL     1      -5.992  -1.506 132.145  0.00  0.00    +0.000 NA
ENDROOT
BRANCH   2   3
ATOM      3  C   UNL     1      -4.946  -0.499 131.881  0.00  0.00    +0.000 C 
BRANCH   3   4
ATOM      4  C   UNL     1      -4.972   0.031 130.449  0.00  0.00    +0.000 C 
BRANCH   4   5
ATOM      5  O   UNL     1      -6.002   1.019 130.358  0.00  0.00    +0.000 OA
BRANCH   5   6
ATOM      6  C   UNL     1      -6.577   1.090 129.123  0.00  0.00    +0.000 A 
ATOM      7  C   UNL     1      -5.727   1.377 128.059  0.00  0.00    +0.000 A 
ATOM      8  C   UNL     1      -6.243   1.541 126.765  0.00  0.00    +0.000 A 
ATOM      9  C   UNL     1      -7.609   1.367 126.523  0.00  0.00    +0.000 A 
ATOM     10  C   UNL     1      -8.450   1.140 127.612  0.00  0.00    +0.000 A 
ATOM     11  C   UNL     1      -7.945   0.992 128.900  0.00  0.00    +0.000 A 
BRANCH   9  12
ATOM     12  N   UNL     1      -8.071   1.281 125.176  0.00  0.00    +0.000 N 
ATOM     13  H   UNL     1      -8.007   0.397 124.673  0.00  0.00    +0.000 HD
BRANCH  12  14
ATOM     14  S   UNL     1      -8.500   2.598 124.236  0.00  0.00    +0.000 S 
ATOM     15  C   UNL     1      -6.959   3.099 123.467  0.00  0.00    +0.000 C 
ATOM     16  O   UNL     1      -9.420   2.174 123.209  0.00  0.00    +0.000 OA
ATOM     17  O   UNL     1      -8.869   3.647 125.171  0.00  0.00    +0.000 OA
ENDBRANCH  12  14
ENDBRANCH   9  12
ENDBRANCH   5   6
ENDBRANCH   4   5
ENDBRANCH   3   4
ENDBRANCH   2   3
BRANCH   2  18
ATOM     18  C   UNL     1      -6.128  -2.425 131.001  0.00  0.00    +0.000 C 
BRANCH  18  19
ATOM     19  C   UNL     1      -7.590  -2.638 130.567  0.00  0.00    +0.000 C 
BRANCH  19  20
ATOM     20  C   UNL     1      -7.622  -2.913 129.092  0.00  0.00    +0.000 A 
ATOM     21  C   UNL     1      -6.684  -2.343 128.229  0.00  0.00    +0.000 A 
ATOM     22  C   UNL     1      -6.884  -2.400 126.846  0.00  0.00    +0.000 A 
ATOM     23  C   UNL     1      -7.977  -3.099 126.320  0.00  0.00    +0.000 A 
ATOM     24  C   UNL     1      -8.897  -3.665 127.199  0.00  0.00    +0.000 A 
ATOM     25  C   UNL     1      -8.716  -3.598 128.570  0.00  0.00    +0.000 A 
BRANCH  23  26
ATOM     26  N   UNL     1      -8.042  -3.323 124.915  0.00  0.00    +0.000 N 
ATOM     27  H   UNL     1      -7.374  -3.950 124.469  0.00  0.00    +0.000 HD
BRANCH  26  28
ATOM     28  S   UNL     1      -9.016  -2.455 123.870  0.00  0.00    +0.000 S 
ATOM     29  C   UNL     1      -7.886  -1.893 122.592  0.00  0.00    +0.000 C 
ATOM     30  O   UNL     1      -9.991  -3.339 123.278  0.00  0.00    +0.000 OA
ATOM     31  O   UNL     1      -9.439  -1.281 124.612  0.00  0.00    +0.000 OA
ENDBRANCH  26  28
ENDBRANCH  23  26
ENDBRANCH  19  20
ENDBRANCH  18  19
ENDBRANCH   2  18
TORSDOF 11
ENDMDL
MODEL 2
REMARK VINA RESULT:      -6.0      3.192      3.925
REMARK  Name = Dofetilide
REMARK  14 active torsions:
REMARK  status: ('A' for Active; 'I' for Inactive)
REMARK    1  A    between atoms: C_1  and  N_2
REMARK    2  A    between atoms: N_2  and  C_3
REMARK    3  A    between atoms: N_2  and  C_17
REMARK    4  A    between atoms: C_3  and  C_4
REMARK    5  A    between atoms: C_4  and  O_5
REMARK    6  A    between atoms: O_5  and  C_6
REMARK    7  A    between atoms: C_9  and  N_10
REMARK    8  A    between atoms: N_10  and  S_11
REMARK    9  A    between atoms: S_11  and  C_12
REMARK   10  A    between atoms: C_17  and  C_18
REMARK   11  A    between atoms: C_18  and  C_19
REMARK   12  A    between atoms: C_22  and  N_23
REMARK   13  A    between atoms: N_23  and  S_24
REMARK   14  A    between atoms: S_24  and  C_25
REMARK                            x       y       z     vdW  Elec       q    Type
REMARK                         _______ _______ _______ _____ _____    ______ ____
ROOT
ATOM      1  C   UNL     1      -4.324  -1.456 131.614  0.00  0.00    +0.000 C 
ATOM      2  N   UNL     1      -5.453  -2.374 131.813  0.00  0.00    +0.000 NA
ENDROOT
BRANCH   2   3
ATOM      3  C   UNL     1      -6.669  -1.637 132.205  0.00  0.00    +0.000 C 
BRANCH   3   4
ATOM      4  C   UNL     1      -6.606  -0.150 131.859  0.00  0.00    +0.000 C 
BRANCH   4   5
ATOM      5  O   UNL     1      -7.319   0.054 130.637  0.00  0.00    +0.000 OA
BRANCH   5   6
ATOM      6  C   UNL     1      -8.292   1.005 130.729  0.00  0.00    +0.000 A 
ATOM      7  C   UNL     1      -8.435   1.855 129.637  0.00  0.00    +0.000 A 
ATOM      8  C   UNL     1      -9.361   2.907 129.674  0.00  0.00    +0.000 A 
ATOM      9  C   UNL     1     -10.186   3.081 130.790  0.00  0.00    +0.000 A 
ATOM     10  C   UNL     1      -9.985   2.257 131.896  0.00  0.00    +0.000 A 
ATOM     11  C   UNL     1      -9.056   1.220 131.869  0.00  0.00    +0.000 A 
BRANCH   9  12
ATOM     12  N   UNL     1     -11.287   3.984 130.706  0.00  0.00    +0.000 N 
ATOM     13  H   UNL     1     -12.229   3.623 130.554  0.00  0.00    +0.000 HD
BRANCH  12  14
ATOM     14  S   UNL     1     -11.143   5.647 130.589  0.00  0.00    +0.000 S 
ATOM     15  C   UNL     1      -9.622   6.010 131.470  0.00  0.00    +0.000 C 
ATOM     16  O   UNL     1     -10.982   6.018 129.205  0.00  0.00    +0.000 OA
ATOM     17  O   UNL     1     -12.232   6.194 131.379  0.00  0.00    +0.000 OA
ENDBRANCH  12  14
ENDBRANCH   9  12
ENDBRANCH   5   6
ENDBRANCH   4   5
ENDBRANCH   3   4
ENDBRANCH   2   3
BRANCH   2  18
ATOM     18  C   UNL     1      -5.681  -3.128 130.568  0.00  0.00    +0.000 C 
BRANCH  18  19
ATOM     19  C   UNL     1      -7.162  -3.486 130.341  0.00  0.00    +0.000 C 
BRANCH  19  20
ATOM     20  C   UNL     1      -7.533  -3.137 128.928  0.00  0.00    +0.000 A 
ATOM     21  C   UNL     1      -8.685  -3.655 128.334  0.00  0.00    +0.000 A 
ATOM     22  C   UNL     1      -8.873  -3.532 126.953  0.00  0.00    +0.000 A 
ATOM     23  C   UNL     1      -7.953  -2.817 126.178  0.00  0.00    +0.000 A 
ATOM     24  C   UNL     1      -6.813  -2.303 126.793  0.00  0.00    +0.000 A 
ATOM     25  C   UNL     1      -6.611  -2.436 128.156  0.00  0.00    +0.000 A 
BRANCH  23  26
ATOM     26  N   UNL     1      -8.273  -2.523 124.822  0.00  0.00    +0.000 N 
ATOM     27  H   UNL     1      -7.970  -3.152 124.080  0.00  0.00    +0.000 HD
BRANCH  26  28
ATOM     28  S   UNL     1      -8.942  -1.079 124.307  0.00  0.00    +0.000 S 
ATOM     29  C   UNL     1      -7.518  -0.071 123.883  0.00  0.00    +0.000 C 
ATOM     30  O   UNL     1      -9.723  -1.312 123.117  0.00  0.00    +0.000 OA
ATOM     31  O   UNL     1      -9.550  -0.487 125.485  0.00  0.00    +0.000 OA
ENDBRANCH  26  28
ENDBRANCH  23  26
ENDBRANCH  19  20
ENDBRANCH  18  19
ENDBRANCH   2  18
TORSDOF 11
ENDMDL
MODEL 3
REMARK VINA RESULT:      -5.9      3.042      6.205
REMARK  Name = Dofetilide
REMARK  14 active torsions:
REMARK  status: ('A' for Active; 'I' for Inactive)
REMARK    1  A    between atoms: C_1  and  N_2
REMARK    2  A    between atoms: N_2  and  C_3
REMARK    3  A    between atoms: N_2  and  C_17
REMARK    4  A    between atoms: C_3  and  C_4
REMARK    5  A    between atoms: C_4  and  O_5
REMARK    6  A    between atoms: O_5  and  C_6
REMARK    7  A    between atoms: C_9  and  N_10
REMARK    8  A    between atoms: N_10  and  S_11
REMARK    9  A    between atoms: S_11  and  C_12
REMARK   10  A    between atoms: C_17  and  C_18
REMARK   11  A    between atoms: C_18  and  C_19
REMARK   12  A    between atoms: C_22  and  N_23
REMARK   13  A    between atoms: N_23  and  S_24
REMARK   14  A    between atoms: S_24  and  C_25
REMARK                            x       y       z     vdW  Elec       q    Type
REMARK                         _______ _______ _______ _____ _____    ______ ____
ROOT
ATOM      1  C   UNL     1      -9.615  -3.194 123.554  0.00  0.00    +0.000 C 
ATOM      2  N   UNL     1      -8.153  -3.145 123.422  0.00  0.00    +0.000 NA
ENDROOT
BRANCH   2   3
ATOM      3  C   UNL     1      -7.733  -1.969 122.635  0.00  0.00    +0.000 C 
BRANCH   3   4
ATOM      4  C   UNL     1      -6.632  -1.156 123.313  0.00  0.00    +0.000 C 
BRANCH   4   5
ATOM      5  O   UNL     1      -7.073   0.200 123.409  0.00  0.00    +0.000 OA
BRANCH   5   6
ATOM      6  C   UNL     1      -7.353   0.590 124.686  0.00  0.00    +0.000 A 
ATOM      7  C   UNL     1      -8.695   0.578 125.057  0.00  0.00    +0.000 A 
ATOM      8  C   UNL     1      -9.082   1.031 126.326  0.00  0.00    +0.000 A 
ATOM      9  C   UNL     1      -8.120   1.451 127.249  0.00  0.00    +0.000 A 
ATOM     10  C   UNL     1      -6.790   1.512 126.837  0.00  0.00    +0.000 A 
ATOM     11  C   UNL     1      -6.402   1.078 125.572  0.00  0.00    +0.000 A 
BRANCH   9  12
ATOM     12  N   UNL     1      -8.503   1.660 128.607  0.00  0.00    +0.000 N 
ATOM     13  H   UNL     1      -8.800   0.869 129.178  0.00  0.00    +0.000 HD
BRANCH  12  14
ATOM     14  S   UNL     1      -8.750   3.162 129.302  0.00  0.00    +0.000 S 
ATOM     15  C   UNL     1      -7.553   3.221 130.638  0.00  0.00    +0.000 C 
ATOM     16  O   UNL     1      -8.434   4.192 128.344  0.00  0.00    +0.000 OA
ATOM     17  O   UNL     1     -10.067   3.102 129.915  0.00  0.00    +0.000 OA
ENDBRANCH  12  14
ENDBRANCH   9  12
ENDBRANCH   5   6
ENDBRANCH   4   5
ENDBRANCH   3   4
ENDBRANCH   2   3
BRANCH   2  18
ATOM     18  C   UNL     1      -7.552  -3.111 124.767  0.00  0.00    +0.000 C 
BRANCH  18  19
ATOM     19  C   UNL     1      -8.598  -2.996 125.893  0.00  0.00    +0.000 C 
BRANCH  19  20
ATOM     20  C   UNL     1      -7.883  -2.791 127.197  0.00  0.00    +0.000 A 
ATOM     21  C   UNL     1      -6.600  -2.242 127.241  0.00  0.00    +0.000 A 
ATOM     22  C   UNL     1      -5.857  -2.300 128.425  0.00  0.00    +0.000 A 
ATOM     23  C   UNL     1      -6.427  -2.830 129.589  0.00  0.00    +0.000 A 
ATOM     24  C   UNL     1      -7.710  -3.366 129.524  0.00  0.00    +0.000 A 
ATOM     25  C   UNL     1      -8.446  -3.329 128.352  0.00  0.00    +0.000 A 
BRANCH  23  26
ATOM     26  N   UNL     1      -5.734  -2.683 130.824  0.00  0.00    +0.000 N 
ATOM     27  H   UNL     1      -5.680  -1.770 131.272  0.00  0.00    +0.000 HD
BRANCH  26  28
ATOM     28  S   UNL     1      -4.790  -3.877 131.519  0.00  0.00    +0.000 S 
ATOM     29  C   UNL     1      -4.995  -3.616 133.284  0.00  0.00    +0.000 C 
ATOM     30  O   UNL     1      -5.324  -5.171 131.171  0.00  0.00    +0.000 OA
ATOM     31  O   UNL     1      -3.419  -3.531 131.192  0.00  0.00    +0.000 OA
ENDBRANCH  26  28
ENDBRANCH  23  26
ENDBRANCH  19  20
ENDBRANCH  18  19
ENDBRANCH   2  18
TORSDOF 11
ENDMDL
MODEL 4
REMARK VINA RESULT:      -5.9      3.232      4.081
REMARK  Name = Dofetilide
REMARK  14 active torsions:
REMARK  status: ('A' for Active; 'I' for Inactive)
REMARK    1  A    between atoms: C_1  and  N_2
REMARK    2  A    between atoms: N_2  and  C_3
REMARK    3  A    between atoms: N_2  and  C_17
REMARK    4  A    between atoms: C_3  and  C_4
REMARK    5  A    between atoms: C_4  and  O_5
REMARK    6  A    between atoms: O_5  and  C_6
REMARK    7  A    between atoms: C_9  and  N_10
REMARK    8  A    between atoms: N_10  and  S_11
REMARK    9  A    between atoms: S_11  and  C_12
REMARK   10  A    between atoms: C_17  and  C_18
REMARK   11  A    between atoms: C_18  and  C_19
REMARK   12  A    between atoms: C_22  and  N_23
REMARK   13  A    between atoms: N_23  and  S_24
REMARK   14  A    between atoms: S_24  and  C_25
REMARK                            x       y       z     vdW  Elec       q    Type
REMARK                         _______ _______ _______ _____ _____    ______ ____
ROOT
ATOM      1  C   UNL     1      -4.350  -3.128 132.060  0.00  0.00    +0.000 C 
ATOM      2  N   UNL     1      -5.647  -2.552 132.442  0.00  0.00    +0.000 NA
ENDROOT
BRANCH   2   3
ATOM      3  C   UNL     1      -5.689  -1.107 132.146  0.00  0.00    +0.000 C 
BRANCH   3   4
ATOM      4  C   UNL     1      -7.111  -0.563 132.018  0.00  0.00    +0.000 C 
BRANCH   4   5
ATOM      5  O   UNL     1      -7.234   0.066 130.741  0.00  0.00    +0.000 OA
BRANCH   5   6
ATOM      6  C   UNL     1      -8.161   1.066 130.716  0.00  0.00    +0.000 A 
ATOM      7  C   UNL     1      -9.040   1.123 131.794  0.00  0.00    +0.000 A 
ATOM      8  C   UNL     1     -10.071   2.073 131.818  0.00  0.00    +0.000 A 
ATOM      9  C   UNL     1     -10.195   3.005 130.782  0.00  0.00    +0.000 A 
ATOM     10  C   UNL     1      -9.343   2.891 129.685  0.00  0.00    +0.000 A 
ATOM     11  C   UNL     1      -8.328   1.940 129.650  0.00  0.00    +0.000 A 
BRANCH   9  12
ATOM     12  N   UNL     1     -11.077   4.114 130.948  0.00  0.00    +0.000 N 
ATOM     13  H   UNL     1     -12.073   3.953 131.089  0.00  0.00    +0.000 HD
BRANCH  12  14
ATOM     14  S   UNL     1     -10.652   5.711 130.682  0.00  0.00    +0.000 S 
ATOM     15  C   UNL     1     -11.953   6.644 131.493  0.00  0.00    +0.000 C 
ATOM     16  O   UNL     1      -9.399   5.989 131.339  0.00  0.00    +0.000 OA
ATOM     17  O   UNL     1     -10.802   5.927 129.253  0.00  0.00    +0.000 OA
ENDBRANCH  12  14
ENDBRANCH   9  12
ENDBRANCH   5   6
ENDBRANCH   4   5
ENDBRANCH   3   4
ENDBRANCH   2   3
BRANCH   2  18
ATOM     18  C   UNL     1      -6.716  -3.262 131.719  0.00  0.00    +0.000 C 
BRANCH  18  19
ATOM     19  C   UNL     1      -6.227  -3.935 130.423  0.00  0.00    +0.000 C 
BRANCH  19  20
ATOM     20  C   UNL     1      -7.017  -3.394 129.267  0.00  0.00    +0.000 A 
ATOM     21  C   UNL     1      -8.252  -3.942 128.915  0.00  0.00    +0.000 A 
ATOM     22  C   UNL     1      -8.843  -3.603 127.694  0.00  0.00    +0.000 A 
ATOM     23  C   UNL     1      -8.243  -2.650 126.861  0.00  0.00    +0.000 A 
ATOM     24  C   UNL     1      -7.014  -2.111 127.235  0.00  0.00    +0.000 A 
ATOM     25  C   UNL     1      -6.414  -2.455 128.434  0.00  0.00    +0.000 A 
BRANCH  23  26
ATOM     26  N   UNL     1      -8.965  -2.166 125.734  0.00  0.00    +0.000 N 
ATOM     27  H   UNL     1      -9.842  -1.664 125.869  0.00  0.00    +0.000 HD
BRANCH  26  28
ATOM     28  S   UNL     1      -8.596  -2.546 124.148  0.00  0.00    +0.000 S 
ATOM     29  C   UNL     1      -7.719  -1.097 123.550  0.00  0.00    +0.000 C 
ATOM     30  O   UNL     1      -7.702  -3.679 124.123  0.00  0.00    +0.000 OA
ATOM     31  O   UNL     1      -9.868  -2.594 123.450  0.00  0.00    +0.000 OA
ENDBRANCH  26  28
ENDBRANCH  23  26
ENDBRANCH  19  20
ENDBRANCH  18  19
ENDBRANCH   2  18
TORSDOF 11
ENDMDL
MODEL 5
REMARK VINA RESULT:      -5.9      3.025      7.707
REMARK  Name = Dofetilide
REMARK  14 active torsions:
REMARK  status: ('A' for Active; 'I' for Inactive)
REMARK    1  A    between atoms: C_1  and  N_2
REMARK    2  A    between atoms: N_2  and  C_3
REMARK    3  A    between atoms: N_2  and  C_17
REMARK    4  A    between atoms: C_3  and  C_4
REMARK    5  A    between atoms: C_4  and  O_5
REMARK    6  A    between atoms: O_5  and  C_6
REMARK    7  A    between atoms: C_9  and  N_10
REMARK    8  A    between atoms: N_10  and  S_11
REMARK    9  A    between atoms: S_11  and  C_12
REMARK   10  A    between atoms: C_17  and  C_18
REMARK   11  A    between atoms: C_18  and  C_19
REMARK   12  A    between atoms: C_22  and  N_23
REMARK   13  A    between atoms: N_23  and  S_24
REMARK   14  A    between atoms: S_24  and  C_25
REMARK                            x       y       z     vdW  Elec       q    Type
REMARK                         _______ _______ _______ _____ _____    ______ ____
ROOT
ATOM      1  C   UNL     1      -6.714  -2.250 123.143  0.00  0.00    +0.000 C 
ATOM      2  N   UNL     1      -8.090  -1.865 122.798  0.00  0.00    +0.000 NA
ENDROOT
BRANCH   2   3
ATOM      3  C   UNL     1      -9.060  -2.839 123.334  0.00  0.00    +0.000 C 
BRANCH   3   4
ATOM      4  C   UNL     1      -8.507  -3.654 124.502  0.00  0.00    +0.000 C 
BRANCH   4   5
ATOM      5  O   UNL     1      -9.214  -3.274 125.685  0.00  0.00    +0.000 OA
BRANCH   5   6
ATOM      6  C   UNL     1      -8.403  -3.090 126.766  0.00  0.00    +0.000 A 
ATOM      7  C   UNL     1      -8.794  -3.710 127.949  0.00  0.00    +0.000 A 
ATOM      8  C   UNL     1      -8.060  -3.516 129.127  0.00  0.00    +0.000 A 
ATOM      9  C   UNL     1      -6.898  -2.738 129.114  0.00  0.00    +0.000 A 
ATOM     10  C   UNL     1      -6.558  -2.077 127.934  0.00  0.00    +0.000 A 
ATOM     11  C   UNL     1      -7.293  -2.254 126.765  0.00  0.00    +0.000 A 
BRANCH   9  12
ATOM     12  N   UNL     1      -6.031  -2.764 130.247  0.00  0.00    +0.000 N 
ATOM     13  H   UNL     1      -5.981  -1.955 130.865  0.00  0.00    +0.000 HD
BRANCH  12  14
ATOM     14  S   UNL     1      -4.875  -3.939 130.529  0.00  0.00    +0.000 S 
ATOM     15  C   UNL     1      -3.978  -3.327 131.957  0.00  0.00    +0.000 C 
ATOM     16  O   UNL     1      -5.525  -5.178 130.880  0.00  0.00    +0.000 OA
ATOM     17  O   UNL     1      -3.965  -3.878 129.398  0.00  0.00    +0.000 OA
ENDBRANCH  12  14
ENDBRANCH   9  12
ENDBRANCH   5   6
ENDBRANCH   4   5
ENDBRANCH   3   4
ENDBRANCH   2   3
BRANCH   2  18
ATOM     18  C   UNL     1      -8.357  -0.518 123.333  0.00  0.00    +0.000 C 
BRANCH  18  19
ATOM     19  C   UNL     1      -7.074   0.257 123.689  0.00  0.00    +0.000 C 
BRANCH  19  20
ATOM     20  C   UNL     1      -7.310   1.028 124.955  0.00  0.00    +0.000 A 
ATOM     21  C   UNL     1      -6.268   1.699 125.599  0.00  0.00    +0.000 A 
ATOM     22  C   UNL     1      -6.450   2.185 126.897  0.00  0.00    +0.000 A 
ATOM     23  C   UNL     1      -7.698   2.078 127.522  0.00  0.00    +0.000 A 
ATOM     24  C   UNL     1      -8.725   1.411 126.859  0.00  0.00    +0.000 A 
ATOM     25  C   UNL     1      -8.549   0.910 125.580  0.00  0.00    +0.000 A 
BRANCH  23  26
ATOM     26  N   UNL     1      -7.918   2.767 128.749  0.00  0.00    +0.000 N 
ATOM     27  H   UNL     1      -8.197   2.248 129.580  0.00  0.00    +0.000 HD
BRANCH  26  28
ATOM     28  S   UNL     1      -7.965   4.432 128.896  0.00  0.00    +0.000 S 
ATOM     29  C   UNL     1      -9.094   4.713 130.264  0.00  0.00    +0.000 C 
ATOM     30  O   UNL     1      -6.656   4.917 129.261  0.00  0.00    +0.000 OA
ATOM     31  O   UNL     1      -8.622   4.913 127.694  0.00  0.00    +0.000 OA
ENDBRANCH  26  28
ENDBRANCH  23  26
ENDBRANCH  19  20
ENDBRANCH  18  19
ENDBRANCH   2  18
TORSDOF 11
ENDMDL
MODEL 6
REMARK VINA RESULT:      -5.9      3.594      4.504
REMARK  Name = Dofetilide
REMARK  14 active torsions:
REMARK  status: ('A' for Active; 'I' for Inactive)
REMARK    1  A    between atoms: C_1  and  N_2
REMARK    2  A    between atoms: N_2  and  C_3
REMARK    3  A    between atoms: N_2  and  C_17
REMARK    4  A    between atoms: C_3  and  C_4
REMARK    5  A    between atoms: C_4  and  O_5
REMARK    6  A    between atoms: O_5  and  C_6
REMARK    7  A    between atoms: C_9  and  N_10
REMARK    8  A    between atoms: N_10  and  S_11
REMARK    9  A    between atoms: S_11  and  C_12
REMARK   10  A    between atoms: C_17  and  C_18
REMARK   11  A    between atoms: C_18  and  C_19
REMARK   12  A    between atoms: C_22  and  N_23
REMARK   13  A    between atoms: N_23  and  S_24
REMARK   14  A    between atoms: S_24  and  C_25
REMARK                            x       y       z     vdW  Elec       q    Type
REMARK                         _______ _______ _______ _____ _____    ______ ____
ROOT
ATOM      1  C   UNL     1      -6.154  -3.929 130.313  0.00  0.00    +0.000 C 
ATOM      2  N   UNL     1      -6.752  -2.692 130.831  0.00  0.00    +0.000 NA
ENDROOT
BRANCH   2   3
ATOM      3  C   UNL     1      -5.748  -1.614 130.909  0.00  0.00    +0.000 C 
BRANCH   3   4
ATOM      4  C   UNL     1      -6.349  -0.221 130.724  0.00  0.00    +0.000 C 
BRANCH   4   5
ATOM      5  O   UNL     1      -6.685   0.295 132.014  0.00  0.00    +0.000 OA
BRANCH   5   6
ATOM      6  C   UNL     1      -7.539   1.358 131.967  0.00  0.00    +0.000 A 
ATOM      7  C   UNL     1      -8.898   1.063 132.019  0.00  0.00    +0.000 A 
ATOM      8  C   UNL     1      -9.849   2.087 131.904  0.00  0.00    +0.000 A 
ATOM      9  C   UNL     1      -9.440   3.420 131.786  0.00  0.00    +0.000 A 
ATOM     10  C   UNL     1      -8.077   3.685 131.675  0.00  0.00    +0.000 A 
ATOM     11  C   UNL     1      -7.129   2.671 131.773  0.00  0.00    +0.000 A 
BRANCH   9  12
ATOM     12  N   UNL     1     -10.407   4.458 131.930  0.00  0.00    +0.000 N 
ATOM     13  H   UNL     1     -11.239   4.302 132.499  0.00  0.00    +0.000 HD
BRANCH  12  14
ATOM     14  S   UNL     1     -10.425   5.869 131.030  0.00  0.00    +0.000 S 
ATOM     15  C   UNL     1     -12.041   6.573 131.363  0.00  0.00    +0.000 C 
ATOM     16  O   UNL     1      -9.411   6.767 131.526  0.00  0.00    +0.000 OA
ATOM     17  O   UNL     1     -10.423   5.449 129.639  0.00  0.00    +0.000 OA
ENDBRANCH  12  14
ENDBRANCH   9  12
ENDBRANCH   5   6
ENDBRANCH   4   5
ENDBRANCH   3   4
ENDBRANCH   2   3
BRANCH   2  18
ATOM     18  C   UNL     1      -7.869  -2.298 129.955  0.00  0.00    +0.000 C 
BRANCH  18  19
ATOM     19  C   UNL     1      -8.259  -3.393 128.943  0.00  0.00    +0.000 C 
BRANCH  19  20
ATOM     20  C   UNL     1      -8.314  -2.786 127.571  0.00  0.00    +0.000 A 
ATOM     21  C   UNL     1      -7.766  -1.528 127.313  0.00  0.00    +0.000 A 
ATOM     22  C   UNL     1      -8.054  -0.875 126.110  0.00  0.00    +0.000 A 
ATOM     23  C   UNL     1      -8.821  -1.512 125.128  0.00  0.00    +0.000 A 
ATOM     24  C   UNL     1      -9.354  -2.769 125.404  0.00  0.00    +0.000 A 
ATOM     25  C   UNL     1      -9.088  -3.416 126.599  0.00  0.00    +0.000 A 
BRANCH  23  26
ATOM     26  N   UNL     1      -8.921  -0.920 123.838  0.00  0.00    +0.000 N 
ATOM     27  H   UNL     1      -8.342  -1.264 123.074  0.00  0.00    +0.000 HD
BRANCH  26  28
ATOM     28  S   UNL     1      -9.781   0.477 123.509  0.00  0.00    +0.000 S 
ATOM     29  C   UNL     1      -8.508   1.710 123.220  0.00  0.00    +0.000 C 
ATOM     30  O   UNL     1     -10.543   0.296 122.298  0.00  0.00    +0.000 OA
ATOM     31  O   UNL     1     -10.443   0.830 124.752  0.00  0.00    +0.000 OA
ENDBRANCH  26  28
ENDBRANCH  23  26
ENDBRANCH  19  20
ENDBRANCH  18  19
ENDBRANCH   2  18
TORSDOF 11
ENDMDL
MODEL 7
REMARK VINA RESULT:      -5.9      3.784      4.500
REMARK  Name = Dofetilide
REMARK  14 active torsions:
REMARK  status: ('A' for Active; 'I' for Inactive)
REMARK    1  A    between atoms: C_1  and  N_2
REMARK    2  A    between atoms: N_2  and  C_3
REMARK    3  A    between atoms: N_2  and  C_17
REMARK    4  A    between atoms: C_3  and  C_4
REMARK    5  A    between atoms: C_4  and  O_5
REMARK    6  A    between atoms: O_5  and  C_6
REMARK    7  A    between atoms: C_9  and  N_10
REMARK    8  A    between atoms: N_10  and  S_11
REMARK    9  A    between atoms: S_11  and  C_12
REMARK   10  A    between atoms: C_17  and  C_18
REMARK   11  A    between atoms: C_18  and  C_19
REMARK   12  A    between atoms: C_22  and  N_23
REMARK   13  A    between atoms: N_23  and  S_24
REMARK   14  A    between atoms: S_24  and  C_25
REMARK                            x       y       z     vdW  Elec       q    Type
REMARK                         _______ _______ _______ _____ _____    ______ ____
ROOT
ATOM      1  C   UNL     1      -7.344  -1.918 133.617  0.00  0.00    +0.000 C 
ATOM      2  N   UNL     1      -7.835  -1.518 132.291  0.00  0.00    +0.000 NA
ENDROOT
BRANCH   2   3
ATOM      3  C   UNL     1      -7.976  -0.052 132.201  0.00  0.00    +0.000 C 
BRANCH   3   4
ATOM      4  C   UNL     1      -6.851   0.702 132.908  0.00  0.00    +0.000 C 
BRANCH   4   5
ATOM      5  O   UNL     1      -7.441   1.684 133.763  0.00  0.00    +0.000 OA
BRANCH   5   6
ATOM      6  C   UNL     1      -7.761   2.842 133.117  0.00  0.00    +0.000 A 
ATOM      7  C   UNL     1      -9.027   3.364 133.369  0.00  0.00    +0.000 A 
ATOM      8  C   UNL     1      -9.468   4.511 132.693  0.00  0.00    +0.000 A 
ATOM      9  C   UNL     1      -8.620   5.171 131.798  0.00  0.00    +0.000 A 
ATOM     10  C   UNL     1      -7.381   4.599 131.515  0.00  0.00    +0.000 A 
ATOM     11  C   UNL     1      -6.945   3.451 132.172  0.00  0.00    +0.000 A 
BRANCH   9  12
ATOM     12  N   UNL     1      -8.985   6.466 131.322  0.00  0.00    +0.000 N 
ATOM     13  H   UNL     1      -8.801   7.287 131.897  0.00  0.00    +0.000 HD
BRANCH  12  14
ATOM     14  S   UNL     1      -9.933   6.748 129.973  0.00  0.00    +0.000 S 
ATOM     15  C   UNL     1     -11.582   6.976 130.644  0.00  0.00    +0.000 C 
ATOM     16  O   UNL     1      -9.513   7.972 129.338  0.00  0.00    +0.000 OA
ATOM     17  O   UNL     1      -9.946   5.498 129.232  0.00  0.00    +0.000 OA
ENDBRANCH  12  14
ENDBRANCH   9  12
ENDBRANCH   5   6
ENDBRANCH   4   5
ENDBRANCH   3   4
ENDBRANCH   2   3
BRANCH   2  18
ATOM     18  C   UNL     1      -6.902  -2.014 131.266  0.00  0.00    +0.000 C 
BRANCH  18  19
ATOM     19  C   UNL     1      -7.399  -3.292 130.563  0.00  0.00    +0.000 C 
BRANCH  19  20
ATOM     20  C   UNL     1      -7.946  -2.921 129.215  0.00  0.00    +0.000 A 
ATOM     21  C   UNL     1      -8.729  -3.814 128.481  0.00  0.00    +0.000 A 
ATOM     22  C   UNL     1      -9.007  -3.554 127.135  0.00  0.00    +0.000 A 
ATOM     23  C   UNL     1      -8.576  -2.360 126.544  0.00  0.00    +0.000 A 
ATOM     24  C   UNL     1      -7.802  -1.480 127.297  0.00  0.00    +0.000 A 
ATOM     25  C   UNL     1      -7.507  -1.739 128.625  0.00  0.00    +0.000 A 
BRANCH  23  26
ATOM     26  N   UNL     1      -9.051  -2.022 125.246  0.00  0.00    +0.000 N 
ATOM     27  H   UNL     1      -9.745  -1.284 125.134  0.00  0.00    +0.000 HD
BRANCH  26  28
ATOM     28  S   UNL     1      -8.716  -2.903 123.864  0.00  0.00    +0.000 S 
ATOM     29  C   UNL     1      -8.282  -1.654 122.650  0.00  0.00    +0.000 C 
ATOM     30  O   UNL     1      -7.570  -3.746 124.101  0.00  0.00    +0.000 OA
ATOM     31  O   UNL     1      -9.983  -3.479 123.450  0.00  0.00    +0.000 OA
ENDBRANCH  26  28
ENDBRANCH  23  26
ENDBRANCH  19  20
ENDBRANCH  18  19
ENDBRANCH   2  18
TORSDOF 11
ENDMDL
MODEL 8
REMARK VINA RESULT:      -5.9      2.610      6.034
REMARK  Name = Dofetilide
REMARK  14 active torsions:
REMARK  status: ('A' for Active; 'I' for Inactive)
REMARK    1  A    between atoms: C_1  and  N_2
REMARK    2  A    between atoms: N_2  and  C_3
REMARK    3  A    between atoms: N_2  and  C_17
REMARK    4  A    between atoms: C_3  and  C_4
REMARK    5  A    between atoms: C_4  and  O_5
REMARK    6  A    between atoms: O_5  and  C_6
REMARK    7  A    between atoms: C_9  and  N_10
REMARK    8  A    between atoms: N_10  and  S_11
REMARK    9  A    between atoms: S_11  and  C_12
REMARK   10  A    between atoms: C_17  and  C_18
REMARK   11  A    between atoms: C_18  and  C_19
REMARK   12  A    between atoms: C_22  and  N_23
REMARK   13  A    between atoms: N_23  and  S_24
REMARK   14  A    between atoms: S_24  and  C_25
REMARK                            x       y       z     vdW  Elec       q    Type
REMARK                         _______ _______ _______ _____ _____    ______ ____
ROOT
ATOM      1  C   UNL     1      -9.627  -3.243 123.619  0.00  0.00    +0.000 C 
ATOM      2  N   UNL     1      -8.166  -3.152 123.496  0.00  0.00    +0.000 NA
ENDROOT
BRANCH   2   3
ATOM      3  C   UNL     1      -7.779  -1.998 122.661  0.00  0.00    +0.000 C 
BRANCH   3   4
ATOM      4  C   UNL     1      -6.798  -1.057 123.359  0.00  0.00    +0.000 C 
BRANCH   4   5
ATOM      5  O   UNL     1      -7.368   0.254 123.365  0.00  0.00    +0.000 OA
BRANCH   5   6
ATOM      6  C   UNL     1      -7.644   0.719 124.618  0.00  0.00    +0.000 A 
ATOM      7  C   UNL     1      -6.587   1.304 125.309  0.00  0.00    +0.000 A 
ATOM      8  C   UNL     1      -6.760   1.743 126.629  0.00  0.00    +0.000 A 
ATOM      9  C   UNL     1      -8.011   1.644 127.247  0.00  0.00    +0.000 A 
ATOM     10  C   UNL     1      -9.039   1.000 126.559  0.00  0.00    +0.000 A 
ATOM     11  C   UNL     1      -8.867   0.548 125.254  0.00  0.00    +0.000 A 
BRANCH   9  12
ATOM     12  N   UNL     1      -8.233   2.324 128.481  0.00  0.00    +0.000 N 
ATOM     13  H   UNL     1      -8.549   1.803 129.298  0.00  0.00    +0.000 HD
BRANCH  12  14
ATOM     14  S   UNL     1      -8.255   3.988 128.656  0.00  0.00    +0.000 S 
ATOM     15  C   UNL     1      -6.706   4.355 129.484  0.00  0.00    +0.000 C 
ATOM     16  O   UNL     1      -8.248   4.607 127.353  0.00  0.00    +0.000 OA
ATOM     17  O   UNL     1      -9.320   4.271 129.603  0.00  0.00    +0.000 OA
ENDBRANCH  12  14
ENDBRANCH   9  12
ENDBRANCH   5   6
ENDBRANCH   4   5
ENDBRANCH   3   4
ENDBRANCH   2   3
BRANCH   2  18
ATOM     18  C   UNL     1      -7.579  -3.039 124.842  0.00  0.00    +0.000 C 
BRANCH  18  19
ATOM     19  C   UNL     1      -8.595  -3.304 125.969  0.00  0.00    +0.000 C 
BRANCH  19  20
ATOM     20  C   UNL     1      -7.966  -2.941 127.283  0.00  0.00    +0.000 A 
ATOM     21  C   UNL     1      -8.514  -3.375 128.492  0.00  0.00    +0.000 A 
ATOM     22  C   UNL     1      -8.074  -2.817 129.696  0.00  0.00    +0.000 A 
ATOM     23  C   UNL     1      -7.027  -1.888 129.702  0.00  0.00    +0.000 A 
ATOM     24  C   UNL     1      -6.491  -1.474 128.485  0.00  0.00    +0.000 A 
ATOM     25  C   UNL     1      -6.933  -2.007 127.286  0.00  0.00    +0.000 A 
BRANCH  23  26
ATOM     26  N   UNL     1      -6.455  -1.499 130.947  0.00  0.00    +0.000 N 
ATOM     27  H   UNL     1      -5.739  -2.078 131.380  0.00  0.00    +0.000 HD
BRANCH  26  28
ATOM     28  S   UNL     1      -7.029  -0.244 131.892  0.00  0.00    +0.000 S 
ATOM     29  C   UNL     1      -5.581   0.312 132.797  0.00  0.00    +0.000 C 
ATOM     30  O   UNL     1      -7.489   0.826 131.040  0.00  0.00    +0.000 OA
ATOM     31  O   UNL     1      -7.926  -0.857 132.855  0.00  0.00    +0.000 OA
ENDBRANCH  26  28
ENDBRANCH  23  26
ENDBRANCH  19  20
ENDBRANCH  18  19
ENDBRANCH   2  18
TORSDOF 11
ENDMDL
MODEL 9
REMARK VINA RESULT:      -5.8      4.265      4.832
REMARK  Name = Dofetilide
REMARK  14 active torsions:
REMARK  status: ('A' for Active; 'I' for Inactive)
REMARK    1  A    between atoms: C_1  and  N_2
REMARK    2  A    between atoms: N_2  and  C_3
REMARK    3  A    between atoms: N_2  and  C_17
REMARK    4  A    between atoms: C_3  and  C_4
REMARK    5  A    between atoms: C_4  and  O_5
REMARK    6  A    between atoms: O_5  and  C_6
REMARK    7  A    between atoms: C_9  and  N_10
REMARK    8  A    between atoms: N_10  and  S_11
REMARK    9  A    between atoms: S_11  and  C_12
REMARK   10  A    between atoms: C_17  and  C_18
REMARK   11  A    between atoms: C_18  and  C_19
REMARK   12  A    between atoms: C_22  and  N_23
REMARK   13  A    between atoms: N_23  and  S_24
REMARK   14  A    between atoms: S_24  and  C_25
REMARK                            x       y       z     vdW  Elec       q    Type
REMARK                         _______ _______ _______ _____ _____    ______ ____
ROOT
ATOM      1  C   UNL     1      -6.077  -0.132 133.010  0.00  0.00    +0.000 C 
ATOM      2  N   UNL     1      -6.900  -0.121 131.794  0.00  0.00    +0.000 NA
ENDROOT
BRANCH   2   3
ATOM      3  C   UNL     1      -7.160   1.260 131.346  0.00  0.00    +0.000 C 
BRANCH   3   4
ATOM      4  C   UNL     1      -8.510   1.799 131.818  0.00  0.00    +0.000 C 
BRANCH   4   5
ATOM      5  O   UNL     1      -8.328   3.156 132.231  0.00  0.00    +0.000 OA
BRANCH   5   6
ATOM      6  C   UNL     1      -9.308   3.993 131.785  0.00  0.00    +0.000 A 
ATOM      7  C   UNL     1      -9.486   5.175 132.498  0.00  0.00    +0.000 A 
ATOM      8  C   UNL     1     -10.517   6.061 132.155  0.00  0.00    +0.000 A 
ATOM      9  C   UNL     1     -11.345   5.789 131.061  0.00  0.00    +0.000 A 
ATOM     10  C   UNL     1     -11.189   4.573 130.399  0.00  0.00    +0.000 A 
ATOM     11  C   UNL     1     -10.177   3.683 130.746  0.00  0.00    +0.000 A 
BRANCH   9  12
ATOM     12  N   UNL     1     -12.210   6.814 130.573  0.00  0.00    +0.000 N 
ATOM     13  H   UNL     1     -13.203   6.793 130.805  0.00  0.00    +0.000 HD
BRANCH  12  14
ATOM     14  S   UNL     1     -11.780   7.949 129.421  0.00  0.00    +0.000 S 
ATOM     15  C   UNL     1     -12.371   7.245 127.880  0.00  0.00    +0.000 C 
ATOM     16  O   UNL     1     -12.486   9.181 129.674  0.00  0.00    +0.000 OA
ATOM     17  O   UNL     1     -10.328   7.927 129.368  0.00  0.00    +0.000 OA
ENDBRANCH  12  14
ENDBRANCH   9  12
ENDBRANCH   5   6
ENDBRANCH   4   5
ENDBRANCH   3   4
ENDBRANCH   2   3
BRANCH   2  18
ATOM     18  C   UNL     1      -6.209  -0.887 130.742  0.00  0.00    +0.000 C 
BRANCH  18  19
ATOM     19  C   UNL     1      -6.722  -2.334 130.611  0.00  0.00    +0.000 C 
BRANCH  19  20
ATOM     20  C   UNL     1      -7.573  -2.435 129.379  0.00  0.00    +0.000 A 
ATOM     21  C   UNL     1      -8.346  -3.570 129.125  0.00  0.00    +0.000 A 
ATOM     22  C   UNL     1      -8.919  -3.755 127.862  0.00  0.00    +0.000 A 
ATOM     23  C   UNL     1      -8.793  -2.766 126.880  0.00  0.00    +0.000 A 
ATOM     24  C   UNL     1      -8.023  -1.639 127.157  0.00  0.00    +0.000 A 
ATOM     25  C   UNL     1      -7.437  -1.457 128.398  0.00  0.00    +0.000 A 
BRANCH  23  26
ATOM     26  N   UNL     1      -9.560  -2.878 125.685  0.00  0.00    +0.000 N 
ATOM     27  H   UNL     1     -10.568  -3.013 125.738  0.00  0.00    +0.000 HD
BRANCH  26  28
ATOM     28  S   UNL     1      -8.899  -3.023 124.155  0.00  0.00    +0.000 S 
ATOM     29  C   UNL     1      -8.583  -1.326 123.659  0.00  0.00    +0.000 C 
ATOM     30  O   UNL     1      -7.643  -3.728 124.242  0.00  0.00    +0.000 OA
ATOM     31  O   UNL     1      -9.970  -3.523 123.312  0.00  0.00    +0.000 OA
ENDBRANCH  26  28
ENDBRANCH  23  26
ENDBRANCH  19  20
ENDBRANCH  18  19
ENDBRANCH   2  18
TORSDOF 11
ENDMDL
