MODEL 1
REMARK VINA RESULT:      -8.6      0.000      0.000
REMARK  Name = Dolasetron
REMARK  3 active torsions:
REMARK  status: ('A' for Active; 'I' for Inactive)
REMARK    1  A    between atoms: C_2  and  O_17
REMARK    2  A    between atoms: O_17  and  C_18
REMARK    3  A    between atoms: C_18  and  C_20
REMARK                            x       y       z     vdW  Elec       q    Type
REMARK                         _______ _______ _______ _____ _____    ______ ____
ROOT
ATOM      1  O   UNL     1      -9.698   0.194 125.098  0.00  0.00    +0.000 OA
ENDROOT
BRANCH   1   2
ATOM      2  C   UNL     1      -8.687  -0.801 124.782  0.00  0.00    +0.000 C 
ATOM      3  C   UNL     1      -8.633  -1.936 125.766  0.00  0.00    +0.000 C 
ATOM      4  C   UNL     1      -7.626  -3.061 125.383  0.00  0.00    +0.000 C 
ATOM      5  C   UNL     1      -6.362  -2.500 125.682  0.00  0.00    +0.000 C 
ATOM      6  C   UNL     1      -5.896  -1.779 123.873  0.00  0.00    +0.000 C 
ATOM      7  C   UNL     1      -6.645  -1.866 122.565  0.00  0.00    +0.000 C 
ATOM      8  C   UNL     1      -7.808  -2.540 123.076  0.00  0.00    +0.000 C 
ATOM      9  C   UNL     1      -8.883  -1.405 123.409  0.00  0.00    +0.000 C 
ATOM     10  N   UNL     1      -6.825  -3.367 124.183  0.00  0.00    +0.000 NA
ATOM     11  C   UNL     1      -4.911  -2.547 124.305  0.00  0.00    +0.000 C 
ATOM     12  C   UNL     1      -5.052  -3.583 123.444  0.00  0.00    +0.000 C 
ATOM     13  O   UNL     1      -4.403  -4.441 124.116  0.00  0.00    +0.000 OA
ENDBRANCH   1   2
BRANCH   1  14
ATOM     14  C   UNL     1     -10.073   1.225 124.248  0.00  0.00    +0.000 C 
ATOM     15  O   UNL     1     -11.257   1.404 123.978  0.00  0.00    +0.000 OA
BRANCH  14  16
ATOM     16  C   UNL     1      -9.034   2.098 123.687  0.00  0.00    +0.000 A 
ATOM     17  C   UNL     1      -8.999   2.586 122.391  0.00  0.00    +0.000 A 
ATOM     18  N   UNL     1      -7.905   3.410 122.260  0.00  0.00    +0.000 N 
ATOM     19  C   UNL     1      -7.167   3.409 123.423  0.00  0.00    +0.000 A 
ATOM     20  C   UNL     1      -7.818   2.543 124.295  0.00  0.00    +0.000 A 
ATOM     21  C   UNL     1      -7.230   2.307 125.551  0.00  0.00    +0.000 A 
ATOM     22  C   UNL     1      -6.081   2.977 125.948  0.00  0.00    +0.000 A 
ATOM     23  C   UNL     1      -5.452   3.831 125.062  0.00  0.00    +0.000 A 
ATOM     24  C   UNL     1      -5.972   4.055 123.778  0.00  0.00    +0.000 A 
ATOM     25  H   UNL     1      -7.651   3.913 121.420  0.00  0.00    +0.000 HD
ENDBRANCH  14  16
ENDBRANCH   1  14
TORSDOF 3
ENDMDL
MODEL 2
REMARK VINA RESULT:      -8.4      1.514      2.138
REMARK  Name = Dolasetron
REMARK  3 active torsions:
REMARK  status: ('A' for Active; 'I' for Inactive)
REMARK    1  A    between atoms: C_2  and  O_17
REMARK    2  A    between atoms: O_17  and  C_18
REMARK    3  A    between atoms: C_18  and  C_20
REMARK                            x       y       z     vdW  Elec       q    Type
REMARK                         _______ _______ _______ _____ _____    ______ ____
ROOT
ATOM      1  O   UNL     1      -8.956   1.254 125.488  0.00  0.00    +0.000 OA
ENDROOT
BRANCH   1   2
ATOM      2  C   UNL     1      -8.154   0.062 125.270  0.00  0.00    +0.000 C 
ATOM      3  C   UNL     1      -7.018  -0.084 126.243  0.00  0.00    +0.000 C 
ATOM      4  C   UNL     1      -6.215  -1.409 126.086  0.00  0.00    +0.000 C 
ATOM      5  C   UNL     1      -5.433  -1.196 124.925  0.00  0.00    +0.000 C 
ATOM      6  C   UNL     1      -6.643  -2.034 123.567  0.00  0.00    +0.000 C 
ATOM      7  C   UNL     1      -7.967  -2.740 123.742  0.00  0.00    +0.000 C 
ATOM      8  C   UNL     1      -8.092  -2.524 125.159  0.00  0.00    +0.000 C 
ATOM      9  C   UNL     1      -8.976  -1.206 125.343  0.00  0.00    +0.000 C 
ATOM     10  N   UNL     1      -6.407  -2.650 125.312  0.00  0.00    +0.000 NA
ATOM     11  C   UNL     1      -5.438  -2.567 123.467  0.00  0.00    +0.000 C 
ATOM     12  C   UNL     1      -5.713  -3.810 123.930  0.00  0.00    +0.000 C 
ATOM     13  O   UNL     1      -4.521  -4.146 124.205  0.00  0.00    +0.000 OA
ENDBRANCH   1   2
BRANCH   1  14
ATOM     14  C   UNL     1      -8.593   2.529 125.075  0.00  0.00    +0.000 C 
ATOM     15  O   UNL     1      -8.443   3.426 125.900  0.00  0.00    +0.000 OA
BRANCH  14  16
ATOM     16  C   UNL     1      -8.386   2.781 123.644  0.00  0.00    +0.000 A 
ATOM     17  C   UNL     1      -9.273   2.461 122.628  0.00  0.00    +0.000 A 
ATOM     18  N   UNL     1      -8.753   2.902 121.434  0.00  0.00    +0.000 N 
ATOM     19  C   UNL     1      -7.498   3.434 121.629  0.00  0.00    +0.000 A 
ATOM     20  C   UNL     1      -7.227   3.302 122.987  0.00  0.00    +0.000 A 
ATOM     21  C   UNL     1      -5.965   3.714 123.451  0.00  0.00    +0.000 A 
ATOM     22  C   UNL     1      -5.044   4.314 122.602  0.00  0.00    +0.000 A 
ATOM     23  C   UNL     1      -5.336   4.432 121.257  0.00  0.00    +0.000 A 
ATOM     24  C   UNL     1      -6.561   3.984 120.739  0.00  0.00    +0.000 A 
ATOM     25  H   UNL     1      -9.204   2.813 120.533  0.00  0.00    +0.000 HD
ENDBRANCH  14  16
ENDBRANCH   1  14
TORSDOF 3
ENDMDL
MODEL 3
REMARK VINA RESULT:      -8.3      1.327      2.268
REMARK  Name = Dolasetron
REMARK  3 active torsions:
REMARK  status: ('A' for Active; 'I' for Inactive)
REMARK    1  A    between atoms: C_2  and  O_17
REMARK    2  A    between atoms: O_17  and  C_18
REMARK    3  A    between atoms: C_18  and  C_20
REMARK                            x       y       z     vdW  Elec       q    Type
REMARK                         _______ _______ _______ _____ _____    ______ ____
ROOT
ATOM      1  O   UNL     1      -9.007   0.941 125.107  0.00  0.00    +0.000 OA
ENDROOT
BRANCH   1   2
ATOM      2  C   UNL     1      -8.257  -0.253 124.755  0.00  0.00    +0.000 C 
ATOM      3  C   UNL     1      -8.591  -1.445 125.607  0.00  0.00    +0.000 C 
ATOM      4  C   UNL     1      -7.872  -2.757 125.172  0.00  0.00    +0.000 C 
ATOM      5  C   UNL     1      -6.542  -2.579 125.623  0.00  0.00    +0.000 C 
ATOM      6  C   UNL     1      -5.732  -1.847 123.944  0.00  0.00    +0.000 C 
ATOM      7  C   UNL     1      -6.346  -1.615 122.584  0.00  0.00    +0.000 C 
ATOM      8  C   UNL     1      -7.687  -2.001 122.932  0.00  0.00    +0.000 C 
ATOM      9  C   UNL     1      -8.464  -0.658 123.312  0.00  0.00    +0.000 C 
ATOM     10  N   UNL     1      -7.061  -3.154 124.006  0.00  0.00    +0.000 NA
ATOM     11  C   UNL     1      -5.023  -2.883 124.357  0.00  0.00    +0.000 C 
ATOM     12  C   UNL     1      -5.338  -3.763 123.377  0.00  0.00    +0.000 C 
ATOM     13  O   UNL     1      -4.999  -4.818 123.993  0.00  0.00    +0.000 OA
ENDBRANCH   1   2
BRANCH   1  14
ATOM     14  C   UNL     1      -8.432   2.127 125.543  0.00  0.00    +0.000 C 
ATOM     15  O   UNL     1      -8.785   2.630 126.605  0.00  0.00    +0.000 OA
BRANCH  14  16
ATOM     16  C   UNL     1      -7.395   2.759 124.719  0.00  0.00    +0.000 A 
ATOM     17  C   UNL     1      -6.158   3.194 125.166  0.00  0.00    +0.000 A 
ATOM     18  N   UNL     1      -5.447   3.678 124.092  0.00  0.00    +0.000 N 
ATOM     19  C   UNL     1      -6.223   3.649 122.956  0.00  0.00    +0.000 A 
ATOM     20  C   UNL     1      -7.461   3.146 123.343  0.00  0.00    +0.000 A 
ATOM     21  C   UNL     1      -8.475   3.071 122.372  0.00  0.00    +0.000 A 
ATOM     22  C   UNL     1      -8.233   3.407 121.047  0.00  0.00    +0.000 A 
ATOM     23  C   UNL     1      -6.995   3.907 120.687  0.00  0.00    +0.000 A 
ATOM     24  C   UNL     1      -5.970   4.051 121.634  0.00  0.00    +0.000 A 
ATOM     25  H   UNL     1      -4.504   4.044 124.134  0.00  0.00    +0.000 HD
ENDBRANCH  14  16
ENDBRANCH   1  14
TORSDOF 3
ENDMDL
MODEL 4
REMARK VINA RESULT:      -8.1      6.730      8.685
REMARK  Name = Dolasetron
REMARK  3 active torsions:
REMARK  status: ('A' for Active; 'I' for Inactive)
REMARK    1  A    between atoms: C_2  and  O_17
REMARK    2  A    between atoms: O_17  and  C_18
REMARK    3  A    between atoms: C_18  and  C_20
REMARK                            x       y       z     vdW  Elec       q    Type
REMARK                         _______ _______ _______ _____ _____    ______ ____
ROOT
ATOM      1  O   UNL     1      -7.238   5.128 130.970  0.00  0.00    +0.000 OA
ENDROOT
BRANCH   1   2
ATOM      2  C   UNL     1      -6.195   4.685 130.059  0.00  0.00    +0.000 C 
ATOM      3  C   UNL     1      -5.267   3.667 130.659  0.00  0.00    +0.000 C 
ATOM      4  C   UNL     1      -4.209   3.107 129.662  0.00  0.00    +0.000 C 
ATOM      5  C   UNL     1      -3.270   4.159 129.538  0.00  0.00    +0.000 C 
ATOM      6  C   UNL     1      -4.006   5.052 127.903  0.00  0.00    +0.000 C 
ATOM      7  C   UNL     1      -5.178   4.675 127.029  0.00  0.00    +0.000 C 
ATOM      8  C   UNL     1      -5.618   3.548 127.806  0.00  0.00    +0.000 C 
ATOM      9  C   UNL     1      -6.757   4.088 128.787  0.00  0.00    +0.000 C 
ATOM     10  N   UNL     1      -4.004   3.211 128.205  0.00  0.00    +0.000 NA
ATOM     11  C   UNL     1      -2.726   4.785 127.717  0.00  0.00    +0.000 C 
ATOM     12  C   UNL     1      -2.843   3.812 126.782  0.00  0.00    +0.000 C 
ATOM     13  O   UNL     1      -1.686   3.311 126.925  0.00  0.00    +0.000 OA
ENDBRANCH   1   2
BRANCH   1  14
ATOM     14  C   UNL     1      -7.859   6.367 130.904  0.00  0.00    +0.000 C 
ATOM     15  O   UNL     1      -7.207   7.371 130.633  0.00  0.00    +0.000 OA
BRANCH  14  16
ATOM     16  C   UNL     1      -9.303   6.454 131.157  0.00  0.00    +0.000 A 
ATOM     17  C   UNL     1      -9.983   5.831 132.191  0.00  0.00    +0.000 A 
ATOM     18  N   UNL     1     -11.308   6.195 132.129  0.00  0.00    +0.000 N 
ATOM     19  C   UNL     1     -11.533   6.982 131.021  0.00  0.00    +0.000 A 
ATOM     20  C   UNL     1     -10.310   7.094 130.369  0.00  0.00    +0.000 A 
ATOM     21  C   UNL     1     -10.273   7.803 129.155  0.00  0.00    +0.000 A 
ATOM     22  C   UNL     1     -11.400   8.446 128.660  0.00  0.00    +0.000 A 
ATOM     23  C   UNL     1     -12.604   8.319 129.326  0.00  0.00    +0.000 A 
ATOM     24  C   UNL     1     -12.700   7.574 130.511  0.00  0.00    +0.000 A 
ATOM     25  H   UNL     1     -12.026   5.896 132.776  0.00  0.00    +0.000 HD
ENDBRANCH  14  16
ENDBRANCH   1  14
TORSDOF 3
ENDMDL
MODEL 5
REMARK VINA RESULT:      -8.1      2.411      3.882
REMARK  Name = Dolasetron
REMARK  3 active torsions:
REMARK  status: ('A' for Active; 'I' for Inactive)
REMARK    1  A    between atoms: C_2  and  O_17
REMARK    2  A    between atoms: O_17  and  C_18
REMARK    3  A    between atoms: C_18  and  C_20
REMARK                            x       y       z     vdW  Elec       q    Type
REMARK                         _______ _______ _______ _____ _____    ______ ____
ROOT
ATOM      1  O   UNL     1      -8.866   2.017 123.389  0.00  0.00    +0.000 OA
ENDROOT
BRANCH   1   2
ATOM      2  C   UNL     1      -8.549   0.655 123.785  0.00  0.00    +0.000 C 
ATOM      3  C   UNL     1      -7.223   0.172 123.270  0.00  0.00    +0.000 C 
ATOM      4  C   UNL     1      -6.824  -1.247 123.774  0.00  0.00    +0.000 C 
ATOM      5  C   UNL     1      -7.642  -2.118 123.014  0.00  0.00    +0.000 C 
ATOM      6  C   UNL     1      -9.160  -2.335 124.302  0.00  0.00    +0.000 C 
ATOM      7  C   UNL     1      -9.345  -1.782 125.695  0.00  0.00    +0.000 C 
ATOM      8  C   UNL     1      -8.138  -1.001 125.733  0.00  0.00    +0.000 C 
ATOM      9  C   UNL     1      -8.540   0.480 125.288  0.00  0.00    +0.000 C 
ATOM     10  N   UNL     1      -7.365  -2.175 124.784  0.00  0.00    +0.000 NA
ATOM     11  C   UNL     1      -8.715  -3.526 123.945  0.00  0.00    +0.000 C 
ATOM     12  C   UNL     1      -8.156  -3.907 125.119  0.00  0.00    +0.000 C 
ATOM     13  O   UNL     1      -7.410  -4.821 124.654  0.00  0.00    +0.000 OA
ENDBRANCH   1   2
BRANCH   1  14
ATOM     14  C   UNL     1      -8.005   3.095 123.538  0.00  0.00    +0.000 C 
ATOM     15  O   UNL     1      -7.913   3.667 124.621  0.00  0.00    +0.000 OA
BRANCH  14  16
ATOM     16  C   UNL     1      -7.206   3.532 122.386  0.00  0.00    +0.000 A 
ATOM     17  C   UNL     1      -5.848   3.801 122.398  0.00  0.00    +0.000 A 
ATOM     18  N   UNL     1      -5.452   4.128 121.122  0.00  0.00    +0.000 N 
ATOM     19  C   UNL     1      -6.542   4.163 120.281  0.00  0.00    +0.000 A 
ATOM     20  C   UNL     1      -7.650   3.863 121.067  0.00  0.00    +0.000 A 
ATOM     21  C   UNL     1      -8.917   3.894 120.459  0.00  0.00    +0.000 A 
ATOM     22  C   UNL     1      -9.061   4.133 119.099  0.00  0.00    +0.000 A 
ATOM     23  C   UNL     1      -7.945   4.429 118.339  0.00  0.00    +0.000 A 
ATOM     24  C   UNL     1      -6.666   4.465 118.914  0.00  0.00    +0.000 A 
ATOM     25  H   UNL     1      -4.506   4.354 120.844  0.00  0.00    +0.000 HD
ENDBRANCH  14  16
ENDBRANCH   1  14
TORSDOF 3
ENDMDL
MODEL 6
REMARK VINA RESULT:      -7.9      7.933     10.784
REMARK  Name = Dolasetron
REMARK  3 active torsions:
REMARK  status: ('A' for Active; 'I' for Inactive)
REMARK    1  A    between atoms: C_2  and  O_17
REMARK    2  A    between atoms: O_17  and  C_18
REMARK    3  A    between atoms: C_18  and  C_20
REMARK                            x       y       z     vdW  Elec       q    Type
REMARK                         _______ _______ _______ _____ _____    ______ ____
ROOT
ATOM      1  O   UNL     1      -8.417   6.679 132.088  0.00  0.00    +0.000 OA
ENDROOT
BRANCH   1   2
ATOM      2  C   UNL     1      -9.545   6.754 131.174  0.00  0.00    +0.000 C 
ATOM      3  C   UNL     1      -9.248   6.204 129.808  0.00  0.00    +0.000 C 
ATOM      4  C   UNL     1     -10.478   6.182 128.852  0.00  0.00    +0.000 C 
ATOM      5  C   UNL     1     -10.636   7.537 128.473  0.00  0.00    +0.000 C 
ATOM      6  C   UNL     1     -11.992   8.095 129.836  0.00  0.00    +0.000 C 
ATOM      7  C   UNL     1     -12.686   7.289 130.910  0.00  0.00    +0.000 C 
ATOM      8  C   UNL     1     -11.988   6.054 130.677  0.00  0.00    +0.000 C 
ATOM      9  C   UNL     1     -10.761   6.023 131.700  0.00  0.00    +0.000 C 
ATOM     10  N   UNL     1     -11.924   6.418 129.022  0.00  0.00    +0.000 NA
ATOM     11  C   UNL     1     -12.433   8.402 128.630  0.00  0.00    +0.000 C 
ATOM     12  C   UNL     1     -13.445   7.507 128.536  0.00  0.00    +0.000 C 
ATOM     13  O   UNL     1     -13.571   7.538 127.274  0.00  0.00    +0.000 OA
ENDBRANCH   1   2
BRANCH   1  14
ATOM     14  C   UNL     1      -8.132   5.583 132.891  0.00  0.00    +0.000 C 
ATOM     15  O   UNL     1      -8.365   5.624 134.096  0.00  0.00    +0.000 OA
BRANCH  14  16
ATOM     16  C   UNL     1      -7.558   4.381 132.276  0.00  0.00    +0.000 A 
ATOM     17  C   UNL     1      -6.287   4.275 131.737  0.00  0.00    +0.000 A 
ATOM     18  N   UNL     1      -6.096   2.981 131.309  0.00  0.00    +0.000 N 
ATOM     19  C   UNL     1      -7.250   2.249 131.479  0.00  0.00    +0.000 A 
ATOM     20  C   UNL     1      -8.189   3.124 132.015  0.00  0.00    +0.000 A 
ATOM     21  C   UNL     1      -9.492   2.641 132.229  0.00  0.00    +0.000 A 
ATOM     22  C   UNL     1      -9.817   1.311 131.996  0.00  0.00    +0.000 A 
ATOM     23  C   UNL     1      -8.866   0.462 131.462  0.00  0.00    +0.000 A 
ATOM     24  C   UNL     1      -7.568   0.915 131.179  0.00  0.00    +0.000 A 
ATOM     25  H   UNL     1      -5.247   2.625 130.889  0.00  0.00    +0.000 HD
ENDBRANCH  14  16
ENDBRANCH   1  14
TORSDOF 3
ENDMDL
MODEL 7
REMARK VINA RESULT:      -7.9      2.154      2.942
REMARK  Name = Dolasetron
REMARK  3 active torsions:
REMARK  status: ('A' for Active; 'I' for Inactive)
REMARK    1  A    between atoms: C_2  and  O_17
REMARK    2  A    between atoms: O_17  and  C_18
REMARK    3  A    between atoms: C_18  and  C_20
REMARK                            x       y       z     vdW  Elec       q    Type
REMARK                         _______ _______ _______ _____ _____    ______ ____
ROOT
ATOM      1  O   UNL     1      -7.118   2.239 124.849  0.00  0.00    +0.000 OA
ENDROOT
BRANCH   1   2
ATOM      2  C   UNL     1      -7.292   0.804 124.698  0.00  0.00    +0.000 C 
ATOM      3  C   UNL     1      -8.720   0.355 124.831  0.00  0.00    +0.000 C 
ATOM      4  C   UNL     1      -8.933  -1.166 124.568  0.00  0.00    +0.000 C 
ATOM      5  C   UNL     1      -8.437  -1.786 125.740  0.00  0.00    +0.000 C 
ATOM      6  C   UNL     1      -6.570  -2.174 125.130  0.00  0.00    +0.000 C 
ATOM      7  C   UNL     1      -5.909  -1.932 123.793  0.00  0.00    +0.000 C 
ATOM      8  C   UNL     1      -7.021  -1.268 123.168  0.00  0.00    +0.000 C 
ATOM      9  C   UNL     1      -6.783   0.300 123.365  0.00  0.00    +0.000 C 
ATOM     10  N   UNL     1      -8.086  -2.254 124.045  0.00  0.00    +0.000 NA
ATOM     11  C   UNL     1      -7.122  -3.285 125.581  0.00  0.00    +0.000 C 
ATOM     12  C   UNL     1      -7.245  -3.956 124.411  0.00  0.00    +0.000 C 
ATOM     13  O   UNL     1      -8.114  -4.795 124.795  0.00  0.00    +0.000 OA
ENDBRANCH   1   2
BRANCH   1  14
ATOM     14  C   UNL     1      -7.952   3.193 124.282  0.00  0.00    +0.000 C 
ATOM     15  O   UNL     1      -8.707   3.853 124.990  0.00  0.00    +0.000 OA
BRANCH  14  16
ATOM     16  C   UNL     1      -7.911   3.400 122.829  0.00  0.00    +0.000 A 
ATOM     17  C   UNL     1      -8.929   3.097 121.938  0.00  0.00    +0.000 A 
ATOM     18  N   UNL     1      -8.539   3.484 120.677  0.00  0.00    +0.000 N 
ATOM     19  C   UNL     1      -7.248   3.961 120.703  0.00  0.00    +0.000 A 
ATOM     20  C   UNL     1      -6.819   3.849 122.022  0.00  0.00    +0.000 A 
ATOM     21  C   UNL     1      -5.493   4.213 122.317  0.00  0.00    +0.000 A 
ATOM     22  C   UNL     1      -4.657   4.747 121.346  0.00  0.00    +0.000 A 
ATOM     23  C   UNL     1      -5.106   4.847 120.042  0.00  0.00    +0.000 A 
ATOM     24  C   UNL     1      -6.404   4.444 119.690  0.00  0.00    +0.000 A 
ATOM     25  H   UNL     1      -9.101   3.395 119.840  0.00  0.00    +0.000 HD
ENDBRANCH  14  16
ENDBRANCH   1  14
TORSDOF 3
ENDMDL
MODEL 8
REMARK VINA RESULT:      -7.9      2.029      5.699
REMARK  Name = Dolasetron
REMARK  3 active torsions:
REMARK  status: ('A' for Active; 'I' for Inactive)
REMARK    1  A    between atoms: C_2  and  O_17
REMARK    2  A    between atoms: O_17  and  C_18
REMARK    3  A    between atoms: C_18  and  C_20
REMARK                            x       y       z     vdW  Elec       q    Type
REMARK                         _______ _______ _______ _____ _____    ______ ____
ROOT
ATOM      1  O   UNL     1      -9.693  -1.037 123.532  0.00  0.00    +0.000 OA
ENDROOT
BRANCH   1   2
ATOM      2  C   UNL     1      -9.049   0.237 123.810  0.00  0.00    +0.000 C 
ATOM      3  C   UNL     1      -9.368   1.304 122.802  0.00  0.00    +0.000 C 
ATOM      4  C   UNL     1      -8.770   2.700 123.145  0.00  0.00    +0.000 C 
ATOM      5  C   UNL     1      -7.395   2.565 122.838  0.00  0.00    +0.000 C 
ATOM      6  C   UNL     1      -6.709   2.076 124.654  0.00  0.00    +0.000 C 
ATOM      7  C   UNL     1      -7.436   1.952 125.972  0.00  0.00    +0.000 C 
ATOM      8  C   UNL     1      -8.757   2.207 125.465  0.00  0.00    +0.000 C 
ATOM      9  C   UNL     1      -9.416   0.781 125.174  0.00  0.00    +0.000 C 
ATOM     10  N   UNL     1      -8.099   3.276 124.325  0.00  0.00    +0.000 NA
ATOM     11  C   UNL     1      -6.024   3.106 124.191  0.00  0.00    +0.000 C 
ATOM     12  C   UNL     1      -6.481   4.065 125.032  0.00  0.00    +0.000 C 
ATOM     13  O   UNL     1      -6.146   5.067 124.331  0.00  0.00    +0.000 OA
ENDBRANCH   1   2
BRANCH   1  14
ATOM     14  C   UNL     1      -9.080  -2.273 123.683  0.00  0.00    +0.000 C 
ATOM     15  O   UNL     1      -9.625  -3.288 123.260  0.00  0.00    +0.000 OA
BRANCH  14  16
ATOM     16  C   UNL     1      -7.772  -2.342 124.346  0.00  0.00    +0.000 A 
ATOM     17  C   UNL     1      -6.553  -2.536 123.717  0.00  0.00    +0.000 A 
ATOM     18  N   UNL     1      -5.556  -2.486 124.663  0.00  0.00    +0.000 N 
ATOM     19  C   UNL     1      -6.100  -2.347 125.920  0.00  0.00    +0.000 A 
ATOM     20  C   UNL     1      -7.480  -2.326 125.747  0.00  0.00    +0.000 A 
ATOM     21  C   UNL     1      -8.288  -2.256 126.895  0.00  0.00    +0.000 A 
ATOM     22  C   UNL     1      -7.734  -2.125 128.162  0.00  0.00    +0.000 A 
ATOM     23  C   UNL     1      -6.360  -2.150 128.308  0.00  0.00    +0.000 A 
ATOM     24  C   UNL     1      -5.515  -2.274 127.195  0.00  0.00    +0.000 A 
ATOM     25  H   UNL     1      -4.567  -2.581 124.473  0.00  0.00    +0.000 HD
ENDBRANCH  14  16
ENDBRANCH   1  14
TORSDOF 3
ENDMDL
MODEL 9
REMARK VINA RESULT:      -7.8      1.646      2.188
REMARK  Name = Dolasetron
REMARK  3 active torsions:
REMARK  status: ('A' for Active; 'I' for Inactive)
REMARK    1  A    between atoms: C_2  and  O_17
REMARK    2  A    between atoms: O_17  and  C_18
REMARK    3  A    between atoms: C_18  and  C_20
REMARK                            x       y       z     vdW  Elec       q    Type
REMARK                         _______ _______ _______ _____ _____    ______ ____
ROOT
ATOM      1  O   UNL     1      -9.405  -0.321 123.732  0.00  0.00    +0.000 OA
ENDROOT
BRANCH   1   2
ATOM      2  C   UNL     1      -8.492  -0.917 124.693  0.00  0.00    +0.000 C 
ATOM      3  C   UNL     1      -9.104  -2.036 125.487  0.00  0.00    +0.000 C 
ATOM      4  C   UNL     1      -8.107  -2.753 126.446  0.00  0.00    +0.000 C 
ATOM      5  C   UNL     1      -7.948  -1.838 127.515  0.00  0.00    +0.000 C 
ATOM      6  C   UNL     1      -6.303  -0.889 126.880  0.00  0.00    +0.000 C 
ATOM      7  C   UNL     1      -5.451  -1.125 125.655  0.00  0.00    +0.000 C 
ATOM      8  C   UNL     1      -6.258  -2.167 125.081  0.00  0.00    +0.000 C 
ATOM      9  C   UNL     1      -7.241  -1.461 124.039  0.00  0.00    +0.000 C 
ATOM     10  N   UNL     1      -6.646  -2.707 126.641  0.00  0.00    +0.000 NA
ATOM     11  C   UNL     1      -6.107  -1.328 128.110  0.00  0.00    +0.000 C 
ATOM     12  C   UNL     1      -5.196  -2.295 127.852  0.00  0.00    +0.000 C 
ATOM     13  O   UNL     1      -5.337  -2.943 128.933  0.00  0.00    +0.000 OA
ENDBRANCH   1   2
BRANCH   1  14
ATOM     14  C   UNL     1      -9.790   1.013 123.742  0.00  0.00    +0.000 C 
ATOM     15  O   UNL     1     -10.906   1.330 124.143  0.00  0.00    +0.000 OA
BRANCH  14  16
ATOM     16  C   UNL     1      -8.842   2.031 123.272  0.00  0.00    +0.000 A 
ATOM     17  C   UNL     1      -8.900   2.693 122.057  0.00  0.00    +0.000 A 
ATOM     18  N   UNL     1      -7.875   3.609 122.005  0.00  0.00    +0.000 N 
ATOM     19  C   UNL     1      -7.088   3.506 123.130  0.00  0.00    +0.000 A 
ATOM     20  C   UNL     1      -7.636   2.482 123.895  0.00  0.00    +0.000 A 
ATOM     21  C   UNL     1      -6.977   2.122 125.084  0.00  0.00    +0.000 A 
ATOM     22  C   UNL     1      -5.862   2.819 125.531  0.00  0.00    +0.000 A 
ATOM     23  C   UNL     1      -5.336   3.832 124.752  0.00  0.00    +0.000 A 
ATOM     24  C   UNL     1      -5.928   4.188 123.531  0.00  0.00    +0.000 A 
ATOM     25  H   UNL     1      -7.695   4.239 121.234  0.00  0.00    +0.000 HD
ENDBRANCH  14  16
ENDBRANCH   1  14
TORSDOF 3
ENDMDL
