MODEL 1
REMARK VINA RESULT:      -8.7      0.000      0.000
REMARK  Name = Dolutegravir
REMARK  5 active torsions:
REMARK  status: ('A' for Active; 'I' for Inactive)
REMARK    1  A    between atoms: C_6  and  C_7
REMARK    2  A    between atoms: N_9  and  C_10
REMARK    3  A    between atoms: C_10  and  C_11
REMARK    4  A    between atoms: C_21  and  O_22
REMARK    5  A    between atoms: C_27  and  C_28
REMARK                            x       y       z     vdW  Elec       q    Type
REMARK                         _______ _______ _______ _____ _____    ______ ____
ROOT
ATOM      1  C   UNL     1      -8.494  -0.687 124.724  0.00  0.00    +0.000 C 
ATOM      2  C   UNL     1      -9.211  -0.079 125.941  0.00  0.00    +0.000 C 
ATOM      3  N   UNL     1      -8.304   0.726 126.792  0.00  0.00    +0.000 N 
ATOM      4  C   UNL     1      -8.813   1.598 127.752  0.00  0.00    +0.000 A 
ATOM      5  C   UNL     1      -8.085   2.320 128.631  0.00  0.00    +0.000 A 
ATOM      6  C   UNL     1      -6.610   2.115 128.566  0.00  0.00    +0.000 A 
ATOM      7  O   UNL     1      -5.795   2.674 129.302  0.00  0.00    +0.000 OA
ATOM      8  C   UNL     1      -6.055   1.172 127.558  0.00  0.00    +0.000 A 
ATOM      9  C   UNL     1      -6.912   0.550 126.722  0.00  0.00    +0.000 A 
ATOM     10  C   UNL     1      -6.318  -0.417 125.730  0.00  0.00    +0.000 C 
ATOM     11  O   UNL     1      -5.103  -0.499 125.555  0.00  0.00    +0.000 OA
ATOM     12  N   UNL     1      -7.225  -1.255 125.082  0.00  0.00    +0.000 N 
ATOM     13  C   UNL     1      -6.911  -2.665 125.002  0.00  0.00    +0.000 C 
ATOM     14  C   UNL     1      -5.593  -2.902 124.268  0.00  0.00    +0.000 C 
ATOM     15  C   UNL     1      -7.958  -3.554 124.362  0.00  0.00    +0.000 C 
ATOM     16  C   UNL     1      -9.152  -2.870 123.757  0.00  0.00    +0.000 C 
ATOM     17  O   UNL     1      -9.410  -1.522 124.042  0.00  0.00    +0.000 OA
ENDROOT
BRANCH   5  18
ATOM     18  C   UNL     1      -8.660   3.276 129.627  0.00  0.00    +0.000 C 
ATOM     19  O   UNL     1      -9.247   2.901 130.644  0.00  0.00    +0.000 OA
ATOM     20  N   UNL     1      -8.501   4.606 129.368  0.00  0.00    +0.000 N 
ATOM     21  H   UNL     1      -8.008   4.915 128.546  0.00  0.00    +0.000 HD
BRANCH  20  22
ATOM     22  C   UNL     1      -9.010   5.633 130.249  0.00  0.00    +0.000 C 
BRANCH  22  23
ATOM     23  C   UNL     1     -10.201   6.369 129.684  0.00  0.00    +0.000 A 
ATOM     24  C   UNL     1     -10.016   7.640 129.119  0.00  0.00    +0.000 A 
ATOM     25  C   UNL     1     -11.044   8.229 128.379  0.00  0.00    +0.000 A 
ATOM     26  C   UNL     1     -12.318   7.676 128.410  0.00  0.00    +0.000 A 
ATOM     27  F   UNL     1     -13.328   8.304 127.797  0.00  0.00    +0.000 F 
ATOM     28  C   UNL     1     -12.562   6.491 129.077  0.00  0.00    +0.000 A 
ATOM     29  C   UNL     1     -11.492   5.817 129.640  0.00  0.00    +0.000 A 
ATOM     30  F   UNL     1     -11.727   4.586 130.123  0.00  0.00    +0.000 F 
ENDBRANCH  22  23
ENDBRANCH  20  22
ENDBRANCH   5  18
BRANCH   8  31
ATOM     31  O   UNL     1      -4.683   0.996 127.582  0.00  0.00    +0.000 OA
ATOM     32  H   UNL     1      -4.407   0.869 126.650  0.00  0.00    +0.000 HD
ENDBRANCH   8  31
TORSDOF 4
ENDMDL
MODEL 2
REMARK VINA RESULT:      -8.7      2.050      2.191
REMARK  Name = Dolutegravir
REMARK  5 active torsions:
REMARK  status: ('A' for Active; 'I' for Inactive)
REMARK    1  A    between atoms: C_6  and  C_7
REMARK    2  A    between atoms: N_9  and  C_10
REMARK    3  A    between atoms: C_10  and  C_11
REMARK    4  A    between atoms: C_21  and  O_22
REMARK    5  A    between atoms: C_27  and  C_28
REMARK                            x       y       z     vdW  Elec       q    Type
REMARK                         _______ _______ _______ _____ _____    ______ ____
ROOT
ATOM      1  C   UNL     1      -8.538  -0.883 125.856  0.00  0.00    +0.000 C 
ATOM      2  C   UNL     1      -8.264  -0.073 127.135  0.00  0.00    +0.000 C 
ATOM      3  N   UNL     1      -8.030   1.363 126.858  0.00  0.00    +0.000 N 
ATOM      4  C   UNL     1      -8.070   2.304 127.885  0.00  0.00    +0.000 A 
ATOM      5  C   UNL     1      -7.798   3.621 127.764  0.00  0.00    +0.000 A 
ATOM      6  C   UNL     1      -7.385   4.070 126.404  0.00  0.00    +0.000 A 
ATOM      7  O   UNL     1      -7.081   5.228 126.113  0.00  0.00    +0.000 OA
ATOM      8  C   UNL     1      -7.319   3.072 125.302  0.00  0.00    +0.000 A 
ATOM      9  C   UNL     1      -7.657   1.794 125.574  0.00  0.00    +0.000 A 
ATOM     10  C   UNL     1      -7.555   0.805 124.441  0.00  0.00    +0.000 C 
ATOM     11  O   UNL     1      -7.359   1.167 123.282  0.00  0.00    +0.000 OA
ATOM     12  N   UNL     1      -7.626  -0.540 124.803  0.00  0.00    +0.000 N 
ATOM     13  C   UNL     1      -6.646  -1.447 124.244  0.00  0.00    +0.000 C 
ATOM     14  C   UNL     1      -6.710  -1.465 122.718  0.00  0.00    +0.000 C 
ATOM     15  C   UNL     1      -6.707  -2.883 124.723  0.00  0.00    +0.000 C 
ATOM     16  C   UNL     1      -7.853  -3.252 125.622  0.00  0.00    +0.000 C 
ATOM     17  O   UNL     1      -8.636  -2.249 126.211  0.00  0.00    +0.000 OA
ENDROOT
BRANCH   5  18
ATOM     18  C   UNL     1      -7.885   4.613 128.879  0.00  0.00    +0.000 C 
ATOM     19  O   UNL     1      -6.888   5.090 129.423  0.00  0.00    +0.000 OA
ATOM     20  N   UNL     1      -9.136   4.985 129.277  0.00  0.00    +0.000 N 
ATOM     21  H   UNL     1      -9.954   4.610 128.824  0.00  0.00    +0.000 HD
BRANCH  20  22
ATOM     22  C   UNL     1      -9.360   5.934 130.344  0.00  0.00    +0.000 C 
BRANCH  22  23
ATOM     23  C   UNL     1     -10.434   6.947 130.028  0.00  0.00    +0.000 A 
ATOM     24  C   UNL     1     -10.234   7.852 128.975  0.00  0.00    +0.000 A 
ATOM     25  C   UNL     1     -11.301   8.626 128.511  0.00  0.00    +0.000 A 
ATOM     26  C   UNL     1     -12.480   8.683 129.244  0.00  0.00    +0.000 A 
ATOM     27  F   UNL     1     -13.458   9.513 128.863  0.00  0.00    +0.000 F 
ATOM     28  C   UNL     1     -12.655   7.901 130.369  0.00  0.00    +0.000 A 
ATOM     29  C   UNL     1     -11.665   6.993 130.704  0.00  0.00    +0.000 A 
ATOM     30  F   UNL     1     -11.937   6.125 131.692  0.00  0.00    +0.000 F 
ENDBRANCH  22  23
ENDBRANCH  20  22
ENDBRANCH   5  18
BRANCH   8  31
ATOM     31  O   UNL     1      -6.886   3.547 124.077  0.00  0.00    +0.000 OA
ATOM     32  H   UNL     1      -7.693   3.705 123.544  0.00  0.00    +0.000 HD
ENDBRANCH   8  31
TORSDOF 4
ENDMDL
MODEL 3
REMARK VINA RESULT:      -8.6      1.807      2.134
REMARK  Name = Dolutegravir
REMARK  5 active torsions:
REMARK  status: ('A' for Active; 'I' for Inactive)
REMARK    1  A    between atoms: C_6  and  C_7
REMARK    2  A    between atoms: N_9  and  C_10
REMARK    3  A    between atoms: C_10  and  C_11
REMARK    4  A    between atoms: C_21  and  O_22
REMARK    5  A    between atoms: C_27  and  C_28
REMARK                            x       y       z     vdW  Elec       q    Type
REMARK                         _______ _______ _______ _____ _____    ______ ____
ROOT
ATOM      1  C   UNL     1      -7.268   0.011 125.255  0.00  0.00    +0.000 C 
ATOM      2  C   UNL     1      -7.702   1.436 125.635  0.00  0.00    +0.000 C 
ATOM      3  N   UNL     1      -7.749   1.645 127.100  0.00  0.00    +0.000 N 
ATOM      4  C   UNL     1      -7.817   2.930 127.637  0.00  0.00    +0.000 A 
ATOM      5  C   UNL     1      -7.941   3.235 128.946  0.00  0.00    +0.000 A 
ATOM      6  C   UNL     1      -8.050   2.071 129.871  0.00  0.00    +0.000 A 
ATOM      7  O   UNL     1      -8.188   2.161 131.092  0.00  0.00    +0.000 OA
ATOM      8  C   UNL     1      -7.999   0.694 129.309  0.00  0.00    +0.000 A 
ATOM      9  C   UNL     1      -7.834   0.551 127.977  0.00  0.00    +0.000 A 
ATOM     10  C   UNL     1      -7.811  -0.856 127.440  0.00  0.00    +0.000 C 
ATOM     11  O   UNL     1      -7.753  -1.833 128.185  0.00  0.00    +0.000 OA
ATOM     12  N   UNL     1      -7.932  -0.979 126.056  0.00  0.00    +0.000 N 
ATOM     13  C   UNL     1      -8.868  -1.954 125.538  0.00  0.00    +0.000 C 
ATOM     14  C   UNL     1      -8.520  -3.365 126.010  0.00  0.00    +0.000 C 
ATOM     15  C   UNL     1      -9.028  -2.000 124.032  0.00  0.00    +0.000 C 
ATOM     16  C   UNL     1      -8.108  -1.130 123.223  0.00  0.00    +0.000 C 
ATOM     17  O   UNL     1      -7.362  -0.121 123.850  0.00  0.00    +0.000 OA
ENDROOT
BRANCH   5  18
ATOM     18  C   UNL     1      -7.975   4.626 129.494  0.00  0.00    +0.000 C 
ATOM     19  O   UNL     1      -7.022   5.401 129.397  0.00  0.00    +0.000 OA
ATOM     20  N   UNL     1      -9.127   5.018 130.111  0.00  0.00    +0.000 N 
ATOM     21  H   UNL     1      -9.914   4.393 130.178  0.00  0.00    +0.000 HD
BRANCH  20  22
ATOM     22  C   UNL     1      -9.290   6.334 130.684  0.00  0.00    +0.000 C 
BRANCH  22  23
ATOM     23  C   UNL     1     -10.443   7.107 130.090  0.00  0.00    +0.000 A 
ATOM     24  C   UNL     1     -10.205   7.969 129.009  0.00  0.00    +0.000 A 
ATOM     25  C   UNL     1     -11.281   8.501 128.293  0.00  0.00    +0.000 A 
ATOM     26  C   UNL     1     -12.570   8.379 128.797  0.00  0.00    +0.000 A 
ATOM     27  F   UNL     1     -13.586   8.987 128.174  0.00  0.00    +0.000 F 
ATOM     28  C   UNL     1     -12.819   7.647 129.942  0.00  0.00    +0.000 A 
ATOM     29  C   UNL     1     -11.769   6.963 130.530  0.00  0.00    +0.000 A 
ATOM     30  F   UNL     1     -12.070   6.119 131.531  0.00  0.00    +0.000 F 
ENDBRANCH  22  23
ENDBRANCH  20  22
ENDBRANCH   5  18
BRANCH   8  31
ATOM     31  O   UNL     1      -8.150  -0.338 130.217  0.00  0.00    +0.000 OA
ATOM     32  H   UNL     1      -7.369  -0.920 130.103  0.00  0.00    +0.000 HD
ENDBRANCH   8  31
TORSDOF 4
ENDMDL
MODEL 4
REMARK VINA RESULT:      -8.5      4.845      7.282
REMARK  Name = Dolutegravir
REMARK  5 active torsions:
REMARK  status: ('A' for Active; 'I' for Inactive)
REMARK    1  A    between atoms: C_6  and  C_7
REMARK    2  A    between atoms: N_9  and  C_10
REMARK    3  A    between atoms: C_10  and  C_11
REMARK    4  A    between atoms: C_21  and  O_22
REMARK    5  A    between atoms: C_27  and  C_28
REMARK                            x       y       z     vdW  Elec       q    Type
REMARK                         _______ _______ _______ _____ _____    ______ ____
ROOT
ATOM      1  C   UNL     1      -7.100   0.044 129.984  0.00  0.00    +0.000 C 
ATOM      2  C   UNL     1      -7.289   0.909 128.726  0.00  0.00    +0.000 C 
ATOM      3  N   UNL     1      -7.952   0.173 127.624  0.00  0.00    +0.000 N 
ATOM      4  C   UNL     1      -8.484   0.854 126.531  0.00  0.00    +0.000 A 
ATOM      5  C   UNL     1      -9.039   0.285 125.439  0.00  0.00    +0.000 A 
ATOM      6  C   UNL     1      -9.033  -1.205 125.416  0.00  0.00    +0.000 A 
ATOM      7  O   UNL     1      -9.478  -1.890 124.494  0.00  0.00    +0.000 OA
ATOM      8  C   UNL     1      -8.450  -1.944 126.568  0.00  0.00    +0.000 A 
ATOM      9  C   UNL     1      -7.964  -1.231 127.606  0.00  0.00    +0.000 A 
ATOM     10  C   UNL     1      -7.358  -2.010 128.745  0.00  0.00    +0.000 C 
ATOM     11  O   UNL     1      -7.467  -3.233 128.823  0.00  0.00    +0.000 OA
ATOM     12  N   UNL     1      -6.612  -1.267 129.659  0.00  0.00    +0.000 N 
ATOM     13  C   UNL     1      -5.316  -1.775 130.053  0.00  0.00    +0.000 C 
ATOM     14  C   UNL     1      -5.431  -3.155 130.698  0.00  0.00    +0.000 C 
ATOM     15  C   UNL     1      -4.503  -0.900 130.984  0.00  0.00    +0.000 C 
ATOM     16  C   UNL     1      -5.172   0.337 131.511  0.00  0.00    +0.000 C 
ATOM     17  O   UNL     1      -6.364   0.794 130.930  0.00  0.00    +0.000 OA
ENDROOT
BRANCH   5  18
ATOM     18  C   UNL     1      -9.635   1.044 124.297  0.00  0.00    +0.000 C 
ATOM     19  O   UNL     1     -10.834   0.988 124.016  0.00  0.00    +0.000 OA
ATOM     20  N   UNL     1      -8.788   1.825 123.566  0.00  0.00    +0.000 N 
ATOM     21  H   UNL     1      -7.811   1.886 123.803  0.00  0.00    +0.000 HD
BRANCH  20  22
ATOM     22  C   UNL     1      -9.236   2.608 122.437  0.00  0.00    +0.000 C 
BRANCH  22  23
ATOM     23  C   UNL     1      -8.108   3.271 121.684  0.00  0.00    +0.000 A 
ATOM     24  C   UNL     1      -6.813   3.244 122.225  0.00  0.00    +0.000 A 
ATOM     25  C   UNL     1      -5.723   3.630 121.441  0.00  0.00    +0.000 A 
ATOM     26  C   UNL     1      -5.941   4.270 120.227  0.00  0.00    +0.000 A 
ATOM     27  F   UNL     1      -4.901   4.744 119.531  0.00  0.00    +0.000 F 
ATOM     28  C   UNL     1      -7.219   4.435 119.730  0.00  0.00    +0.000 A 
ATOM     29  C   UNL     1      -8.276   3.871 120.425  0.00  0.00    +0.000 A 
ATOM     30  F   UNL     1      -9.481   3.891 119.831  0.00  0.00    +0.000 F 
ENDBRANCH  22  23
ENDBRANCH  20  22
ENDBRANCH   5  18
BRANCH   8  31
ATOM     31  O   UNL     1      -8.436  -3.323 126.462  0.00  0.00    +0.000 OA
ATOM     32  H   UNL     1      -8.661  -3.668 127.351  0.00  0.00    +0.000 HD
ENDBRANCH   8  31
TORSDOF 4
ENDMDL
MODEL 5
REMARK VINA RESULT:      -8.3      4.775      5.884
REMARK  Name = Dolutegravir
REMARK  5 active torsions:
REMARK  status: ('A' for Active; 'I' for Inactive)
REMARK    1  A    between atoms: C_6  and  C_7
REMARK    2  A    between atoms: N_9  and  C_10
REMARK    3  A    between atoms: C_10  and  C_11
REMARK    4  A    between atoms: C_21  and  O_22
REMARK    5  A    between atoms: C_27  and  C_28
REMARK                            x       y       z     vdW  Elec       q    Type
REMARK                         _______ _______ _______ _____ _____    ______ ____
ROOT
ATOM      1  C   UNL     1      -7.081  -0.590 125.565  0.00  0.00    +0.000 C 
ATOM      2  C   UNL     1      -5.737   0.102 125.845  0.00  0.00    +0.000 C 
ATOM      3  N   UNL     1      -5.847   1.579 125.848  0.00  0.00    +0.000 N 
ATOM      4  C   UNL     1      -4.829   2.370 126.378  0.00  0.00    +0.000 A 
ATOM      5  C   UNL     1      -4.788   3.720 126.364  0.00  0.00    +0.000 A 
ATOM      6  C   UNL     1      -5.930   4.392 125.681  0.00  0.00    +0.000 A 
ATOM      7  O   UNL     1      -6.048   5.612 125.557  0.00  0.00    +0.000 OA
ATOM      8  C   UNL     1      -7.013   3.558 125.094  0.00  0.00    +0.000 A 
ATOM      9  C   UNL     1      -6.930   2.217 125.221  0.00  0.00    +0.000 A 
ATOM     10  C   UNL     1      -8.031   1.403 124.593  0.00  0.00    +0.000 C 
ATOM     11  O   UNL     1      -9.054   1.927 124.153  0.00  0.00    +0.000 OA
ATOM     12  N   UNL     1      -7.785   0.035 124.481  0.00  0.00    +0.000 N 
ATOM     13  C   UNL     1      -8.069  -0.606 123.215  0.00  0.00    +0.000 C 
ATOM     14  C   UNL     1      -9.540  -0.458 122.833  0.00  0.00    +0.000 C 
ATOM     15  C   UNL     1      -7.713  -2.075 123.109  0.00  0.00    +0.000 C 
ATOM     16  C   UNL     1      -7.229  -2.750 124.361  0.00  0.00    +0.000 C 
ATOM     17  O   UNL     1      -6.851  -1.983 125.472  0.00  0.00    +0.000 OA
ENDROOT
BRANCH   5  18
ATOM     18  C   UNL     1      -3.698   4.542 126.974  0.00  0.00    +0.000 C 
ATOM     19  O   UNL     1      -2.514   4.203 126.942  0.00  0.00    +0.000 OA
ATOM     20  N   UNL     1      -4.068   5.711 127.573  0.00  0.00    +0.000 N 
ATOM     21  H   UNL     1      -5.033   5.999 127.586  0.00  0.00    +0.000 HD
BRANCH  20  22
ATOM     22  C   UNL     1      -3.114   6.596 128.200  0.00  0.00    +0.000 C 
BRANCH  22  23
ATOM     23  C   UNL     1      -3.339   6.763 129.684  0.00  0.00    +0.000 A 
ATOM     24  C   UNL     1      -4.649   6.903 130.167  0.00  0.00    +0.000 A 
ATOM     25  C   UNL     1      -4.898   6.813 131.539  0.00  0.00    +0.000 A 
ATOM     26  C   UNL     1      -3.835   6.834 132.435  0.00  0.00    +0.000 A 
ATOM     27  F   UNL     1      -4.077   6.865 133.750  0.00  0.00    +0.000 F 
ATOM     28  C   UNL     1      -2.528   6.835 131.986  0.00  0.00    +0.000 A 
ATOM     29  C   UNL     1      -2.297   6.725 130.625  0.00  0.00    +0.000 A 
ATOM     30  F   UNL     1      -1.025   6.548 130.232  0.00  0.00    +0.000 F 
ENDBRANCH  22  23
ENDBRANCH  20  22
ENDBRANCH   5  18
BRANCH   8  31
ATOM     31  O   UNL     1      -8.019   4.244 124.437  0.00  0.00    +0.000 OA
ATOM     32  H   UNL     1      -7.672   4.449 123.543  0.00  0.00    +0.000 HD
ENDBRANCH   8  31
TORSDOF 4
ENDMDL
MODEL 6
REMARK VINA RESULT:      -8.3      3.453      4.615
REMARK  Name = Dolutegravir
REMARK  5 active torsions:
REMARK  status: ('A' for Active; 'I' for Inactive)
REMARK    1  A    between atoms: C_6  and  C_7
REMARK    2  A    between atoms: N_9  and  C_10
REMARK    3  A    between atoms: C_10  and  C_11
REMARK    4  A    between atoms: C_21  and  O_22
REMARK    5  A    between atoms: C_27  and  C_28
REMARK                            x       y       z     vdW  Elec       q    Type
REMARK                         _______ _______ _______ _____ _____    ______ ____
ROOT
ATOM      1  C   UNL     1      -7.948  -1.030 132.392  0.00  0.00    +0.000 C 
ATOM      2  C   UNL     1      -7.646   0.474 132.494  0.00  0.00    +0.000 C 
ATOM      3  N   UNL     1      -7.904   1.193 131.224  0.00  0.00    +0.000 N 
ATOM      4  C   UNL     1      -7.988   2.584 131.196  0.00  0.00    +0.000 A 
ATOM      5  C   UNL     1      -8.142   3.345 130.091  0.00  0.00    +0.000 A 
ATOM      6  C   UNL     1      -8.186   2.602 128.799  0.00  0.00    +0.000 A 
ATOM      7  O   UNL     1      -8.301   3.132 127.693  0.00  0.00    +0.000 OA
ATOM      8  C   UNL     1      -8.077   1.118 128.814  0.00  0.00    +0.000 A 
ATOM      9  C   UNL     1      -7.963   0.496 130.006  0.00  0.00    +0.000 A 
ATOM     10  C   UNL     1      -7.831  -1.005 129.983  0.00  0.00    +0.000 C 
ATOM     11  O   UNL     1      -8.008  -1.654 128.953  0.00  0.00    +0.000 OA
ATOM     12  N   UNL     1      -7.429  -1.597 131.180  0.00  0.00    +0.000 N 
ATOM     13  C   UNL     1      -6.376  -2.589 131.128  0.00  0.00    +0.000 C 
ATOM     14  C   UNL     1      -6.766  -3.769 130.240  0.00  0.00    +0.000 C 
ATOM     15  C   UNL     1      -5.913  -3.149 132.457  0.00  0.00    +0.000 C 
ATOM     16  C   UNL     1      -6.676  -2.723 133.679  0.00  0.00    +0.000 C 
ATOM     17  O   UNL     1      -7.567  -1.641 133.610  0.00  0.00    +0.000 OA
ENDROOT
BRANCH   5  18
ATOM     18  C   UNL     1      -8.265   4.835 130.097  0.00  0.00    +0.000 C 
ATOM     19  O   UNL     1      -7.474   5.568 129.501  0.00  0.00    +0.000 OA
ATOM     20  N   UNL     1      -9.312   5.364 130.793  0.00  0.00    +0.000 N 
ATOM     21  H   UNL     1      -9.969   4.767 131.268  0.00  0.00    +0.000 HD
BRANCH  20  22
ATOM     22  C   UNL     1      -9.544   6.788 130.879  0.00  0.00    +0.000 C 
BRANCH  22  23
ATOM     23  C   UNL     1     -10.724   7.253 130.060  0.00  0.00    +0.000 A 
ATOM     24  C   UNL     1     -10.496   7.911 128.842  0.00  0.00    +0.000 A 
ATOM     25  C   UNL     1     -11.557   8.129 127.960  0.00  0.00    +0.000 A 
ATOM     26  C   UNL     1     -12.863   7.922 128.389  0.00  0.00    +0.000 A 
ATOM     27  F   UNL     1     -13.884   8.241 127.585  0.00  0.00    +0.000 F 
ATOM     28  C   UNL     1     -13.125   7.401 129.641  0.00  0.00    +0.000 A 
ATOM     29  C   UNL     1     -12.057   7.005 130.429  0.00  0.00    +0.000 A 
ATOM     30  F   UNL     1     -12.342   6.340 131.560  0.00  0.00    +0.000 F 
ENDBRANCH  22  23
ENDBRANCH  20  22
ENDBRANCH   5  18
BRANCH   8  31
ATOM     31  O   UNL     1      -8.080   0.496 127.578  0.00  0.00    +0.000 OA
ATOM     32  H   UNL     1      -7.935  -0.458 127.752  0.00  0.00    +0.000 HD
ENDBRANCH   8  31
TORSDOF 4
ENDMDL
MODEL 7
REMARK VINA RESULT:      -8.3      4.053      9.184
REMARK  Name = Dolutegravir
REMARK  5 active torsions:
REMARK  status: ('A' for Active; 'I' for Inactive)
REMARK    1  A    between atoms: C_6  and  C_7
REMARK    2  A    between atoms: N_9  and  C_10
REMARK    3  A    between atoms: C_10  and  C_11
REMARK    4  A    between atoms: C_21  and  O_22
REMARK    5  A    between atoms: C_27  and  C_28
REMARK                            x       y       z     vdW  Elec       q    Type
REMARK                         _______ _______ _______ _____ _____    ______ ____
ROOT
ATOM      1  C   UNL     1      -8.097   3.403 131.154  0.00  0.00    +0.000 C 
ATOM      2  C   UNL     1      -8.944   2.551 130.193  0.00  0.00    +0.000 C 
ATOM      3  N   UNL     1      -8.396   2.531 128.817  0.00  0.00    +0.000 N 
ATOM      4  C   UNL     1      -8.832   1.587 127.889  0.00  0.00    +0.000 A 
ATOM      5  C   UNL     1      -8.461   1.523 126.592  0.00  0.00    +0.000 A 
ATOM      6  C   UNL     1      -7.530   2.594 126.135  0.00  0.00    +0.000 A 
ATOM      7  O   UNL     1      -7.103   2.703 124.985  0.00  0.00    +0.000 OA
ATOM      8  C   UNL     1      -7.072   3.619 127.112  0.00  0.00    +0.000 A 
ATOM      9  C   UNL     1      -7.505   3.527 128.387  0.00  0.00    +0.000 A 
ATOM     10  C   UNL     1      -7.041   4.596 129.343  0.00  0.00    +0.000 C 
ATOM     11  O   UNL     1      -6.165   5.403 129.036  0.00  0.00    +0.000 OA
ATOM     12  N   UNL     1      -7.717   4.653 130.561  0.00  0.00    +0.000 N 
ATOM     13  C   UNL     1      -8.160   5.948 131.034  0.00  0.00    +0.000 C 
ATOM     14  C   UNL     1      -6.985   6.908 131.211  0.00  0.00    +0.000 C 
ATOM     15  C   UNL     1      -8.959   5.958 132.321  0.00  0.00    +0.000 C 
ATOM     16  C   UNL     1      -9.098   4.650 133.046  0.00  0.00    +0.000 C 
ATOM     17  O   UNL     1      -8.759   3.450 132.403  0.00  0.00    +0.000 OA
ENDROOT
BRANCH   5  18
ATOM     18  C   UNL     1      -8.919   0.475 125.629  0.00  0.00    +0.000 C 
ATOM     19  O   UNL     1     -10.090   0.383 125.256  0.00  0.00    +0.000 OA
ATOM     20  N   UNL     1      -7.972  -0.389 125.161  0.00  0.00    +0.000 N 
ATOM     21  H   UNL     1      -7.011  -0.306 125.452  0.00  0.00    +0.000 HD
BRANCH  20  22
ATOM     22  C   UNL     1      -8.283  -1.447 124.228  0.00  0.00    +0.000 C 
BRANCH  22  23
ATOM     23  C   UNL     1      -7.135  -2.402 124.002  0.00  0.00    +0.000 A 
ATOM     24  C   UNL     1      -5.959  -1.930 123.401  0.00  0.00    +0.000 A 
ATOM     25  C   UNL     1      -4.808  -2.722 123.405  0.00  0.00    +0.000 A 
ATOM     26  C   UNL     1      -4.894  -4.058 123.777  0.00  0.00    +0.000 A 
ATOM     27  F   UNL     1      -3.818  -4.847 123.671  0.00  0.00    +0.000 F 
ATOM     28  C   UNL     1      -6.079  -4.590 124.247  0.00  0.00    +0.000 A 
ATOM     29  C   UNL     1      -7.160  -3.742 124.423  0.00  0.00    +0.000 A 
ATOM     30  F   UNL     1      -8.239  -4.244 125.045  0.00  0.00    +0.000 F 
ENDBRANCH  22  23
ENDBRANCH  20  22
ENDBRANCH   5  18
BRANCH   8  31
ATOM     31  O   UNL     1      -6.245   4.608 126.611  0.00  0.00    +0.000 OA
ATOM     32  H   UNL     1      -6.500   4.728 125.672  0.00  0.00    +0.000 HD
ENDBRANCH   8  31
TORSDOF 4
ENDMDL
MODEL 8
REMARK VINA RESULT:      -8.2      5.201      8.251
REMARK  Name = Dolutegravir
REMARK  5 active torsions:
REMARK  status: ('A' for Active; 'I' for Inactive)
REMARK    1  A    between atoms: C_6  and  C_7
REMARK    2  A    between atoms: N_9  and  C_10
REMARK    3  A    between atoms: C_10  and  C_11
REMARK    4  A    between atoms: C_21  and  O_22
REMARK    5  A    between atoms: C_27  and  C_28
REMARK                            x       y       z     vdW  Elec       q    Type
REMARK                         _______ _______ _______ _____ _____    ______ ____
ROOT
ATOM      1  C   UNL     1      -6.166   3.131 131.242  0.00  0.00    +0.000 C 
ATOM      2  C   UNL     1      -7.195   3.360 130.123  0.00  0.00    +0.000 C 
ATOM      3  N   UNL     1      -6.562   3.529 128.794  0.00  0.00    +0.000 N 
ATOM      4  C   UNL     1      -7.318   3.440 127.627  0.00  0.00    +0.000 A 
ATOM      5  C   UNL     1      -6.865   3.652 126.372  0.00  0.00    +0.000 A 
ATOM      6  C   UNL     1      -5.432   4.051 126.265  0.00  0.00    +0.000 A 
ATOM      7  O   UNL     1      -4.856   4.302 125.205  0.00  0.00    +0.000 OA
ATOM      8  C   UNL     1      -4.619   4.169 127.505  0.00  0.00    +0.000 A 
ATOM      9  C   UNL     1      -5.209   3.889 128.686  0.00  0.00    +0.000 A 
ATOM     10  C   UNL     1      -4.363   4.043 129.924  0.00  0.00    +0.000 C 
ATOM     11  O   UNL     1      -3.148   4.228 129.859  0.00  0.00    +0.000 OA
ATOM     12  N   UNL     1      -5.054   4.032 131.135  0.00  0.00    +0.000 N 
ATOM     13  C   UNL     1      -4.737   5.056 132.108  0.00  0.00    +0.000 C 
ATOM     14  C   UNL     1      -3.266   5.001 132.516  0.00  0.00    +0.000 C 
ATOM     15  C   UNL     1      -5.565   5.059 133.377  0.00  0.00    +0.000 C 
ATOM     16  C   UNL     1      -6.535   3.926 133.559  0.00  0.00    +0.000 C 
ATOM     17  O   UNL     1      -6.856   3.094 132.477  0.00  0.00    +0.000 OA
ENDROOT
BRANCH   5  18
ATOM     18  C   UNL     1      -7.693   3.512 125.135  0.00  0.00    +0.000 C 
ATOM     19  O   UNL     1      -8.824   3.990 125.037  0.00  0.00    +0.000 OA
ATOM     20  N   UNL     1      -7.136   2.830 124.094  0.00  0.00    +0.000 N 
ATOM     21  H   UNL     1      -6.205   2.452 124.165  0.00  0.00    +0.000 HD
BRANCH  20  22
ATOM     22  C   UNL     1      -7.830   2.623 122.843  0.00  0.00    +0.000 C 
BRANCH  22  23
ATOM     23  C   UNL     1      -7.275   3.447 121.707  0.00  0.00    +0.000 A 
ATOM     24  C   UNL     1      -5.937   3.869 121.756  0.00  0.00    +0.000 A 
ATOM     25  C   UNL     1      -5.337   4.415 120.619  0.00  0.00    +0.000 A 
ATOM     26  C   UNL     1      -6.124   4.768 119.528  0.00  0.00    +0.000 A 
ATOM     27  F   UNL     1      -5.569   5.398 118.487  0.00  0.00    +0.000 F 
ATOM     28  C   UNL     1      -7.477   4.489 119.508  0.00  0.00    +0.000 A 
ATOM     29  C   UNL     1      -8.019   3.769 120.560  0.00  0.00    +0.000 A 
ATOM     30  F   UNL     1      -9.290   3.358 120.431  0.00  0.00    +0.000 F 
ENDBRANCH  22  23
ENDBRANCH  20  22
ENDBRANCH   5  18
BRANCH   8  31
ATOM     31  O   UNL     1      -3.311   4.587 127.337  0.00  0.00    +0.000 OA
ATOM     32  H   UNL     1      -3.330   5.566 127.369  0.00  0.00    +0.000 HD
ENDBRANCH   8  31
TORSDOF 4
ENDMDL
MODEL 9
REMARK VINA RESULT:      -8.2      3.929      4.641
REMARK  Name = Dolutegravir
REMARK  5 active torsions:
REMARK  status: ('A' for Active; 'I' for Inactive)
REMARK    1  A    between atoms: C_6  and  C_7
REMARK    2  A    between atoms: N_9  and  C_10
REMARK    3  A    between atoms: C_10  and  C_11
REMARK    4  A    between atoms: C_21  and  O_22
REMARK    5  A    between atoms: C_27  and  C_28
REMARK                            x       y       z     vdW  Elec       q    Type
REMARK                         _______ _______ _______ _____ _____    ______ ____
ROOT
ATOM      1  C   UNL     1      -4.884  -0.468 130.890  0.00  0.00    +0.000 C 
ATOM      2  C   UNL     1      -5.157   0.827 130.108  0.00  0.00    +0.000 C 
ATOM      3  N   UNL     1      -6.458   1.441 130.460  0.00  0.00    +0.000 N 
ATOM      4  C   UNL     1      -6.749   2.755 130.100  0.00  0.00    +0.000 A 
ATOM      5  C   UNL     1      -7.924   3.389 130.299  0.00  0.00    +0.000 A 
ATOM      6  C   UNL     1      -8.998   2.570 130.930  0.00  0.00    +0.000 A 
ATOM      7  O   UNL     1     -10.136   2.977 131.169  0.00  0.00    +0.000 OA
ATOM      8  C   UNL     1      -8.707   1.159 131.302  0.00  0.00    +0.000 A 
ATOM      9  C   UNL     1      -7.467   0.678 131.070  0.00  0.00    +0.000 A 
ATOM     10  C   UNL     1      -7.215  -0.762 131.436  0.00  0.00    +0.000 C 
ATOM     11  O   UNL     1      -8.029  -1.417 132.086  0.00  0.00    +0.000 OA
ATOM     12  N   UNL     1      -6.040  -1.318 130.932  0.00  0.00    +0.000 N 
ATOM     13  C   UNL     1      -6.117  -2.622 130.308  0.00  0.00    +0.000 C 
ATOM     14  C   UNL     1      -6.642  -3.675 131.282  0.00  0.00    +0.000 C 
ATOM     15  C   UNL     1      -4.835  -3.156 129.702  0.00  0.00    +0.000 C 
ATOM     16  C   UNL     1      -3.589  -2.347 129.924  0.00  0.00    +0.000 C 
ATOM     17  O   UNL     1      -3.680  -1.032 130.405  0.00  0.00    +0.000 OA
ENDROOT
BRANCH   5  18
ATOM     18  C   UNL     1      -8.193   4.814 129.934  0.00  0.00    +0.000 C 
ATOM     19  O   UNL     1      -7.891   5.286 128.836  0.00  0.00    +0.000 OA
ATOM     20  N   UNL     1      -8.807   5.587 130.875  0.00  0.00    +0.000 N 
ATOM     21  H   UNL     1      -9.070   5.200 131.767  0.00  0.00    +0.000 HD
BRANCH  20  22
ATOM     22  C   UNL     1      -9.122   6.979 130.650  0.00  0.00    +0.000 C 
BRANCH  22  23
ATOM     23  C   UNL     1     -10.427   7.186 129.919  0.00  0.00    +0.000 A 
ATOM     24  C   UNL     1     -10.425   7.869 128.693  0.00  0.00    +0.000 A 
ATOM     25  C   UNL     1     -11.567   7.858 127.888  0.00  0.00    +0.000 A 
ATOM     26  C   UNL     1     -12.769   7.391 128.406  0.00  0.00    +0.000 A 
ATOM     27  F   UNL     1     -13.887   7.488 127.678  0.00  0.00    +0.000 F 
ATOM     28  C   UNL     1     -12.830   6.835 129.670  0.00  0.00    +0.000 A 
ATOM     29  C   UNL     1     -11.652   6.673 130.378  0.00  0.00    +0.000 A 
ATOM     30  F   UNL     1     -11.714   5.971 131.521  0.00  0.00    +0.000 F 
ENDBRANCH  22  23
ENDBRANCH  20  22
ENDBRANCH   5  18
BRANCH   8  31
ATOM     31  O   UNL     1      -9.761   0.443 131.841  0.00  0.00    +0.000 OA
ATOM     32  H   UNL     1      -9.724   0.590 132.810  0.00  0.00    +0.000 HD
ENDBRANCH   8  31
TORSDOF 4
ENDMDL
