MODEL 1
REMARK VINA RESULT:      -5.4      0.000      0.000
REMARK  Name = Domiphen
REMARK  18 active torsions:
REMARK  status: ('A' for Active; 'I' for Inactive)
REMARK    1  A    between atoms: C_1  and  C_2
REMARK    2  A    between atoms: C_2  and  C_3
REMARK    3  A    between atoms: C_3  and  C_4
REMARK    4  A    between atoms: C_4  and  C_5
REMARK    5  A    between atoms: C_5  and  C_6
REMARK    6  A    between atoms: C_6  and  C_7
REMARK    7  A    between atoms: C_7  and  C_8
REMARK    8  A    between atoms: C_8  and  C_9
REMARK    9  A    between atoms: C_9  and  C_10
REMARK   10  A    between atoms: C_10  and  C_11
REMARK   11  A    between atoms: C_11  and  C_12
REMARK   12  A    between atoms: C_12  and  N_13
REMARK   13  A    between atoms: N_13  and  C_14
REMARK   14  A    between atoms: N_13  and  C_15
REMARK   15  A    between atoms: N_13  and  C_16
REMARK   16  A    between atoms: C_16  and  C_17
REMARK   17  A    between atoms: C_17  and  O_18
REMARK   18  A    between atoms: O_18  and  C_19
REMARK                            x       y       z     vdW  Elec       q    Type
REMARK                         _______ _______ _______ _____ _____    ______ ____
ROOT
ATOM      1  C   UNL     1      -6.145  -1.350 128.736  0.00  0.00    +0.000 C 
ENDROOT
BRANCH   1   2
ATOM      2  N   UNL     1      -6.701   0.079 128.581  0.00  0.00    +0.000 N 
ATOM      3  C   UNL     1      -7.676   0.380 129.721  0.00  0.00    +0.000 C 
ATOM      4  C   UNL     1      -5.542   1.081 128.573  0.00  0.00    +0.000 C 
BRANCH   2   5
ATOM      5  C   UNL     1      -7.460   0.140 127.227  0.00  0.00    +0.000 C 
BRANCH   5   6
ATOM      6  C   UNL     1      -8.716   1.009 127.313  0.00  0.00    +0.000 C 
BRANCH   6   7
ATOM      7  O   UNL     1      -8.512   2.222 126.612  0.00  0.00    +0.000 OA
BRANCH   7   8
ATOM      8  C   UNL     1      -8.733   2.098 125.264  0.00  0.00    +0.000 A 
ATOM      9  C   UNL     1      -7.907   2.875 124.452  0.00  0.00    +0.000 A 
ATOM     10  C   UNL     1      -8.138   2.927 123.079  0.00  0.00    +0.000 A 
ATOM     11  C   UNL     1      -9.158   2.171 122.508  0.00  0.00    +0.000 A 
ATOM     12  C   UNL     1      -9.964   1.367 123.312  0.00  0.00    +0.000 A 
ATOM     13  C   UNL     1      -9.758   1.340 124.691  0.00  0.00    +0.000 A 
ENDBRANCH   7   8
ENDBRANCH   6   7
ENDBRANCH   5   6
ENDBRANCH   2   5
ENDBRANCH   1   2
BRANCH   1  14
ATOM     14  C   UNL     1      -6.877  -2.314 127.818  0.00  0.00    +0.000 C 
BRANCH  14  15
ATOM     15  C   UNL     1      -7.813  -3.211 128.586  0.00  0.00    +0.000 C 
BRANCH  15  16
ATOM     16  C   UNL     1      -8.883  -3.699 127.625  0.00  0.00    +0.000 C 
BRANCH  16  17
ATOM     17  C   UNL     1      -8.404  -3.498 126.208  0.00  0.00    +0.000 C 
BRANCH  17  18
ATOM     18  C   UNL     1      -9.522  -2.922 125.365  0.00  0.00    +0.000 C 
BRANCH  18  19
ATOM     19  C   UNL     1      -9.296  -3.295 123.914  0.00  0.00    +0.000 C 
BRANCH  19  20
ATOM     20  C   UNL     1      -9.041  -2.045 123.094  0.00  0.00    +0.000 C 
BRANCH  20  21
ATOM     21  C   UNL     1      -7.567  -1.953 122.738  0.00  0.00    +0.000 C 
BRANCH  21  22
ATOM     22  C   UNL     1      -6.860  -1.000 123.688  0.00  0.00    +0.000 C 
BRANCH  22  24
ATOM     23  C   UNL     1      -5.493  -3.085 123.789  0.00  0.00    +0.000 C 
ATOM     24  C   UNL     1      -5.677  -1.688 124.352  0.00  0.00    +0.000 C 
ENDBRANCH  22  24
ENDBRANCH  21  22
ENDBRANCH  20  21
ENDBRANCH  19  20
ENDBRANCH  18  19
ENDBRANCH  17  18
ENDBRANCH  16  17
ENDBRANCH  15  16
ENDBRANCH  14  15
ENDBRANCH   1  14
TORSDOF 15
ENDMDL
MODEL 2
REMARK VINA RESULT:      -5.4      2.822      5.560
REMARK  Name = Domiphen
REMARK  18 active torsions:
REMARK  status: ('A' for Active; 'I' for Inactive)
REMARK    1  A    between atoms: C_1  and  C_2
REMARK    2  A    between atoms: C_2  and  C_3
REMARK    3  A    between atoms: C_3  and  C_4
REMARK    4  A    between atoms: C_4  and  C_5
REMARK    5  A    between atoms: C_5  and  C_6
REMARK    6  A    between atoms: C_6  and  C_7
REMARK    7  A    between atoms: C_7  and  C_8
REMARK    8  A    between atoms: C_8  and  C_9
REMARK    9  A    between atoms: C_9  and  C_10
REMARK   10  A    between atoms: C_10  and  C_11
REMARK   11  A    between atoms: C_11  and  C_12
REMARK   12  A    between atoms: C_12  and  N_13
REMARK   13  A    between atoms: N_13  and  C_14
REMARK   14  A    between atoms: N_13  and  C_15
REMARK   15  A    between atoms: N_13  and  C_16
REMARK   16  A    between atoms: C_16  and  C_17
REMARK   17  A    between atoms: C_17  and  O_18
REMARK   18  A    between atoms: O_18  and  C_19
REMARK                            x       y       z     vdW  Elec       q    Type
REMARK                         _______ _______ _______ _____ _____    ______ ____
ROOT
ATOM      1  C   UNL     1      -9.266  -1.595 123.445  0.00  0.00    +0.000 C 
ENDROOT
BRANCH   1   2
ATOM      2  N   UNL     1      -8.757  -0.185 123.799  0.00  0.00    +0.000 N 
ATOM      3  C   UNL     1      -9.146   0.159 125.238  0.00  0.00    +0.000 C 
ATOM      4  C   UNL     1      -7.237  -0.127 123.613  0.00  0.00    +0.000 C 
BRANCH   2   5
ATOM      5  C   UNL     1      -9.444   0.816 122.828  0.00  0.00    +0.000 C 
BRANCH   5   6
ATOM      6  C   UNL     1      -8.986   2.256 123.072  0.00  0.00    +0.000 C 
BRANCH   6   7
ATOM      7  O   UNL     1      -8.992   2.976 121.852  0.00  0.00    +0.000 OA
BRANCH   7   8
ATOM      8  C   UNL     1      -7.769   3.517 121.551  0.00  0.00    +0.000 A 
ATOM      9  C   UNL     1      -7.628   3.975 120.241  0.00  0.00    +0.000 A 
ATOM     10  C   UNL     1      -6.385   4.417 119.793  0.00  0.00    +0.000 A 
ATOM     11  C   UNL     1      -5.296   4.447 120.658  0.00  0.00    +0.000 A 
ATOM     12  C   UNL     1      -5.440   4.021 121.978  0.00  0.00    +0.000 A 
ATOM     13  C   UNL     1      -6.674   3.546 122.419  0.00  0.00    +0.000 A 
ENDBRANCH   7   8
ENDBRANCH   6   7
ENDBRANCH   5   6
ENDBRANCH   2   5
ENDBRANCH   1   2
BRANCH   1  14
ATOM     14  C   UNL     1      -8.156  -2.622 123.597  0.00  0.00    +0.000 C 
BRANCH  14  15
ATOM     15  C   UNL     1      -8.516  -3.685 124.602  0.00  0.00    +0.000 C 
BRANCH  15  16
ATOM     16  C   UNL     1      -7.970  -3.252 125.952  0.00  0.00    +0.000 C 
BRANCH  16  17
ATOM     17  C   UNL     1      -9.078  -3.306 126.974  0.00  0.00    +0.000 C 
BRANCH  17  18
ATOM     18  C   UNL     1      -8.548  -3.870 128.276  0.00  0.00    +0.000 C 
BRANCH  18  19
ATOM     19  C   UNL     1      -8.163  -2.727 129.194  0.00  0.00    +0.000 C 
BRANCH  19  20
ATOM     20  C   UNL     1      -7.367  -3.256 130.370  0.00  0.00    +0.000 C 
BRANCH  20  21
ATOM     21  C   UNL     1      -6.227  -4.128 129.871  0.00  0.00    +0.000 C 
BRANCH  21  22
ATOM     22  C   UNL     1      -5.519  -4.783 131.046  0.00  0.00    +0.000 C 
BRANCH  22  24
ATOM     23  C   UNL     1      -5.340  -4.885 133.533  0.00  0.00    +0.000 C 
ATOM     24  C   UNL     1      -6.059  -4.243 132.362  0.00  0.00    +0.000 C 
ENDBRANCH  22  24
ENDBRANCH  21  22
ENDBRANCH  20  21
ENDBRANCH  19  20
ENDBRANCH  18  19
ENDBRANCH  17  18
ENDBRANCH  16  17
ENDBRANCH  15  16
ENDBRANCH  14  15
ENDBRANCH   1  14
TORSDOF 15
ENDMDL
MODEL 3
REMARK VINA RESULT:      -5.3      2.197      3.070
REMARK  Name = Domiphen
REMARK  18 active torsions:
REMARK  status: ('A' for Active; 'I' for Inactive)
REMARK    1  A    between atoms: C_1  and  C_2
REMARK    2  A    between atoms: C_2  and  C_3
REMARK    3  A    between atoms: C_3  and  C_4
REMARK    4  A    between atoms: C_4  and  C_5
REMARK    5  A    between atoms: C_5  and  C_6
REMARK    6  A    between atoms: C_6  and  C_7
REMARK    7  A    between atoms: C_7  and  C_8
REMARK    8  A    between atoms: C_8  and  C_9
REMARK    9  A    between atoms: C_9  and  C_10
REMARK   10  A    between atoms: C_10  and  C_11
REMARK   11  A    between atoms: C_11  and  C_12
REMARK   12  A    between atoms: C_12  and  N_13
REMARK   13  A    between atoms: N_13  and  C_14
REMARK   14  A    between atoms: N_13  and  C_15
REMARK   15  A    between atoms: N_13  and  C_16
REMARK   16  A    between atoms: C_16  and  C_17
REMARK   17  A    between atoms: C_17  and  O_18
REMARK   18  A    between atoms: O_18  and  C_19
REMARK                            x       y       z     vdW  Elec       q    Type
REMARK                         _______ _______ _______ _____ _____    ______ ____
ROOT
ATOM      1  C   UNL     1      -6.679   1.061 126.304  0.00  0.00    +0.000 C 
ENDROOT
BRANCH   1   2
ATOM      2  N   UNL     1      -6.224   2.528 126.412  0.00  0.00    +0.000 N 
ATOM      3  C   UNL     1      -6.645   3.101 127.767  0.00  0.00    +0.000 C 
ATOM      4  C   UNL     1      -4.705   2.608 126.233  0.00  0.00    +0.000 C 
BRANCH   2   5
ATOM      5  C   UNL     1      -6.931   3.321 125.278  0.00  0.00    +0.000 C 
BRANCH   5   6
ATOM      6  C   UNL     1      -6.999   2.520 123.976  0.00  0.00    +0.000 C 
BRANCH   6   7
ATOM      7  O   UNL     1      -6.201   3.143 122.985  0.00  0.00    +0.000 OA
BRANCH   7   8
ATOM      8  C   UNL     1      -6.900   3.414 121.836  0.00  0.00    +0.000 A 
ATOM      9  C   UNL     1      -6.137   3.904 120.777  0.00  0.00    +0.000 A 
ATOM     10  C   UNL     1      -6.767   4.338 119.613  0.00  0.00    +0.000 A 
ATOM     11  C   UNL     1      -8.149   4.241 119.484  0.00  0.00    +0.000 A 
ATOM     12  C   UNL     1      -8.913   3.719 120.527  0.00  0.00    +0.000 A 
ATOM     13  C   UNL     1      -8.289   3.316 121.706  0.00  0.00    +0.000 A 
ENDBRANCH   7   8
ENDBRANCH   6   7
ENDBRANCH   5   6
ENDBRANCH   2   5
ENDBRANCH   1   2
BRANCH   1  14
ATOM     14  C   UNL     1      -5.560   0.118 126.714  0.00  0.00    +0.000 C 
BRANCH  14  15
ATOM     15  C   UNL     1      -6.097  -1.142 127.341  0.00  0.00    +0.000 C 
BRANCH  15  16
ATOM     16  C   UNL     1      -7.543  -1.300 126.905  0.00  0.00    +0.000 C 
BRANCH  16  17
ATOM     17  C   UNL     1      -8.048  -2.651 127.348  0.00  0.00    +0.000 C 
BRANCH  17  18
ATOM     18  C   UNL     1      -8.504  -3.447 126.144  0.00  0.00    +0.000 C 
BRANCH  18  19
ATOM     19  C   UNL     1      -9.246  -2.531 125.191  0.00  0.00    +0.000 C 
BRANCH  19  20
ATOM     20  C   UNL     1      -8.913  -2.898 123.758  0.00  0.00    +0.000 C 
BRANCH  20  21
ATOM     21  C   UNL     1      -8.635  -1.638 122.955  0.00  0.00    +0.000 C 
BRANCH  21  22
ATOM     22  C   UNL     1      -7.180  -1.228 123.116  0.00  0.00    +0.000 C 
BRANCH  22  24
ATOM     23  C   UNL     1      -5.246  -2.479 124.079  0.00  0.00    +0.000 C 
ATOM     24  C   UNL     1      -6.265  -2.433 122.955  0.00  0.00    +0.000 C 
ENDBRANCH  22  24
ENDBRANCH  21  22
ENDBRANCH  20  21
ENDBRANCH  19  20
ENDBRANCH  18  19
ENDBRANCH  17  18
ENDBRANCH  16  17
ENDBRANCH  15  16
ENDBRANCH  14  15
ENDBRANCH   1  14
TORSDOF 15
ENDMDL
MODEL 4
REMARK VINA RESULT:      -5.2      1.394      2.148
REMARK  Name = Domiphen
REMARK  18 active torsions:
REMARK  status: ('A' for Active; 'I' for Inactive)
REMARK    1  A    between atoms: C_1  and  C_2
REMARK    2  A    between atoms: C_2  and  C_3
REMARK    3  A    between atoms: C_3  and  C_4
REMARK    4  A    between atoms: C_4  and  C_5
REMARK    5  A    between atoms: C_5  and  C_6
REMARK    6  A    between atoms: C_6  and  C_7
REMARK    7  A    between atoms: C_7  and  C_8
REMARK    8  A    between atoms: C_8  and  C_9
REMARK    9  A    between atoms: C_9  and  C_10
REMARK   10  A    between atoms: C_10  and  C_11
REMARK   11  A    between atoms: C_11  and  C_12
REMARK   12  A    between atoms: C_12  and  N_13
REMARK   13  A    between atoms: N_13  and  C_14
REMARK   14  A    between atoms: N_13  and  C_15
REMARK   15  A    between atoms: N_13  and  C_16
REMARK   16  A    between atoms: C_16  and  C_17
REMARK   17  A    between atoms: C_17  and  O_18
REMARK   18  A    between atoms: O_18  and  C_19
REMARK                            x       y       z     vdW  Elec       q    Type
REMARK                         _______ _______ _______ _____ _____    ______ ____
ROOT
ATOM      1  C   UNL     1      -7.882  -0.046 129.790  0.00  0.00    +0.000 C 
ENDROOT
BRANCH   1   2
ATOM      2  N   UNL     1      -6.853   1.088 129.958  0.00  0.00    +0.000 N 
ATOM      3  C   UNL     1      -7.545   2.443 129.797  0.00  0.00    +0.000 C 
ATOM      4  C   UNL     1      -6.186   0.975 131.333  0.00  0.00    +0.000 C 
BRANCH   2   5
ATOM      5  C   UNL     1      -5.787   0.920 128.840  0.00  0.00    +0.000 C 
BRANCH   5   6
ATOM      6  C   UNL     1      -6.253   1.517 127.510  0.00  0.00    +0.000 C 
BRANCH   6   7
ATOM      7  O   UNL     1      -6.379   0.493 126.540  0.00  0.00    +0.000 OA
BRANCH   7   8
ATOM      8  C   UNL     1      -7.373   0.747 125.630  0.00  0.00    +0.000 A 
ATOM      9  C   UNL     1      -8.672   0.549 126.097  0.00  0.00    +0.000 A 
ATOM     10  C   UNL     1      -9.747   0.646 125.215  0.00  0.00    +0.000 A 
ATOM     11  C   UNL     1      -9.534   0.986 123.883  0.00  0.00    +0.000 A 
ATOM     12  C   UNL     1      -8.240   1.219 123.419  0.00  0.00    +0.000 A 
ATOM     13  C   UNL     1      -7.160   1.088 124.291  0.00  0.00    +0.000 A 
ENDBRANCH   7   8
ENDBRANCH   6   7
ENDBRANCH   5   6
ENDBRANCH   2   5
ENDBRANCH   1   2
BRANCH   1  14
ATOM     14  C   UNL     1      -7.186  -1.391 129.670  0.00  0.00    +0.000 C 
BRANCH  14  15
ATOM     15  C   UNL     1      -7.626  -2.136 128.437  0.00  0.00    +0.000 C 
BRANCH  15  16
ATOM     16  C   UNL     1      -8.338  -3.400 128.885  0.00  0.00    +0.000 C 
BRANCH  16  17
ATOM     17  C   UNL     1      -9.012  -4.037 127.695  0.00  0.00    +0.000 C 
BRANCH  17  18
ATOM     18  C   UNL     1      -9.033  -3.063 126.536  0.00  0.00    +0.000 C 
BRANCH  18  19
ATOM     19  C   UNL     1      -8.456  -3.738 125.307  0.00  0.00    +0.000 C 
BRANCH  19  20
ATOM     20  C   UNL     1      -8.606  -2.831 124.102  0.00  0.00    +0.000 C 
BRANCH  20  21
ATOM     21  C   UNL     1      -7.234  -2.439 123.578  0.00  0.00    +0.000 C 
BRANCH  21  22
ATOM     22  C   UNL     1      -6.153  -3.191 124.336  0.00  0.00    +0.000 C 
BRANCH  22  24
ATOM     23  C   UNL     1      -4.295  -4.684 123.595  0.00  0.00    +0.000 C 
ATOM     24  C   UNL     1      -4.886  -3.290 123.499  0.00  0.00    +0.000 C 
ENDBRANCH  22  24
ENDBRANCH  21  22
ENDBRANCH  20  21
ENDBRANCH  19  20
ENDBRANCH  18  19
ENDBRANCH  17  18
ENDBRANCH  16  17
ENDBRANCH  15  16
ENDBRANCH  14  15
ENDBRANCH   1  14
TORSDOF 15
ENDMDL
MODEL 5
REMARK VINA RESULT:      -5.2      2.070      5.289
REMARK  Name = Domiphen
REMARK  18 active torsions:
REMARK  status: ('A' for Active; 'I' for Inactive)
REMARK    1  A    between atoms: C_1  and  C_2
REMARK    2  A    between atoms: C_2  and  C_3
REMARK    3  A    between atoms: C_3  and  C_4
REMARK    4  A    between atoms: C_4  and  C_5
REMARK    5  A    between atoms: C_5  and  C_6
REMARK    6  A    between atoms: C_6  and  C_7
REMARK    7  A    between atoms: C_7  and  C_8
REMARK    8  A    between atoms: C_8  and  C_9
REMARK    9  A    between atoms: C_9  and  C_10
REMARK   10  A    between atoms: C_10  and  C_11
REMARK   11  A    between atoms: C_11  and  C_12
REMARK   12  A    between atoms: C_12  and  N_13
REMARK   13  A    between atoms: N_13  and  C_14
REMARK   14  A    between atoms: N_13  and  C_15
REMARK   15  A    between atoms: N_13  and  C_16
REMARK   16  A    between atoms: C_16  and  C_17
REMARK   17  A    between atoms: C_17  and  O_18
REMARK   18  A    between atoms: O_18  and  C_19
REMARK                            x       y       z     vdW  Elec       q    Type
REMARK                         _______ _______ _______ _____ _____    ______ ____
ROOT
ATOM      1  C   UNL     1      -7.631   0.775 126.785  0.00  0.00    +0.000 C 
ENDROOT
BRANCH   1   2
ATOM      2  N   UNL     1      -7.807   1.537 125.457  0.00  0.00    +0.000 N 
ATOM      3  C   UNL     1      -8.235   2.978 125.742  0.00  0.00    +0.000 C 
ATOM      4  C   UNL     1      -6.494   1.502 124.668  0.00  0.00    +0.000 C 
BRANCH   2   5
ATOM      5  C   UNL     1      -8.925   0.819 124.652  0.00  0.00    +0.000 C 
BRANCH   5   6
ATOM      6  C   UNL     1      -8.474   0.468 123.233  0.00  0.00    +0.000 C 
BRANCH   6   7
ATOM      7  O   UNL     1      -8.857  -0.859 122.920  0.00  0.00    +0.000 OA
BRANCH   7   8
ATOM      8  C   UNL     1      -7.881  -1.775 123.218  0.00  0.00    +0.000 A 
ATOM      9  C   UNL     1      -8.324  -2.925 123.871  0.00  0.00    +0.000 A 
ATOM     10  C   UNL     1      -7.399  -3.855 124.340  0.00  0.00    +0.000 A 
ATOM     11  C   UNL     1      -6.038  -3.666 124.118  0.00  0.00    +0.000 A 
ATOM     12  C   UNL     1      -5.592  -2.535 123.436  0.00  0.00    +0.000 A 
ATOM     13  C   UNL     1      -6.514  -1.585 122.996  0.00  0.00    +0.000 A 
ENDBRANCH   7   8
ENDBRANCH   6   7
ENDBRANCH   5   6
ENDBRANCH   2   5
ENDBRANCH   1   2
BRANCH   1  14
ATOM     14  C   UNL     1      -8.300  -0.588 126.716  0.00  0.00    +0.000 C 
BRANCH  14  15
ATOM     15  C   UNL     1      -7.573  -1.607 127.554  0.00  0.00    +0.000 C 
BRANCH  15  16
ATOM     16  C   UNL     1      -8.413  -2.871 127.582  0.00  0.00    +0.000 C 
BRANCH  16  17
ATOM     17  C   UNL     1      -8.123  -3.630 128.853  0.00  0.00    +0.000 C 
BRANCH  17  18
ATOM     18  C   UNL     1      -7.879  -2.656 129.987  0.00  0.00    +0.000 C 
BRANCH  18  19
ATOM     19  C   UNL     1      -6.892  -3.264 130.963  0.00  0.00    +0.000 C 
BRANCH  19  20
ATOM     20  C   UNL     1      -6.079  -4.341 130.271  0.00  0.00    +0.000 C 
BRANCH  20  21
ATOM     21  C   UNL     1      -4.602  -3.988 130.326  0.00  0.00    +0.000 C 
BRANCH  21  22
ATOM     22  C   UNL     1      -4.290  -2.899 129.312  0.00  0.00    +0.000 C 
BRANCH  22  24
ATOM     23  C   UNL     1      -4.695  -0.476 129.756  0.00  0.00    +0.000 C 
ATOM     24  C   UNL     1      -3.770  -1.652 130.012  0.00  0.00    +0.000 C 
ENDBRANCH  22  24
ENDBRANCH  21  22
ENDBRANCH  20  21
ENDBRANCH  19  20
ENDBRANCH  18  19
ENDBRANCH  17  18
ENDBRANCH  16  17
ENDBRANCH  15  16
ENDBRANCH  14  15
ENDBRANCH   1  14
TORSDOF 15
ENDMDL
MODEL 6
REMARK VINA RESULT:      -5.2      8.703     12.125
REMARK  Name = Domiphen
REMARK  18 active torsions:
REMARK  status: ('A' for Active; 'I' for Inactive)
REMARK    1  A    between atoms: C_1  and  C_2
REMARK    2  A    between atoms: C_2  and  C_3
REMARK    3  A    between atoms: C_3  and  C_4
REMARK    4  A    between atoms: C_4  and  C_5
REMARK    5  A    between atoms: C_5  and  C_6
REMARK    6  A    between atoms: C_6  and  C_7
REMARK    7  A    between atoms: C_7  and  C_8
REMARK    8  A    between atoms: C_8  and  C_9
REMARK    9  A    between atoms: C_9  and  C_10
REMARK   10  A    between atoms: C_10  and  C_11
REMARK   11  A    between atoms: C_11  and  C_12
REMARK   12  A    between atoms: C_12  and  N_13
REMARK   13  A    between atoms: N_13  and  C_14
REMARK   14  A    between atoms: N_13  and  C_15
REMARK   15  A    between atoms: N_13  and  C_16
REMARK   16  A    between atoms: C_16  and  C_17
REMARK   17  A    between atoms: C_17  and  O_18
REMARK   18  A    between atoms: O_18  and  C_19
REMARK                            x       y       z     vdW  Elec       q    Type
REMARK                         _______ _______ _______ _____ _____    ______ ____
ROOT
ATOM      1  C   UNL     1      -8.218   4.757 132.004  0.00  0.00    +0.000 C 
ENDROOT
BRANCH   1   2
ATOM      2  N   UNL     1      -9.147   5.722 131.243  0.00  0.00    +0.000 N 
ATOM      3  C   UNL     1      -8.365   6.967 130.821  0.00  0.00    +0.000 C 
ATOM      4  C   UNL     1      -9.739   5.008 130.024  0.00  0.00    +0.000 C 
BRANCH   2   5
ATOM      5  C   UNL     1     -10.286   6.136 132.215  0.00  0.00    +0.000 C 
BRANCH   5   6
ATOM      6  C   UNL     1     -11.663   6.049 131.554  0.00  0.00    +0.000 C 
BRANCH   6   7
ATOM      7  O   UNL     1     -12.221   7.345 131.431  0.00  0.00    +0.000 OA
BRANCH   7   8
ATOM      8  C   UNL     1     -12.649   7.618 130.157  0.00  0.00    +0.000 A 
ATOM      9  C   UNL     1     -12.747   8.972 129.840  0.00  0.00    +0.000 A 
ATOM     10  C   UNL     1     -13.300   9.359 128.621  0.00  0.00    +0.000 A 
ATOM     11  C   UNL     1     -13.712   8.401 127.700  0.00  0.00    +0.000 A 
ATOM     12  C   UNL     1     -13.585   7.045 127.999  0.00  0.00    +0.000 A 
ATOM     13  C   UNL     1     -13.063   6.655 129.232  0.00  0.00    +0.000 A 
ENDBRANCH   7   8
ENDBRANCH   6   7
ENDBRANCH   5   6
ENDBRANCH   2   5
ENDBRANCH   1   2
BRANCH   1  14
ATOM     14  C   UNL     1      -8.966   4.066 133.132  0.00  0.00    +0.000 C 
BRANCH  14  15
ATOM     15  C   UNL     1      -8.099   3.897 134.352  0.00  0.00    +0.000 C 
BRANCH  15  16
ATOM     16  C   UNL     1      -7.659   5.278 134.805  0.00  0.00    +0.000 C 
BRANCH  16  17
ATOM     17  C   UNL     1      -6.780   5.142 136.024  0.00  0.00    +0.000 C 
BRANCH  17  18
ATOM     18  C   UNL     1      -6.441   6.514 136.567  0.00  0.00    +0.000 C 
BRANCH  18  19
ATOM     19  C   UNL     1      -6.881   6.599 138.015  0.00  0.00    +0.000 C 
BRANCH  19  20
ATOM     20  C   UNL     1      -8.362   6.915 138.087  0.00  0.00    +0.000 C 
BRANCH  20  21
ATOM     21  C   UNL     1      -8.633   8.266 137.448  0.00  0.00    +0.000 C 
BRANCH  21  22
ATOM     22  C   UNL     1     -10.097   8.638 137.618  0.00  0.00    +0.000 C 
BRANCH  22  24
ATOM     23  C   UNL     1      -8.920  10.206 139.163  0.00  0.00    +0.000 C 
ATOM     24  C   UNL     1     -10.233   9.892 138.470  0.00  0.00    +0.000 C 
ENDBRANCH  22  24
ENDBRANCH  21  22
ENDBRANCH  20  21
ENDBRANCH  19  20
ENDBRANCH  18  19
ENDBRANCH  17  18
ENDBRANCH  16  17
ENDBRANCH  15  16
ENDBRANCH  14  15
ENDBRANCH   1  14
TORSDOF 15
ENDMDL
MODEL 7
REMARK VINA RESULT:      -5.1      2.452      5.528
REMARK  Name = Domiphen
REMARK  18 active torsions:
REMARK  status: ('A' for Active; 'I' for Inactive)
REMARK    1  A    between atoms: C_1  and  C_2
REMARK    2  A    between atoms: C_2  and  C_3
REMARK    3  A    between atoms: C_3  and  C_4
REMARK    4  A    between atoms: C_4  and  C_5
REMARK    5  A    between atoms: C_5  and  C_6
REMARK    6  A    between atoms: C_6  and  C_7
REMARK    7  A    between atoms: C_7  and  C_8
REMARK    8  A    between atoms: C_8  and  C_9
REMARK    9  A    between atoms: C_9  and  C_10
REMARK   10  A    between atoms: C_10  and  C_11
REMARK   11  A    between atoms: C_11  and  C_12
REMARK   12  A    between atoms: C_12  and  N_13
REMARK   13  A    between atoms: N_13  and  C_14
REMARK   14  A    between atoms: N_13  and  C_15
REMARK   15  A    between atoms: N_13  and  C_16
REMARK   16  A    between atoms: C_16  and  C_17
REMARK   17  A    between atoms: C_17  and  O_18
REMARK   18  A    between atoms: O_18  and  C_19
REMARK                            x       y       z     vdW  Elec       q    Type
REMARK                         _______ _______ _______ _____ _____    ______ ____
ROOT
ATOM      1  C   UNL     1      -8.962  -1.709 124.034  0.00  0.00    +0.000 C 
ENDROOT
BRANCH   1   2
ATOM      2  N   UNL     1      -8.154  -0.400 123.962  0.00  0.00    +0.000 N 
ATOM      3  C   UNL     1      -7.810   0.074 125.375  0.00  0.00    +0.000 C 
ATOM      4  C   UNL     1      -6.884  -0.627 123.136  0.00  0.00    +0.000 C 
BRANCH   2   5
ATOM      5  C   UNL     1      -9.050   0.663 123.268  0.00  0.00    +0.000 C 
BRANCH   5   6
ATOM      6  C   UNL     1      -8.465   2.072 123.388  0.00  0.00    +0.000 C 
BRANCH   6   7
ATOM      7  O   UNL     1      -9.094   2.936 122.458  0.00  0.00    +0.000 OA
BRANCH   7   8
ATOM      8  C   UNL     1      -8.212   3.480 121.560  0.00  0.00    +0.000 A 
ATOM      9  C   UNL     1      -8.768   3.872 120.343  0.00  0.00    +0.000 A 
ATOM     10  C   UNL     1      -7.939   4.310 119.313  0.00  0.00    +0.000 A 
ATOM     11  C   UNL     1      -6.565   4.402 119.507  0.00  0.00    +0.000 A 
ATOM     12  C   UNL     1      -6.007   4.043 120.734  0.00  0.00    +0.000 A 
ATOM     13  C   UNL     1      -6.831   3.572 121.755  0.00  0.00    +0.000 A 
ENDBRANCH   7   8
ENDBRANCH   6   7
ENDBRANCH   5   6
ENDBRANCH   2   5
ENDBRANCH   1   2
BRANCH   1  14
ATOM     14  C   UNL     1      -8.039  -2.903 124.216  0.00  0.00    +0.000 C 
BRANCH  14  15
ATOM     15  C   UNL     1      -8.479  -3.777 125.361  0.00  0.00    +0.000 C 
BRANCH  15  16
ATOM     16  C   UNL     1      -8.146  -3.054 126.653  0.00  0.00    +0.000 C 
BRANCH  16  17
ATOM     17  C   UNL     1      -8.845  -3.742 127.800  0.00  0.00    +0.000 C 
BRANCH  17  18
ATOM     18  C   UNL     1      -8.345  -3.183 129.115  0.00  0.00    +0.000 C 
BRANCH  18  19
ATOM     19  C   UNL     1      -7.449  -1.992 128.842  0.00  0.00    +0.000 C 
BRANCH  19  20
ATOM     20  C   UNL     1      -7.765  -0.874 129.816  0.00  0.00    +0.000 C 
BRANCH  20  21
ATOM     21  C   UNL     1      -7.801  -1.421 131.234  0.00  0.00    +0.000 C 
BRANCH  21  22
ATOM     22  C   UNL     1      -8.489  -0.428 132.157  0.00  0.00    +0.000 C 
BRANCH  22  24
ATOM     23  C   UNL     1      -9.454   1.868 132.320  0.00  0.00    +0.000 C 
ATOM     24  C   UNL     1      -8.962   0.788 131.375  0.00  0.00    +0.000 C 
ENDBRANCH  22  24
ENDBRANCH  21  22
ENDBRANCH  20  21
ENDBRANCH  19  20
ENDBRANCH  18  19
ENDBRANCH  17  18
ENDBRANCH  16  17
ENDBRANCH  15  16
ENDBRANCH  14  15
ENDBRANCH   1  14
TORSDOF 15
ENDMDL
MODEL 8
REMARK VINA RESULT:      -5.1      3.149      5.432
REMARK  Name = Domiphen
REMARK  18 active torsions:
REMARK  status: ('A' for Active; 'I' for Inactive)
REMARK    1  A    between atoms: C_1  and  C_2
REMARK    2  A    between atoms: C_2  and  C_3
REMARK    3  A    between atoms: C_3  and  C_4
REMARK    4  A    between atoms: C_4  and  C_5
REMARK    5  A    between atoms: C_5  and  C_6
REMARK    6  A    between atoms: C_6  and  C_7
REMARK    7  A    between atoms: C_7  and  C_8
REMARK    8  A    between atoms: C_8  and  C_9
REMARK    9  A    between atoms: C_9  and  C_10
REMARK   10  A    between atoms: C_10  and  C_11
REMARK   11  A    between atoms: C_11  and  C_12
REMARK   12  A    between atoms: C_12  and  N_13
REMARK   13  A    between atoms: N_13  and  C_14
REMARK   14  A    between atoms: N_13  and  C_15
REMARK   15  A    between atoms: N_13  and  C_16
REMARK   16  A    between atoms: C_16  and  C_17
REMARK   17  A    between atoms: C_17  and  O_18
REMARK   18  A    between atoms: O_18  and  C_19
REMARK                            x       y       z     vdW  Elec       q    Type
REMARK                         _______ _______ _______ _____ _____    ______ ____
ROOT
ATOM      1  C   UNL     1      -6.363  -2.773 129.760  0.00  0.00    +0.000 C 
ENDROOT
BRANCH   1   2
ATOM      2  N   UNL     1      -5.683  -2.882 131.138  0.00  0.00    +0.000 N 
ATOM      3  C   UNL     1      -6.695  -3.372 132.176  0.00  0.00    +0.000 C 
ATOM      4  C   UNL     1      -4.488  -3.836 131.047  0.00  0.00    +0.000 C 
BRANCH   2   5
ATOM      5  C   UNL     1      -5.193  -1.460 131.530  0.00  0.00    +0.000 C 
BRANCH   5   6
ATOM      6  C   UNL     1      -6.217  -0.719 132.393  0.00  0.00    +0.000 C 
BRANCH   6   7
ATOM      7  O   UNL     1      -7.118  -0.006 131.566  0.00  0.00    +0.000 OA
BRANCH   7   8
ATOM      8  C   UNL     1      -7.776   0.992 132.238  0.00  0.00    +0.000 A 
ATOM      9  C   UNL     1      -9.104   1.187 131.862  0.00  0.00    +0.000 A 
ATOM     10  C   UNL     1      -9.821   2.262 132.384  0.00  0.00    +0.000 A 
ATOM     11  C   UNL     1      -9.233   3.113 133.314  0.00  0.00    +0.000 A 
ATOM     12  C   UNL     1      -7.916   2.902 133.719  0.00  0.00    +0.000 A 
ATOM     13  C   UNL     1      -7.185   1.848 133.172  0.00  0.00    +0.000 A 
ENDBRANCH   7   8
ENDBRANCH   6   7
ENDBRANCH   5   6
ENDBRANCH   2   5
ENDBRANCH   1   2
BRANCH   1  14
ATOM     14  C   UNL     1      -7.761  -3.368 129.801  0.00  0.00    +0.000 C 
BRANCH  14  15
ATOM     15  C   UNL     1      -8.390  -3.404 128.433  0.00  0.00    +0.000 C 
BRANCH  15  16
ATOM     16  C   UNL     1      -7.658  -2.401 127.558  0.00  0.00    +0.000 C 
BRANCH  16  17
ATOM     17  C   UNL     1      -8.597  -1.902 126.487  0.00  0.00    +0.000 C 
BRANCH  17  18
ATOM     18  C   UNL     1      -9.387  -3.061 125.918  0.00  0.00    +0.000 C 
BRANCH  18  19
ATOM     19  C   UNL     1      -9.145  -3.145 124.424  0.00  0.00    +0.000 C 
BRANCH  19  20
ATOM     20  C   UNL     1      -7.694  -3.492 124.155  0.00  0.00    +0.000 C 
BRANCH  20  21
ATOM     21  C   UNL     1      -7.024  -2.357 123.400  0.00  0.00    +0.000 C 
BRANCH  21  22
ATOM     22  C   UNL     1      -5.535  -2.631 123.264  0.00  0.00    +0.000 C 
BRANCH  22  24
ATOM     23  C   UNL     1      -4.264  -4.768 123.478  0.00  0.00    +0.000 C 
ATOM     24  C   UNL     1      -5.108  -3.742 124.211  0.00  0.00    +0.000 C 
ENDBRANCH  22  24
ENDBRANCH  21  22
ENDBRANCH  20  21
ENDBRANCH  19  20
ENDBRANCH  18  19
ENDBRANCH  17  18
ENDBRANCH  16  17
ENDBRANCH  15  16
ENDBRANCH  14  15
ENDBRANCH   1  14
TORSDOF 15
ENDMDL
MODEL 9
REMARK VINA RESULT:      -5.0      4.957      8.614
REMARK  Name = Domiphen
REMARK  18 active torsions:
REMARK  status: ('A' for Active; 'I' for Inactive)
REMARK    1  A    between atoms: C_1  and  C_2
REMARK    2  A    between atoms: C_2  and  C_3
REMARK    3  A    between atoms: C_3  and  C_4
REMARK    4  A    between atoms: C_4  and  C_5
REMARK    5  A    between atoms: C_5  and  C_6
REMARK    6  A    between atoms: C_6  and  C_7
REMARK    7  A    between atoms: C_7  and  C_8
REMARK    8  A    between atoms: C_8  and  C_9
REMARK    9  A    between atoms: C_9  and  C_10
REMARK   10  A    between atoms: C_10  and  C_11
REMARK   11  A    between atoms: C_11  and  C_12
REMARK   12  A    between atoms: C_12  and  N_13
REMARK   13  A    between atoms: N_13  and  C_14
REMARK   14  A    between atoms: N_13  and  C_15
REMARK   15  A    between atoms: N_13  and  C_16
REMARK   16  A    between atoms: C_16  and  C_17
REMARK   17  A    between atoms: C_17  and  O_18
REMARK   18  A    between atoms: O_18  and  C_19
REMARK                            x       y       z     vdW  Elec       q    Type
REMARK                         _______ _______ _______ _____ _____    ______ ____
ROOT
ATOM      1  C   UNL     1      -7.594   2.736 131.693  0.00  0.00    +0.000 C 
ENDROOT
BRANCH   1   2
ATOM      2  N   UNL     1      -8.754   1.967 131.032  0.00  0.00    +0.000 N 
ATOM      3  C   UNL     1      -9.954   1.927 131.981  0.00  0.00    +0.000 C 
ATOM      4  C   UNL     1      -9.126   2.638 129.707  0.00  0.00    +0.000 C 
BRANCH   2   5
ATOM      5  C   UNL     1      -8.261   0.517 130.768  0.00  0.00    +0.000 C 
BRANCH   5   6
ATOM      6  C   UNL     1      -7.747   0.338 129.338  0.00  0.00    +0.000 C 
BRANCH   6   7
ATOM      7  O   UNL     1      -6.983  -0.851 129.245  0.00  0.00    +0.000 OA
BRANCH   7   8
ATOM      8  C   UNL     1      -7.606  -1.825 128.509  0.00  0.00    +0.000 A 
ATOM      9  C   UNL     1      -7.847  -1.500 127.175  0.00  0.00    +0.000 A 
ATOM     10  C   UNL     1      -8.595  -2.362 126.377  0.00  0.00    +0.000 A 
ATOM     11  C   UNL     1      -9.062  -3.568 126.890  0.00  0.00    +0.000 A 
ATOM     12  C   UNL     1      -8.795  -3.914 128.214  0.00  0.00    +0.000 A 
ATOM     13  C   UNL     1      -8.076  -3.036 129.025  0.00  0.00    +0.000 A 
ENDBRANCH   7   8
ENDBRANCH   6   7
ENDBRANCH   5   6
ENDBRANCH   2   5
ENDBRANCH   1   2
BRANCH   1  14
ATOM     14  C   UNL     1      -7.484   4.139 131.121  0.00  0.00    +0.000 C 
BRANCH  14  15
ATOM     15  C   UNL     1      -7.977   5.177 132.096  0.00  0.00    +0.000 C 
BRANCH  15  16
ATOM     16  C   UNL     1      -7.925   6.527 131.404  0.00  0.00    +0.000 C 
BRANCH  16  17
ATOM     17  C   UNL     1      -9.286   6.844 130.835  0.00  0.00    +0.000 C 
BRANCH  17  18
ATOM     18  C   UNL     1     -10.363   6.330 131.767  0.00  0.00    +0.000 C 
BRANCH  18  19
ATOM     19  C   UNL     1     -11.627   6.068 130.972  0.00  0.00    +0.000 C 
BRANCH  19  20
ATOM     20  C   UNL     1     -12.411   7.356 130.810  0.00  0.00    +0.000 C 
BRANCH  20  21
ATOM     21  C   UNL     1     -12.945   7.460 129.392  0.00  0.00    +0.000 C 
BRANCH  21  22
ATOM     22  C   UNL     1     -12.434   8.732 128.735  0.00  0.00    +0.000 C 
BRANCH  22  24
ATOM     23  C   UNL     1     -11.000   7.793 126.921  0.00  0.00    +0.000 C 
ATOM     24  C   UNL     1     -11.008   8.541 128.240  0.00  0.00    +0.000 C 
ENDBRANCH  22  24
ENDBRANCH  21  22
ENDBRANCH  20  21
ENDBRANCH  19  20
ENDBRANCH  18  19
ENDBRANCH  17  18
ENDBRANCH  16  17
ENDBRANCH  15  16
ENDBRANCH  14  15
ENDBRANCH   1  14
TORSDOF 15
ENDMDL
