MODEL 1
REMARK VINA RESULT:      -7.9      0.000      0.000
REMARK  Name = Domperidone
REMARK  5 active torsions:
REMARK  status: ('A' for Active; 'I' for Inactive)
REMARK    1  A    between atoms: N_8  and  C_9
REMARK    2  A    between atoms: N_12  and  C_13
REMARK    3  A    between atoms: C_13  and  C_14
REMARK    4  A    between atoms: C_14  and  C_15
REMARK    5  A    between atoms: C_15  and  N_16
REMARK                            x       y       z     vdW  Elec       q    Type
REMARK                         _______ _______ _______ _____ _____    ______ ____
ROOT
ATOM      1  C   UNL     1      -8.886   1.890 123.896  0.00  0.00    +0.000 C 
ATOM      2  C   UNL     1      -7.852   3.025 123.983  0.00  0.00    +0.000 C 
ATOM      3  C   UNL     1      -6.873   2.899 125.131  0.00  0.00    +0.000 C 
ATOM      4  N   UNL     1      -7.564   2.690 126.411  0.00  0.00    +0.000 NA
ATOM      5  C   UNL     1      -8.505   1.559 126.362  0.00  0.00    +0.000 C 
ATOM      6  C   UNL     1      -9.538   1.662 125.253  0.00  0.00    +0.000 C 
ENDROOT
BRANCH   1  14
ATOM      7 CL   UNL     1      -5.172  -4.122 124.029  0.00  0.00    +0.000 Cl
ATOM      8  C   UNL     1      -6.167  -2.723 123.892  0.00  0.00    +0.000 A 
ATOM      9  C   UNL     1      -7.420  -2.809 123.285  0.00  0.00    +0.000 A 
ATOM     10  C   UNL     1      -8.129  -1.629 123.146  0.00  0.00    +0.000 A 
ATOM     11  C   UNL     1      -7.639  -0.379 123.537  0.00  0.00    +0.000 A 
ATOM     12  C   UNL     1      -6.391  -0.314 124.118  0.00  0.00    +0.000 A 
ATOM     13  C   UNL     1      -5.671  -1.495 124.343  0.00  0.00    +0.000 A 
ATOM     14  N   UNL     1      -8.628   0.605 123.236  0.00  0.00    +0.000 N 
ATOM     15  C   UNL     1      -9.768  -0.113 122.734  0.00  0.00    +0.000 A 
ATOM     16  O   UNL     1     -10.882   0.323 122.490  0.00  0.00    +0.000 OA
ATOM     17  N   UNL     1      -9.405  -1.458 122.635  0.00  0.00    +0.000 N 
ATOM     18  H   UNL     1     -10.043  -2.170 122.317  0.00  0.00    +0.000 HD
ENDBRANCH   1  14
BRANCH   4  19
ATOM     19  C   UNL     1      -6.551   2.521 127.471  0.00  0.00    +0.000 C 
BRANCH  19  20
ATOM     20  C   UNL     1      -7.019   1.543 128.532  0.00  0.00    +0.000 C 
BRANCH  20  21
ATOM     21  C   UNL     1      -6.081   0.363 128.718  0.00  0.00    +0.000 C 
BRANCH  21  22
ATOM     22  N   UNL     1      -6.789  -0.775 129.264  0.00  0.00    +0.000 N 
ATOM     23  C   UNL     1      -6.866  -1.130 130.632  0.00  0.00    +0.000 A 
ATOM     24  O   UNL     1      -6.403  -0.557 131.612  0.00  0.00    +0.000 OA
ATOM     25  N   UNL     1      -7.586  -2.321 130.701  0.00  0.00    +0.000 N 
ATOM     26  C   UNL     1      -7.995  -2.674 129.425  0.00  0.00    +0.000 A 
ATOM     27  C   UNL     1      -8.738  -3.763 129.040  0.00  0.00    +0.000 A 
ATOM     28  C   UNL     1      -9.026  -3.873 127.678  0.00  0.00    +0.000 A 
ATOM     29  C   UNL     1      -8.565  -2.907 126.758  0.00  0.00    +0.000 A 
ATOM     30  C   UNL     1      -7.801  -1.810 127.179  0.00  0.00    +0.000 A 
ATOM     31  C   UNL     1      -7.523  -1.717 128.525  0.00  0.00    +0.000 A 
ATOM     32  H   UNL     1      -7.755  -2.807 131.564  0.00  0.00    +0.000 HD
ENDBRANCH  21  22
ENDBRANCH  20  21
ENDBRANCH  19  20
ENDBRANCH   4  19
TORSDOF 5
ENDMDL
MODEL 2
REMARK VINA RESULT:      -7.7      4.752      7.812
REMARK  Name = Domperidone
REMARK  5 active torsions:
REMARK  status: ('A' for Active; 'I' for Inactive)
REMARK    1  A    between atoms: N_8  and  C_9
REMARK    2  A    between atoms: N_12  and  C_13
REMARK    3  A    between atoms: C_13  and  C_14
REMARK    4  A    between atoms: C_14  and  C_15
REMARK    5  A    between atoms: C_15  and  N_16
REMARK                            x       y       z     vdW  Elec       q    Type
REMARK                         _______ _______ _______ _____ _____    ______ ____
ROOT
ATOM      1  C   UNL     1      -7.700   3.146 131.311  0.00  0.00    +0.000 C 
ATOM      2  C   UNL     1      -6.444   3.275 130.434  0.00  0.00    +0.000 C 
ATOM      3  C   UNL     1      -6.720   3.394 128.950  0.00  0.00    +0.000 C 
ATOM      4  N   UNL     1      -7.609   2.323 128.478  0.00  0.00    +0.000 NA
ATOM      5  C   UNL     1      -8.850   2.236 129.265  0.00  0.00    +0.000 C 
ATOM      6  C   UNL     1      -8.624   2.071 130.758  0.00  0.00    +0.000 C 
ENDROOT
BRANCH   1  14
ATOM      7 CL   UNL     1     -12.180   8.309 129.513  0.00  0.00    +0.000 Cl
ATOM      8  C   UNL     1     -11.122   7.083 130.096  0.00  0.00    +0.000 A 
ATOM      9  C   UNL     1     -11.220   6.639 131.415  0.00  0.00    +0.000 A 
ATOM     10  C   UNL     1     -10.288   5.705 131.832  0.00  0.00    +0.000 A 
ATOM     11  C   UNL     1      -9.251   5.231 131.024  0.00  0.00    +0.000 A 
ATOM     12  C   UNL     1      -9.160   5.695 129.729  0.00  0.00    +0.000 A 
ATOM     13  C   UNL     1     -10.128   6.586 129.245  0.00  0.00    +0.000 A 
ATOM     14  N   UNL     1      -8.484   4.295 131.781  0.00  0.00    +0.000 N 
ATOM     15  C   UNL     1      -9.156   4.156 133.044  0.00  0.00    +0.000 A 
ATOM     16  O   UNL     1      -8.921   3.354 133.935  0.00  0.00    +0.000 OA
ATOM     17  N   UNL     1     -10.208   5.074 133.062  0.00  0.00    +0.000 N 
ATOM     18  H   UNL     1     -10.840   5.160 133.842  0.00  0.00    +0.000 HD
ENDBRANCH   1  14
BRANCH   4  19
ATOM     19  C   UNL     1      -7.878   2.533 127.043  0.00  0.00    +0.000 C 
BRANCH  19  20
ATOM     20  C   UNL     1      -8.688   1.391 126.459  0.00  0.00    +0.000 C 
BRANCH  20  21
ATOM     21  C   UNL     1      -7.845   0.382 125.699  0.00  0.00    +0.000 C 
BRANCH  21  22
ATOM     22  N   UNL     1      -8.299  -0.967 125.959  0.00  0.00    +0.000 N 
ATOM     23  C   UNL     1      -8.998  -1.800 125.053  0.00  0.00    +0.000 A 
ATOM     24  O   UNL     1      -9.325  -1.583 123.892  0.00  0.00    +0.000 OA
ATOM     25  N   UNL     1      -9.292  -2.980 125.733  0.00  0.00    +0.000 N 
ATOM     26  C   UNL     1      -8.748  -2.914 127.005  0.00  0.00    +0.000 A 
ATOM     27  C   UNL     1      -8.787  -3.861 127.999  0.00  0.00    +0.000 A 
ATOM     28  C   UNL     1      -8.139  -3.543 129.193  0.00  0.00    +0.000 A 
ATOM     29  C   UNL     1      -7.484  -2.303 129.355  0.00  0.00    +0.000 A 
ATOM     30  C   UNL     1      -7.468  -1.350 128.326  0.00  0.00    +0.000 A 
ATOM     31  C   UNL     1      -8.115  -1.679 127.155  0.00  0.00    +0.000 A 
ATOM     32  H   UNL     1      -9.818  -3.730 125.320  0.00  0.00    +0.000 HD
ENDBRANCH  21  22
ENDBRANCH  20  21
ENDBRANCH  19  20
ENDBRANCH   4  19
TORSDOF 5
ENDMDL
MODEL 3
REMARK VINA RESULT:      -7.7      3.106      5.431
REMARK  Name = Domperidone
REMARK  5 active torsions:
REMARK  status: ('A' for Active; 'I' for Inactive)
REMARK    1  A    between atoms: N_8  and  C_9
REMARK    2  A    between atoms: N_12  and  C_13
REMARK    3  A    between atoms: C_13  and  C_14
REMARK    4  A    between atoms: C_14  and  C_15
REMARK    5  A    between atoms: C_15  and  N_16
REMARK                            x       y       z     vdW  Elec       q    Type
REMARK                         _______ _______ _______ _____ _____    ______ ____
ROOT
ATOM      1  C   UNL     1      -9.298   1.541 124.479  0.00  0.00    +0.000 C 
ATOM      2  C   UNL     1      -8.624   2.905 124.702  0.00  0.00    +0.000 C 
ATOM      3  C   UNL     1      -7.589   2.924 125.807  0.00  0.00    +0.000 C 
ATOM      4  N   UNL     1      -8.122   2.366 127.057  0.00  0.00    +0.000 NA
ATOM      5  C   UNL     1      -8.706   1.028 126.871  0.00  0.00    +0.000 C 
ATOM      6  C   UNL     1      -9.784   0.967 125.802  0.00  0.00    +0.000 C 
ENDROOT
BRANCH   1  14
ATOM      7 CL   UNL     1      -4.643  -3.767 124.148  0.00  0.00    +0.000 Cl
ATOM      8  C   UNL     1      -5.837  -2.528 124.099  0.00  0.00    +0.000 A 
ATOM      9  C   UNL     1      -6.953  -2.659 123.272  0.00  0.00    +0.000 A 
ATOM     10  C   UNL     1      -7.831  -1.590 123.231  0.00  0.00    +0.000 A 
ATOM     11  C   UNL     1      -7.632  -0.397 123.932  0.00  0.00    +0.000 A 
ATOM     12  C   UNL     1      -6.514  -0.280 124.730  0.00  0.00    +0.000 A 
ATOM     13  C   UNL     1      -5.638  -1.367 124.855  0.00  0.00    +0.000 A 
ATOM     14  N   UNL     1      -8.723   0.477 123.647  0.00  0.00    +0.000 N 
ATOM     15  C   UNL     1      -9.632  -0.271 122.822  0.00  0.00    +0.000 A 
ATOM     16  O   UNL     1     -10.757   0.043 122.467  0.00  0.00    +0.000 OA
ATOM     17  N   UNL     1      -9.027  -1.498 122.540  0.00  0.00    +0.000 N 
ATOM     18  H   UNL     1      -9.475  -2.209 121.984  0.00  0.00    +0.000 HD
ENDBRANCH   1  14
BRANCH   4  19
ATOM     19  C   UNL     1      -7.047   2.364 128.069  0.00  0.00    +0.000 C 
BRANCH  19  20
ATOM     20  C   UNL     1      -5.684   2.191 127.427  0.00  0.00    +0.000 C 
BRANCH  20  21
ATOM     21  C   UNL     1      -4.536   2.284 128.416  0.00  0.00    +0.000 C 
BRANCH  21  22
ATOM     22  N   UNL     1      -3.667   3.394 128.093  0.00  0.00    +0.000 N 
ATOM     23  C   UNL     1      -2.586   3.367 127.179  0.00  0.00    +0.000 A 
ATOM     24  O   UNL     1      -2.192   2.449 126.468  0.00  0.00    +0.000 OA
ATOM     25  N   UNL     1      -1.986   4.623 127.224  0.00  0.00    +0.000 N 
ATOM     26  C   UNL     1      -2.699   5.431 128.095  0.00  0.00    +0.000 A 
ATOM     27  C   UNL     1      -2.465   6.744 128.424  0.00  0.00    +0.000 A 
ATOM     28  C   UNL     1      -3.354   7.331 129.326  0.00  0.00    +0.000 A 
ATOM     29  C   UNL     1      -4.432   6.596 129.865  0.00  0.00    +0.000 A 
ATOM     30  C   UNL     1      -4.642   5.254 129.518  0.00  0.00    +0.000 A 
ATOM     31  C   UNL     1      -3.753   4.689 128.630  0.00  0.00    +0.000 A 
ATOM     32  H   UNL     1      -1.168   4.857 126.689  0.00  0.00    +0.000 HD
ENDBRANCH  21  22
ENDBRANCH  20  21
ENDBRANCH  19  20
ENDBRANCH   4  19
TORSDOF 5
ENDMDL
MODEL 4
REMARK VINA RESULT:      -7.6      3.166      7.346
REMARK  Name = Domperidone
REMARK  5 active torsions:
REMARK  status: ('A' for Active; 'I' for Inactive)
REMARK    1  A    between atoms: N_8  and  C_9
REMARK    2  A    between atoms: N_12  and  C_13
REMARK    3  A    between atoms: C_13  and  C_14
REMARK    4  A    between atoms: C_14  and  C_15
REMARK    5  A    between atoms: C_15  and  N_16
REMARK                            x       y       z     vdW  Elec       q    Type
REMARK                         _______ _______ _______ _____ _____    ______ ____
ROOT
ATOM      1  C   UNL     1      -8.721  -3.233 125.770  0.00  0.00    +0.000 C 
ATOM      2  C   UNL     1      -8.071  -3.358 124.383  0.00  0.00    +0.000 C 
ATOM      3  C   UNL     1      -7.643  -2.043 123.765  0.00  0.00    +0.000 C 
ATOM      4  N   UNL     1      -8.738  -1.063 123.769  0.00  0.00    +0.000 NA
ATOM      5  C   UNL     1      -9.323  -0.880 125.107  0.00  0.00    +0.000 C 
ATOM      6  C   UNL     1      -9.808  -2.167 125.751  0.00  0.00    +0.000 C 
ENDROOT
BRANCH   1  14
ATOM      7 CL   UNL     1      -4.385   0.679 129.752  0.00  0.00    +0.000 Cl
ATOM      8  C   UNL     1      -5.461  -0.364 128.904  0.00  0.00    +0.000 A 
ATOM      9  C   UNL     1      -6.273  -1.256 129.604  0.00  0.00    +0.000 A 
ATOM     10  C   UNL     1      -7.057  -2.112 128.851  0.00  0.00    +0.000 A 
ATOM     11  C   UNL     1      -7.039  -2.152 127.453  0.00  0.00    +0.000 A 
ATOM     12  C   UNL     1      -6.216  -1.274 126.780  0.00  0.00    +0.000 A 
ATOM     13  C   UNL     1      -5.461  -0.342 127.505  0.00  0.00    +0.000 A 
ATOM     14  N   UNL     1      -7.958  -3.154 127.021  0.00  0.00    +0.000 N 
ATOM     15  C   UNL     1      -8.597  -3.651 128.209  0.00  0.00    +0.000 A 
ATOM     16  O   UNL     1      -9.547  -4.415 128.288  0.00  0.00    +0.000 OA
ATOM     17  N   UNL     1      -7.979  -3.041 129.303  0.00  0.00    +0.000 N 
ATOM     18  H   UNL     1      -8.261  -3.218 130.254  0.00  0.00    +0.000 HD
ENDBRANCH   1  14
BRANCH   4  19
ATOM     19  C   UNL     1      -8.236   0.205 123.206  0.00  0.00    +0.000 C 
BRANCH  19  20
ATOM     20  C   UNL     1      -9.335   1.248 123.126  0.00  0.00    +0.000 C 
BRANCH  20  21
ATOM     21  C   UNL     1      -8.889   2.629 123.571  0.00  0.00    +0.000 C 
BRANCH  21  22
ATOM     22  N   UNL     1      -7.767   3.087 122.781  0.00  0.00    +0.000 N 
ATOM     23  C   UNL     1      -6.418   3.143 123.205  0.00  0.00    +0.000 A 
ATOM     24  O   UNL     1      -5.923   2.798 124.272  0.00  0.00    +0.000 OA
ATOM     25  N   UNL     1      -5.688   3.703 122.159  0.00  0.00    +0.000 N 
ATOM     26  C   UNL     1      -6.540   3.940 121.092  0.00  0.00    +0.000 A 
ATOM     27  C   UNL     1      -6.237   4.466 119.860  0.00  0.00    +0.000 A 
ATOM     28  C   UNL     1      -7.292   4.585 118.953  0.00  0.00    +0.000 A 
ATOM     29  C   UNL     1      -8.598   4.181 119.304  0.00  0.00    +0.000 A 
ATOM     30  C   UNL     1      -8.880   3.655 120.572  0.00  0.00    +0.000 A 
ATOM     31  C   UNL     1      -7.829   3.548 121.456  0.00  0.00    +0.000 A 
ATOM     32  H   UNL     1      -4.701   3.885 122.218  0.00  0.00    +0.000 HD
ENDBRANCH  21  22
ENDBRANCH  20  21
ENDBRANCH  19  20
ENDBRANCH   4  19
TORSDOF 5
ENDMDL
MODEL 5
REMARK VINA RESULT:      -7.6      2.859      4.310
REMARK  Name = Domperidone
REMARK  5 active torsions:
REMARK  status: ('A' for Active; 'I' for Inactive)
REMARK    1  A    between atoms: N_8  and  C_9
REMARK    2  A    between atoms: N_12  and  C_13
REMARK    3  A    between atoms: C_13  and  C_14
REMARK    4  A    between atoms: C_14  and  C_15
REMARK    5  A    between atoms: C_15  and  N_16
REMARK                            x       y       z     vdW  Elec       q    Type
REMARK                         _______ _______ _______ _____ _____    ______ ____
ROOT
ATOM      1  C   UNL     1      -8.239  -0.549 123.616  0.00  0.00    +0.000 C 
ATOM      2  C   UNL     1      -6.994   0.332 123.424  0.00  0.00    +0.000 C 
ATOM      3  C   UNL     1      -6.784   1.371 124.505  0.00  0.00    +0.000 C 
ATOM      4  N   UNL     1      -7.994   2.175 124.725  0.00  0.00    +0.000 NA
ATOM      5  C   UNL     1      -9.181   1.343 124.982  0.00  0.00    +0.000 C 
ATOM      6  C   UNL     1      -9.460   0.314 123.900  0.00  0.00    +0.000 C 
ENDROOT
BRANCH   1  14
ATOM      7 CL   UNL     1      -7.639  -3.123 130.171  0.00  0.00    +0.000 Cl
ATOM      8  C   UNL     1      -7.841  -2.632 128.533  0.00  0.00    +0.000 A 
ATOM      9  C   UNL     1      -8.647  -3.376 127.671  0.00  0.00    +0.000 A 
ATOM     10  C   UNL     1      -8.701  -2.961 126.352  0.00  0.00    +0.000 A 
ATOM     11  C   UNL     1      -7.969  -1.882 125.848  0.00  0.00    +0.000 A 
ATOM     12  C   UNL     1      -7.164  -1.171 126.713  0.00  0.00    +0.000 A 
ATOM     13  C   UNL     1      -7.137  -1.514 128.071  0.00  0.00    +0.000 A 
ATOM     14  N   UNL     1      -8.262  -1.751 124.457  0.00  0.00    +0.000 N 
ATOM     15  C   UNL     1      -9.269  -2.735 124.166  0.00  0.00    +0.000 A 
ATOM     16  O   UNL     1      -9.906  -2.875 123.134  0.00  0.00    +0.000 OA
ATOM     17  N   UNL     1      -9.464  -3.490 125.325  0.00  0.00    +0.000 N 
ATOM     18  H   UNL     1     -10.135  -4.240 125.377  0.00  0.00    +0.000 HD
ENDBRANCH   1  14
BRANCH   4  19
ATOM     19  C   UNL     1      -7.735   3.124 125.825  0.00  0.00    +0.000 C 
BRANCH  19  20
ATOM     20  C   UNL     1      -7.149   2.423 127.035  0.00  0.00    +0.000 C 
BRANCH  20  21
ATOM     21  C   UNL     1      -6.874   3.358 128.199  0.00  0.00    +0.000 C 
BRANCH  21  22
ATOM     22  N   UNL     1      -7.992   3.380 129.117  0.00  0.00    +0.000 N 
ATOM     23  C   UNL     1      -8.932   4.428 129.259  0.00  0.00    +0.000 A 
ATOM     24  O   UNL     1      -9.022   5.482 128.640  0.00  0.00    +0.000 OA
ATOM     25  N   UNL     1      -9.792   4.063 130.293  0.00  0.00    +0.000 N 
ATOM     26  C   UNL     1      -9.439   2.803 130.748  0.00  0.00    +0.000 A 
ATOM     27  C   UNL     1     -10.028   2.059 131.742  0.00  0.00    +0.000 A 
ATOM     28  C   UNL     1      -9.477   0.801 131.992  0.00  0.00    +0.000 A 
ATOM     29  C   UNL     1      -8.368   0.335 131.253  0.00  0.00    +0.000 A 
ATOM     30  C   UNL     1      -7.782   1.119 130.250  0.00  0.00    +0.000 A 
ATOM     31  C   UNL     1      -8.335   2.359 130.018  0.00  0.00    +0.000 A 
ATOM     32  H   UNL     1     -10.536   4.655 130.619  0.00  0.00    +0.000 HD
ENDBRANCH  21  22
ENDBRANCH  20  21
ENDBRANCH  19  20
ENDBRANCH   4  19
TORSDOF 5
ENDMDL
MODEL 6
REMARK VINA RESULT:      -7.6      4.906      8.304
REMARK  Name = Domperidone
REMARK  5 active torsions:
REMARK  status: ('A' for Active; 'I' for Inactive)
REMARK    1  A    between atoms: N_8  and  C_9
REMARK    2  A    between atoms: N_12  and  C_13
REMARK    3  A    between atoms: C_13  and  C_14
REMARK    4  A    between atoms: C_14  and  C_15
REMARK    5  A    between atoms: C_15  and  N_16
REMARK                            x       y       z     vdW  Elec       q    Type
REMARK                         _______ _______ _______ _____ _____    ______ ____
ROOT
ATOM      1  C   UNL     1      -7.635   3.816 131.397  0.00  0.00    +0.000 C 
ATOM      2  C   UNL     1      -6.446   4.082 130.460  0.00  0.00    +0.000 C 
ATOM      3  C   UNL     1      -6.787   4.055 128.985  0.00  0.00    +0.000 C 
ATOM      4  N   UNL     1      -7.506   2.827 128.619  0.00  0.00    +0.000 NA
ATOM      5  C   UNL     1      -8.690   2.598 129.464  0.00  0.00    +0.000 C 
ATOM      6  C   UNL     1      -8.391   2.572 130.953  0.00  0.00    +0.000 C 
ENDROOT
BRANCH   1  14
ATOM      7 CL   UNL     1     -12.770   8.252 129.421  0.00  0.00    +0.000 Cl
ATOM      8  C   UNL     1     -11.558   7.202 130.047  0.00  0.00    +0.000 A 
ATOM      9  C   UNL     1     -11.610   6.782 131.376  0.00  0.00    +0.000 A 
ATOM     10  C   UNL     1     -10.562   5.999 131.827  0.00  0.00    +0.000 A 
ATOM     11  C   UNL     1      -9.458   5.654 131.040  0.00  0.00    +0.000 A 
ATOM     12  C   UNL     1      -9.417   6.094 129.734  0.00  0.00    +0.000 A 
ATOM     13  C   UNL     1     -10.494   6.829 129.219  0.00  0.00    +0.000 A 
ATOM     14  N   UNL     1      -8.578   4.854 131.829  0.00  0.00    +0.000 N 
ATOM     15  C   UNL     1      -9.239   4.655 133.090  0.00  0.00    +0.000 A 
ATOM     16  O   UNL     1      -8.906   3.916 134.004  0.00  0.00    +0.000 OA
ATOM     17  N   UNL     1     -10.410   5.416 133.073  0.00  0.00    +0.000 N 
ATOM     18  H   UNL     1     -11.057   5.432 133.845  0.00  0.00    +0.000 HD
ENDBRANCH   1  14
BRANCH   4  19
ATOM     19  C   UNL     1      -7.854   2.894 127.187  0.00  0.00    +0.000 C 
BRANCH  19  20
ATOM     20  C   UNL     1      -7.863   1.515 126.555  0.00  0.00    +0.000 C 
BRANCH  20  21
ATOM     21  C   UNL     1      -9.250   1.046 126.153  0.00  0.00    +0.000 C 
BRANCH  21  22
ATOM     22  N   UNL     1      -9.182   0.160 125.011  0.00  0.00    +0.000 N 
ATOM     23  C   UNL     1      -9.385   0.527 123.659  0.00  0.00    +0.000 A 
ATOM     24  O   UNL     1      -9.616   1.631 123.179  0.00  0.00    +0.000 OA
ATOM     25  N   UNL     1      -9.291  -0.640 122.905  0.00  0.00    +0.000 N 
ATOM     26  C   UNL     1      -8.985  -1.697 123.746  0.00  0.00    +0.000 A 
ATOM     27  C   UNL     1      -8.787  -3.017 123.421  0.00  0.00    +0.000 A 
ATOM     28  C   UNL     1      -8.472  -3.880 124.471  0.00  0.00    +0.000 A 
ATOM     29  C   UNL     1      -8.368  -3.404 125.796  0.00  0.00    +0.000 A 
ATOM     30  C   UNL     1      -8.584  -2.052 126.101  0.00  0.00    +0.000 A 
ATOM     31  C   UNL     1      -8.897  -1.214 125.053  0.00  0.00    +0.000 A 
ATOM     32  H   UNL     1      -9.432  -0.660 121.909  0.00  0.00    +0.000 HD
ENDBRANCH  21  22
ENDBRANCH  20  21
ENDBRANCH  19  20
ENDBRANCH   4  19
TORSDOF 5
ENDMDL
MODEL 7
REMARK VINA RESULT:      -7.5      3.698      5.194
REMARK  Name = Domperidone
REMARK  5 active torsions:
REMARK  status: ('A' for Active; 'I' for Inactive)
REMARK    1  A    between atoms: N_8  and  C_9
REMARK    2  A    between atoms: N_12  and  C_13
REMARK    3  A    between atoms: C_13  and  C_14
REMARK    4  A    between atoms: C_14  and  C_15
REMARK    5  A    between atoms: C_15  and  N_16
REMARK                            x       y       z     vdW  Elec       q    Type
REMARK                         _______ _______ _______ _____ _____    ______ ____
ROOT
ATOM      1  C   UNL     1      -9.329   1.652 124.381  0.00  0.00    +0.000 C 
ATOM      2  C   UNL     1      -8.621   2.985 124.670  0.00  0.00    +0.000 C 
ATOM      3  C   UNL     1      -7.673   2.954 125.850  0.00  0.00    +0.000 C 
ATOM      4  N   UNL     1      -8.322   2.409 127.050  0.00  0.00    +0.000 NA
ATOM      5  C   UNL     1      -8.944   1.097 126.806  0.00  0.00    +0.000 C 
ATOM      6  C   UNL     1      -9.938   1.089 125.658  0.00  0.00    +0.000 C 
ENDROOT
BRANCH   1  14
ATOM      7 CL   UNL     1      -4.667  -3.659 124.265  0.00  0.00    +0.000 Cl
ATOM      8  C   UNL     1      -5.860  -2.422 124.164  0.00  0.00    +0.000 A 
ATOM      9  C   UNL     1      -6.956  -2.571 123.314  0.00  0.00    +0.000 A 
ATOM     10  C   UNL     1      -7.833  -1.504 123.231  0.00  0.00    +0.000 A 
ATOM     11  C   UNL     1      -7.651  -0.296 123.912  0.00  0.00    +0.000 A 
ATOM     12  C   UNL     1      -6.551  -0.162 124.732  0.00  0.00    +0.000 A 
ATOM     13  C   UNL     1      -5.678  -1.246 124.900  0.00  0.00    +0.000 A 
ATOM     14  N   UNL     1      -8.735   0.572 123.585  0.00  0.00    +0.000 N 
ATOM     15  C   UNL     1      -9.625  -0.195 122.755  0.00  0.00    +0.000 A 
ATOM     16  O   UNL     1     -10.742   0.112 122.368  0.00  0.00    +0.000 OA
ATOM     17  N   UNL     1      -9.013  -1.426 122.511  0.00  0.00    +0.000 N 
ATOM     18  H   UNL     1      -9.449  -2.149 121.961  0.00  0.00    +0.000 HD
ENDBRANCH   1  14
BRANCH   4  19
ATOM     19  C   UNL     1      -7.329   2.356 128.140  0.00  0.00    +0.000 C 
BRANCH  19  20
ATOM     20  C   UNL     1      -7.916   2.853 129.448  0.00  0.00    +0.000 C 
BRANCH  20  21
ATOM     21  C   UNL     1      -7.942   4.367 129.560  0.00  0.00    +0.000 C 
BRANCH  21  22
ATOM     22  N   UNL     1      -8.963   4.797 130.490  0.00  0.00    +0.000 N 
ATOM     23  C   UNL     1      -9.145   4.316 131.809  0.00  0.00    +0.000 A 
ATOM     24  O   UNL     1      -8.485   3.494 132.435  0.00  0.00    +0.000 OA
ATOM     25  N   UNL     1     -10.275   4.950 132.319  0.00  0.00    +0.000 N 
ATOM     26  C   UNL     1     -10.756   5.842 131.373  0.00  0.00    +0.000 A 
ATOM     27  C   UNL     1     -11.839   6.682 131.467  0.00  0.00    +0.000 A 
ATOM     28  C   UNL     1     -12.097   7.496 130.363  0.00  0.00    +0.000 A 
ATOM     29  C   UNL     1     -11.277   7.443 129.215  0.00  0.00    +0.000 A 
ATOM     30  C   UNL     1     -10.182   6.569 129.144  0.00  0.00    +0.000 A 
ATOM     31  C   UNL     1      -9.944   5.771 130.240  0.00  0.00    +0.000 A 
ATOM     32  H   UNL     1     -10.643   4.758 133.234  0.00  0.00    +0.000 HD
ENDBRANCH  21  22
ENDBRANCH  20  21
ENDBRANCH  19  20
ENDBRANCH   4  19
TORSDOF 5
ENDMDL
MODEL 8
REMARK VINA RESULT:      -7.5      5.174      9.341
REMARK  Name = Domperidone
REMARK  5 active torsions:
REMARK  status: ('A' for Active; 'I' for Inactive)
REMARK    1  A    between atoms: N_8  and  C_9
REMARK    2  A    between atoms: N_12  and  C_13
REMARK    3  A    between atoms: C_13  and  C_14
REMARK    4  A    between atoms: C_14  and  C_15
REMARK    5  A    between atoms: C_15  and  N_16
REMARK                            x       y       z     vdW  Elec       q    Type
REMARK                         _______ _______ _______ _____ _____    ______ ____
ROOT
ATOM      1  C   UNL     1      -7.178   4.094 131.277  0.00  0.00    +0.000 C 
ATOM      2  C   UNL     1      -6.057   4.709 130.422  0.00  0.00    +0.000 C 
ATOM      3  C   UNL     1      -6.435   4.965 128.978  0.00  0.00    +0.000 C 
ATOM      4  N   UNL     1      -7.009   3.769 128.348  0.00  0.00    +0.000 NA
ATOM      5  C   UNL     1      -8.131   3.211 129.121  0.00  0.00    +0.000 C 
ATOM      6  C   UNL     1      -7.788   2.894 130.566  0.00  0.00    +0.000 C 
ENDROOT
BRANCH   1  14
ATOM      7 CL   UNL     1     -12.752   8.338 130.341  0.00  0.00    +0.000 Cl
ATOM      8  C   UNL     1     -11.436   7.292 130.715  0.00  0.00    +0.000 A 
ATOM      9  C   UNL     1     -11.448   6.541 131.890  0.00  0.00    +0.000 A 
ATOM     10  C   UNL     1     -10.323   5.780 132.158  0.00  0.00    +0.000 A 
ATOM     11  C   UNL     1      -9.186   5.765 131.345  0.00  0.00    +0.000 A 
ATOM     12  C   UNL     1      -9.188   6.528 130.196  0.00  0.00    +0.000 A 
ATOM     13  C   UNL     1     -10.335   7.256 129.852  0.00  0.00    +0.000 A 
ATOM     14  N   UNL     1      -8.228   4.884 131.930  0.00  0.00    +0.000 N 
ATOM     15  C   UNL     1      -8.869   4.299 133.076  0.00  0.00    +0.000 A 
ATOM     16  O   UNL     1      -8.462   3.389 133.781  0.00  0.00    +0.000 OA
ATOM     17  N   UNL     1     -10.114   4.915 133.219  0.00  0.00    +0.000 N 
ATOM     18  H   UNL     1     -10.762   4.665 133.949  0.00  0.00    +0.000 HD
ENDBRANCH   1  14
BRANCH   4  19
ATOM     19  C   UNL     1      -7.402   4.106 126.966  0.00  0.00    +0.000 C 
BRANCH  19  20
ATOM     20  C   UNL     1      -6.250   3.912 126.000  0.00  0.00    +0.000 C 
BRANCH  20  21
ATOM     21  C   UNL     1      -6.354   2.633 125.188  0.00  0.00    +0.000 C 
BRANCH  21  22
ATOM     22  N   UNL     1      -7.176   2.834 124.015  0.00  0.00    +0.000 N 
ATOM     23  C   UNL     1      -8.558   2.546 123.906  0.00  0.00    +0.000 A 
ATOM     24  O   UNL     1      -9.332   2.117 124.754  0.00  0.00    +0.000 OA
ATOM     25  N   UNL     1      -8.928   2.828 122.593  0.00  0.00    +0.000 N 
ATOM     26  C   UNL     1      -7.830   3.330 121.914  0.00  0.00    +0.000 A 
ATOM     27  C   UNL     1      -7.754   3.750 120.608  0.00  0.00    +0.000 A 
ATOM     28  C   UNL     1      -6.516   4.230 120.176  0.00  0.00    +0.000 A 
ATOM     29  C   UNL     1      -5.409   4.272 121.050  0.00  0.00    +0.000 A 
ATOM     30  C   UNL     1      -5.513   3.829 122.376  0.00  0.00    +0.000 A 
ATOM     31  C   UNL     1      -6.740   3.355 122.786  0.00  0.00    +0.000 A 
ATOM     32  H   UNL     1      -9.858   2.676 122.244  0.00  0.00    +0.000 HD
ENDBRANCH  21  22
ENDBRANCH  20  21
ENDBRANCH  19  20
ENDBRANCH   4  19
TORSDOF 5
ENDMDL
MODEL 9
REMARK VINA RESULT:      -7.5      4.275      6.269
REMARK  Name = Domperidone
REMARK  5 active torsions:
REMARK  status: ('A' for Active; 'I' for Inactive)
REMARK    1  A    between atoms: N_8  and  C_9
REMARK    2  A    between atoms: N_12  and  C_13
REMARK    3  A    between atoms: C_13  and  C_14
REMARK    4  A    between atoms: C_14  and  C_15
REMARK    5  A    between atoms: C_15  and  N_16
REMARK                            x       y       z     vdW  Elec       q    Type
REMARK                         _______ _______ _______ _____ _____    ______ ____
ROOT
ATOM      1  C   UNL     1      -8.280  -0.216 125.201  0.00  0.00    +0.000 C 
ATOM      2  C   UNL     1      -7.100   0.697 124.829  0.00  0.00    +0.000 C 
ATOM      3  C   UNL     1      -6.663   1.642 125.929  0.00  0.00    +0.000 C 
ATOM      4  N   UNL     1      -7.797   2.405 126.469  0.00  0.00    +0.000 NA
ATOM      5  C   UNL     1      -8.906   1.536 126.896  0.00  0.00    +0.000 C 
ATOM      6  C   UNL     1      -9.410   0.600 125.811  0.00  0.00    +0.000 C 
ENDROOT
BRANCH   1  14
ATOM      7 CL   UNL     1      -7.134  -3.312 131.451  0.00  0.00    +0.000 Cl
ATOM      8  C   UNL     1      -7.454  -2.695 129.876  0.00  0.00    +0.000 A 
ATOM      9  C   UNL     1      -8.197  -3.445 128.965  0.00  0.00    +0.000 A 
ATOM     10  C   UNL     1      -8.350  -2.916 127.695  0.00  0.00    +0.000 A 
ATOM     11  C   UNL     1      -7.770  -1.713 127.282  0.00  0.00    +0.000 A 
ATOM     12  C   UNL     1      -7.024  -0.995 128.192  0.00  0.00    +0.000 A 
ATOM     13  C   UNL     1      -6.906  -1.461 129.509  0.00  0.00    +0.000 A 
ATOM     14  N   UNL     1      -8.128  -1.487 125.919  0.00  0.00    +0.000 N 
ATOM     15  C   UNL     1      -9.022  -2.554 125.558  0.00  0.00    +0.000 A 
ATOM     16  O   UNL     1      -9.676  -2.671 124.533  0.00  0.00    +0.000 OA
ATOM     17  N   UNL     1      -9.082  -3.434 126.640  0.00  0.00    +0.000 N 
ATOM     18  H   UNL     1      -9.657  -4.261 126.635  0.00  0.00    +0.000 HD
ENDBRANCH   1  14
BRANCH   4  19
ATOM     19  C   UNL     1      -7.309   3.259 127.569  0.00  0.00    +0.000 C 
BRANCH  19  20
ATOM     20  C   UNL     1      -8.373   3.455 128.631  0.00  0.00    +0.000 C 
BRANCH  20  21
ATOM     21  C   UNL     1      -8.233   4.763 129.390  0.00  0.00    +0.000 C 
BRANCH  21  22
ATOM     22  N   UNL     1      -9.499   5.163 129.963  0.00  0.00    +0.000 N 
ATOM     23  C   UNL     1     -10.131   4.573 131.083  0.00  0.00    +0.000 A 
ATOM     24  O   UNL     1      -9.744   3.658 131.802  0.00  0.00    +0.000 OA
ATOM     25  N   UNL     1     -11.352   5.222 131.249  0.00  0.00    +0.000 N 
ATOM     26  C   UNL     1     -11.460   6.226 130.300  0.00  0.00    +0.000 A 
ATOM     27  C   UNL     1     -12.490   7.116 130.114  0.00  0.00    +0.000 A 
ATOM     28  C   UNL     1     -12.336   8.044 129.083  0.00  0.00    +0.000 A 
ATOM     29  C   UNL     1     -11.176   8.050 128.279  0.00  0.00    +0.000 A 
ATOM     30  C   UNL     1     -10.144   7.124 128.486  0.00  0.00    +0.000 A 
ATOM     31  C   UNL     1     -10.312   6.213 129.505  0.00  0.00    +0.000 A 
ATOM     32  H   UNL     1     -12.014   4.967 131.961  0.00  0.00    +0.000 HD
ENDBRANCH  21  22
ENDBRANCH  20  21
ENDBRANCH  19  20
ENDBRANCH   4  19
TORSDOF 5
ENDMDL
