MODEL 1
REMARK VINA RESULT:      -8.2      0.000      0.000
REMARK  Name = Donepezil
REMARK  8 active torsions:
REMARK  status: ('A' for Active; 'I' for Inactive)
REMARK    1  A    between atoms: C_1  and  O_2
REMARK    2  A    between atoms: O_2  and  C_3
REMARK    3  A    between atoms: C_4  and  O_5
REMARK    4  A    between atoms: O_5  and  C_6
REMARK    5  A    between atoms: C_11  and  C_12
REMARK    6  A    between atoms: C_12  and  C_13
REMARK    7  A    between atoms: N_16  and  C_17
REMARK    8  A    between atoms: C_17  and  C_18
REMARK                            x       y       z     vdW  Elec       q    Type
REMARK                         _______ _______ _______ _____ _____    ______ ____
ROOT
ATOM      1  C   UNL     1      -6.862  -3.028 130.254  0.00  0.00    +0.000 A 
ATOM      2  C   UNL     1      -5.710  -2.334 129.780  0.00  0.00    +0.000 A 
ATOM      3  C   UNL     1      -5.724  -1.906 128.489  0.00  0.00    +0.000 A 
ATOM      4  C   UNL     1      -6.826  -2.277 127.756  0.00  0.00    +0.000 A 
ATOM      5  C   UNL     1      -6.717  -2.440 126.367  0.00  0.00    +0.000 C 
ATOM      6  O   UNL     1      -5.589  -2.439 125.947  0.00  0.00    +0.000 OA
ATOM      7  C   UNL     1      -8.094  -2.659 125.757  0.00  0.00    +0.000 C 
ATOM      8  C   UNL     1      -8.886  -3.212 126.968  0.00  0.00    +0.000 C 
ATOM      9  C   UNL     1      -7.968  -2.939 128.129  0.00  0.00    +0.000 A 
ATOM     10  C   UNL     1      -7.995  -3.322 129.436  0.00  0.00    +0.000 A 
ENDROOT
BRANCH   1  12
ATOM     11  C   UNL     1      -7.486  -2.623 132.448  0.00  0.00    +0.000 C 
ATOM     12  O   UNL     1      -6.947  -3.551 131.517  0.00  0.00    +0.000 OA
ENDBRANCH   1  12
BRANCH   2  13
ATOM     13  O   UNL     1      -4.593  -2.194 130.554  0.00  0.00    +0.000 OA
ATOM     14  C   UNL     1      -3.583  -3.203 130.475  0.00  0.00    +0.000 C 
ENDBRANCH   2  13
BRANCH   7  15
ATOM     15  C   UNL     1      -8.015  -3.496 124.483  0.00  0.00    +0.000 C 
BRANCH  15  16
ATOM     16  C   UNL     1      -8.200  -2.738 123.120  0.00  0.00    +0.000 C 
ATOM     17  C   UNL     1      -6.966  -2.002 122.589  0.00  0.00    +0.000 C 
ATOM     18  C   UNL     1      -6.748  -0.651 123.293  0.00  0.00    +0.000 C 
ATOM     19  N   UNL     1      -7.852   0.293 123.370  0.00  0.00    +0.000 NA
ATOM     20  C   UNL     1      -9.067  -0.427 123.805  0.00  0.00    +0.000 C 
ATOM     21  C   UNL     1      -9.352  -1.740 123.103  0.00  0.00    +0.000 C 
BRANCH  19  22
ATOM     22  C   UNL     1      -7.431   1.272 124.429  0.00  0.00    +0.000 C 
BRANCH  22  23
ATOM     23  C   UNL     1      -6.756   2.462 123.837  0.00  0.00    +0.000 A 
ATOM     24  C   UNL     1      -5.934   3.252 124.628  0.00  0.00    +0.000 A 
ATOM     25  C   UNL     1      -5.261   4.308 124.037  0.00  0.00    +0.000 A 
ATOM     26  C   UNL     1      -5.281   4.471 122.648  0.00  0.00    +0.000 A 
ATOM     27  C   UNL     1      -6.079   3.666 121.853  0.00  0.00    +0.000 A 
ATOM     28  C   UNL     1      -6.893   2.741 122.468  0.00  0.00    +0.000 A 
ENDBRANCH  22  23
ENDBRANCH  19  22
ENDBRANCH  15  16
ENDBRANCH   7  15
TORSDOF 6
ENDMDL
MODEL 2
REMARK VINA RESULT:      -8.1      4.284      8.806
REMARK  Name = Donepezil
REMARK  8 active torsions:
REMARK  status: ('A' for Active; 'I' for Inactive)
REMARK    1  A    between atoms: C_1  and  O_2
REMARK    2  A    between atoms: O_2  and  C_3
REMARK    3  A    between atoms: C_4  and  O_5
REMARK    4  A    between atoms: O_5  and  C_6
REMARK    5  A    between atoms: C_11  and  C_12
REMARK    6  A    between atoms: C_12  and  C_13
REMARK    7  A    between atoms: N_16  and  C_17
REMARK    8  A    between atoms: C_17  and  C_18
REMARK                            x       y       z     vdW  Elec       q    Type
REMARK                         _______ _______ _______ _____ _____    ______ ____
ROOT
ATOM      1  C   UNL     1      -7.602   4.167 119.747  0.00  0.00    +0.000 A 
ATOM      2  C   UNL     1      -6.211   4.456 119.874  0.00  0.00    +0.000 A 
ATOM      3  C   UNL     1      -5.600   4.092 121.033  0.00  0.00    +0.000 A 
ATOM      4  C   UNL     1      -6.427   3.563 121.997  0.00  0.00    +0.000 A 
ATOM      5  C   UNL     1      -6.099   3.707 123.353  0.00  0.00    +0.000 C 
ATOM      6  O   UNL     1      -5.201   4.476 123.575  0.00  0.00    +0.000 OA
ATOM      7  C   UNL     1      -7.049   2.882 124.210  0.00  0.00    +0.000 C 
ATOM      8  C   UNL     1      -8.286   2.771 123.284  0.00  0.00    +0.000 C 
ATOM      9  C   UNL     1      -7.763   3.256 121.958  0.00  0.00    +0.000 A 
ATOM     10  C   UNL     1      -8.378   3.559 120.780  0.00  0.00    +0.000 A 
ENDROOT
BRANCH   1  12
ATOM     11  C   UNL     1      -9.736   4.427 118.883  0.00  0.00    +0.000 C 
ATOM     12  O   UNL     1      -8.338   4.529 118.650  0.00  0.00    +0.000 OA
ENDBRANCH   1  12
BRANCH   2  13
ATOM     13  O   UNL     1      -5.538   5.161 118.917  0.00  0.00    +0.000 OA
ATOM     14  C   UNL     1      -5.909   6.524 118.694  0.00  0.00    +0.000 C 
ENDBRANCH   2  13
BRANCH   7  15
ATOM     15  C   UNL     1      -7.220   3.491 125.599  0.00  0.00    +0.000 C 
BRANCH  15  16
ATOM     16  C   UNL     1      -6.985   2.541 126.827  0.00  0.00    +0.000 C 
ATOM     17  C   UNL     1      -6.036   1.362 126.592  0.00  0.00    +0.000 C 
ATOM     18  C   UNL     1      -6.721   0.204 125.846  0.00  0.00    +0.000 C 
ATOM     19  N   UNL     1      -7.983  -0.314 126.349  0.00  0.00    +0.000 NA
ATOM     20  C   UNL     1      -8.878   0.822 126.655  0.00  0.00    +0.000 C 
ATOM     21  C   UNL     1      -8.261   1.966 127.434  0.00  0.00    +0.000 C 
BRANCH  19  22
ATOM     22  C   UNL     1      -8.541  -1.111 125.205  0.00  0.00    +0.000 C 
BRANCH  22  23
ATOM     23  C   UNL     1      -7.462  -1.781 124.426  0.00  0.00    +0.000 A 
ATOM     24  C   UNL     1      -7.132  -1.311 123.163  0.00  0.00    +0.000 A 
ATOM     25  C   UNL     1      -6.076  -1.905 122.489  0.00  0.00    +0.000 A 
ATOM     26  C   UNL     1      -5.261  -2.840 123.136  0.00  0.00    +0.000 A 
ATOM     27  C   UNL     1      -5.573  -3.290 124.408  0.00  0.00    +0.000 A 
ATOM     28  C   UNL     1      -6.732  -2.836 124.996  0.00  0.00    +0.000 A 
ENDBRANCH  22  23
ENDBRANCH  19  22
ENDBRANCH  15  16
ENDBRANCH   7  15
TORSDOF 6
ENDMDL
MODEL 3
REMARK VINA RESULT:      -8.0      7.783     10.827
REMARK  Name = Donepezil
REMARK  8 active torsions:
REMARK  status: ('A' for Active; 'I' for Inactive)
REMARK    1  A    between atoms: C_1  and  O_2
REMARK    2  A    between atoms: O_2  and  C_3
REMARK    3  A    between atoms: C_4  and  O_5
REMARK    4  A    between atoms: O_5  and  C_6
REMARK    5  A    between atoms: C_11  and  C_12
REMARK    6  A    between atoms: C_12  and  C_13
REMARK    7  A    between atoms: N_16  and  C_17
REMARK    8  A    between atoms: C_17  and  C_18
REMARK                            x       y       z     vdW  Elec       q    Type
REMARK                         _______ _______ _______ _____ _____    ______ ____
ROOT
ATOM      1  C   UNL     1     -12.198   8.219 129.124  0.00  0.00    +0.000 A 
ATOM      2  C   UNL     1     -11.114   7.916 128.247  0.00  0.00    +0.000 A 
ATOM      3  C   UNL     1     -10.160   7.062 128.703  0.00  0.00    +0.000 A 
ATOM      4  C   UNL     1     -10.306   6.655 130.009  0.00  0.00    +0.000 A 
ATOM      5  C   UNL     1      -9.175   6.308 130.762  0.00  0.00    +0.000 C 
ATOM      6  O   UNL     1      -8.123   6.594 130.252  0.00  0.00    +0.000 OA
ATOM      7  C   UNL     1      -9.599   5.712 132.097  0.00  0.00    +0.000 C 
ATOM      8  C   UNL     1     -11.012   6.321 132.273  0.00  0.00    +0.000 C 
ATOM      9  C   UNL     1     -11.307   6.898 130.914  0.00  0.00    +0.000 A 
ATOM     10  C   UNL     1     -12.303   7.704 130.452  0.00  0.00    +0.000 A 
ENDROOT
BRANCH   1  12
ATOM     11  C   UNL     1     -13.228  10.218 129.678  0.00  0.00    +0.000 C 
ATOM     12  O   UNL     1     -13.192   9.103 128.798  0.00  0.00    +0.000 OA
ENDBRANCH   1  12
BRANCH   2  13
ATOM     13  O   UNL     1     -10.981   8.537 127.037  0.00  0.00    +0.000 OA
ATOM     14  C   UNL     1     -10.848   7.722 125.870  0.00  0.00    +0.000 C 
ENDBRANCH   2  13
BRANCH   7  15
ATOM     15  C   UNL     1      -8.550   5.958 133.177  0.00  0.00    +0.000 C 
BRANCH  15  16
ATOM     16  C   UNL     1      -7.823   4.696 133.766  0.00  0.00    +0.000 C 
ATOM     17  C   UNL     1      -6.696   4.111 132.908  0.00  0.00    +0.000 C 
ATOM     18  C   UNL     1      -7.233   3.245 131.755  0.00  0.00    +0.000 C 
ATOM     19  N   UNL     1      -8.187   2.188 132.049  0.00  0.00    +0.000 NA
ATOM     20  C   UNL     1      -9.235   2.724 132.942  0.00  0.00    +0.000 C 
ATOM     21  C   UNL     1      -8.751   3.541 134.123  0.00  0.00    +0.000 C 
BRANCH  19  22
ATOM     22  C   UNL     1      -8.781   1.840 130.713  0.00  0.00    +0.000 C 
BRANCH  22  23
ATOM     23  C   UNL     1      -8.241   0.553 130.192  0.00  0.00    +0.000 A 
ATOM     24  C   UNL     1      -8.280  -0.583 130.989  0.00  0.00    +0.000 A 
ATOM     25  C   UNL     1      -7.839  -1.783 130.454  0.00  0.00    +0.000 A 
ATOM     26  C   UNL     1      -7.519  -1.877 129.096  0.00  0.00    +0.000 A 
ATOM     27  C   UNL     1      -7.506  -0.750 128.292  0.00  0.00    +0.000 A 
ATOM     28  C   UNL     1      -7.760   0.471 128.876  0.00  0.00    +0.000 A 
ENDBRANCH  22  23
ENDBRANCH  19  22
ENDBRANCH  15  16
ENDBRANCH   7  15
TORSDOF 6
ENDMDL
MODEL 4
REMARK VINA RESULT:      -8.0      8.778     11.225
REMARK  Name = Donepezil
REMARK  8 active torsions:
REMARK  status: ('A' for Active; 'I' for Inactive)
REMARK    1  A    between atoms: C_1  and  O_2
REMARK    2  A    between atoms: O_2  and  C_3
REMARK    3  A    between atoms: C_4  and  O_5
REMARK    4  A    between atoms: O_5  and  C_6
REMARK    5  A    between atoms: C_11  and  C_12
REMARK    6  A    between atoms: C_12  and  C_13
REMARK    7  A    between atoms: N_16  and  C_17
REMARK    8  A    between atoms: C_17  and  C_18
REMARK                            x       y       z     vdW  Elec       q    Type
REMARK                         _______ _______ _______ _____ _____    ______ ____
ROOT
ATOM      1  C   UNL     1     -12.305   8.187 129.173  0.00  0.00    +0.000 A 
ATOM      2  C   UNL     1     -11.274   7.868 128.241  0.00  0.00    +0.000 A 
ATOM      3  C   UNL     1     -10.297   7.018 128.656  0.00  0.00    +0.000 A 
ATOM      4  C   UNL     1     -10.370   6.632 129.974  0.00  0.00    +0.000 A 
ATOM      5  C   UNL     1      -9.199   6.293 130.667  0.00  0.00    +0.000 C 
ATOM      6  O   UNL     1      -8.177   6.568 130.094  0.00  0.00    +0.000 OA
ATOM      7  C   UNL     1      -9.549   5.718 132.032  0.00  0.00    +0.000 C 
ATOM      8  C   UNL     1     -10.949   6.334 132.279  0.00  0.00    +0.000 C 
ATOM      9  C   UNL     1     -11.318   6.891 130.930  0.00  0.00    +0.000 A 
ATOM     10  C   UNL     1     -12.337   7.693 130.512  0.00  0.00    +0.000 A 
ENDROOT
BRANCH   1  12
ATOM     11  C   UNL     1     -13.276  10.217 129.727  0.00  0.00    +0.000 C 
ATOM     12  O   UNL     1     -13.315   9.069 128.890  0.00  0.00    +0.000 OA
ENDBRANCH   1  12
BRANCH   2  13
ATOM     13  O   UNL     1     -11.208   8.470 127.016  0.00  0.00    +0.000 OA
ATOM     14  C   UNL     1     -10.696   7.712 125.917  0.00  0.00    +0.000 C 
ENDBRANCH   2  13
BRANCH   7  15
ATOM     15  C   UNL     1      -8.440   5.978 133.048  0.00  0.00    +0.000 C 
BRANCH  15  16
ATOM     16  C   UNL     1      -7.418   4.812 133.302  0.00  0.00    +0.000 C 
ATOM     17  C   UNL     1      -6.446   5.015 134.468  0.00  0.00    +0.000 C 
ATOM     18  C   UNL     1      -5.275   5.941 134.095  0.00  0.00    +0.000 C 
ATOM     19  N   UNL     1      -4.504   5.658 132.895  0.00  0.00    +0.000 NA
ATOM     20  C   UNL     1      -5.435   5.382 131.782  0.00  0.00    +0.000 C 
ATOM     21  C   UNL     1      -6.578   4.433 132.087  0.00  0.00    +0.000 C 
BRANCH  19  22
ATOM     22  C   UNL     1      -3.750   6.929 132.628  0.00  0.00    +0.000 C 
BRANCH  22  23
ATOM     23  C   UNL     1      -3.305   7.014 131.208  0.00  0.00    +0.000 A 
ATOM     24  C   UNL     1      -2.344   6.132 130.734  0.00  0.00    +0.000 A 
ATOM     25  C   UNL     1      -2.002   6.184 129.392  0.00  0.00    +0.000 A 
ATOM     26  C   UNL     1      -2.726   6.991 128.508  0.00  0.00    +0.000 A 
ATOM     27  C   UNL     1      -3.704   7.852 128.976  0.00  0.00    +0.000 A 
ATOM     28  C   UNL     1      -3.907   7.934 130.335  0.00  0.00    +0.000 A 
ENDBRANCH  22  23
ENDBRANCH  19  22
ENDBRANCH  15  16
ENDBRANCH   7  15
TORSDOF 6
ENDMDL
MODEL 5
REMARK VINA RESULT:      -8.0      1.926      2.829
REMARK  Name = Donepezil
REMARK  8 active torsions:
REMARK  status: ('A' for Active; 'I' for Inactive)
REMARK    1  A    between atoms: C_1  and  O_2
REMARK    2  A    between atoms: O_2  and  C_3
REMARK    3  A    between atoms: C_4  and  O_5
REMARK    4  A    between atoms: O_5  and  C_6
REMARK    5  A    between atoms: C_11  and  C_12
REMARK    6  A    between atoms: C_12  and  C_13
REMARK    7  A    between atoms: N_16  and  C_17
REMARK    8  A    between atoms: C_17  and  C_18
REMARK                            x       y       z     vdW  Elec       q    Type
REMARK                         _______ _______ _______ _____ _____    ______ ____
ROOT
ATOM      1  C   UNL     1      -7.513  -0.714 131.920  0.00  0.00    +0.000 A 
ATOM      2  C   UNL     1      -7.544  -2.136 132.032  0.00  0.00    +0.000 A 
ATOM      3  C   UNL     1      -7.436  -2.857 130.884  0.00  0.00    +0.000 A 
ATOM      4  C   UNL     1      -7.400  -2.119 129.724  0.00  0.00    +0.000 A 
ATOM      5  C   UNL     1      -7.880  -2.674 128.530  0.00  0.00    +0.000 C 
ATOM      6  O   UNL     1      -8.486  -3.706 128.661  0.00  0.00    +0.000 OA
ATOM      7  C   UNL     1      -7.560  -1.754 127.360  0.00  0.00    +0.000 C 
ATOM      8  C   UNL     1      -7.421  -0.385 128.072  0.00  0.00    +0.000 C 
ATOM      9  C   UNL     1      -7.368  -0.762 129.528  0.00  0.00    +0.000 A 
ATOM     10  C   UNL     1      -7.414  -0.025 130.673  0.00  0.00    +0.000 A 
ENDROOT
BRANCH   1  12
ATOM     11  C   UNL     1      -6.779   1.231 132.943  0.00  0.00    +0.000 C 
ATOM     12  O   UNL     1      -7.663   0.120 132.997  0.00  0.00    +0.000 OA
ENDBRANCH   1  12
BRANCH   2  13
ATOM     13  O   UNL     1      -7.777  -2.752 133.229  0.00  0.00    +0.000 OA
ATOM     14  C   UNL     1      -6.990  -3.897 133.566  0.00  0.00    +0.000 C 
ENDBRANCH   2  13
BRANCH   7  15
ATOM     15  C   UNL     1      -8.583  -1.901 126.237  0.00  0.00    +0.000 C 
BRANCH  15  16
ATOM     16  C   UNL     1      -8.022  -2.084 124.781  0.00  0.00    +0.000 C 
ATOM     17  C   UNL     1      -6.643  -1.474 124.512  0.00  0.00    +0.000 C 
ATOM     18  C   UNL     1      -6.716   0.045 124.277  0.00  0.00    +0.000 C 
ATOM     19  N   UNL     1      -7.651   0.564 123.292  0.00  0.00    +0.000 NA
ATOM     20  C   UNL     1      -8.966  -0.079 123.494  0.00  0.00    +0.000 C 
ATOM     21  C   UNL     1      -8.950  -1.584 123.680  0.00  0.00    +0.000 C 
BRANCH  19  22
ATOM     22  C   UNL     1      -7.746   2.030 123.606  0.00  0.00    +0.000 C 
BRANCH  22  23
ATOM     23  C   UNL     1      -7.596   2.864 122.379  0.00  0.00    +0.000 A 
ATOM     24  C   UNL     1      -6.329   3.178 121.911  0.00  0.00    +0.000 A 
ATOM     25  C   UNL     1      -6.217   3.892 120.729  0.00  0.00    +0.000 A 
ATOM     26  C   UNL     1      -7.347   4.143 119.944  0.00  0.00    +0.000 A 
ATOM     27  C   UNL     1      -8.612   3.805 120.397  0.00  0.00    +0.000 A 
ATOM     28  C   UNL     1      -8.731   3.268 121.659  0.00  0.00    +0.000 A 
ENDBRANCH  22  23
ENDBRANCH  19  22
ENDBRANCH  15  16
ENDBRANCH   7  15
TORSDOF 6
ENDMDL
MODEL 6
REMARK VINA RESULT:      -7.9      2.064      2.878
REMARK  Name = Donepezil
REMARK  8 active torsions:
REMARK  status: ('A' for Active; 'I' for Inactive)
REMARK    1  A    between atoms: C_1  and  O_2
REMARK    2  A    between atoms: O_2  and  C_3
REMARK    3  A    between atoms: C_4  and  O_5
REMARK    4  A    between atoms: O_5  and  C_6
REMARK    5  A    between atoms: C_11  and  C_12
REMARK    6  A    between atoms: C_12  and  C_13
REMARK    7  A    between atoms: N_16  and  C_17
REMARK    8  A    between atoms: C_17  and  C_18
REMARK                            x       y       z     vdW  Elec       q    Type
REMARK                         _______ _______ _______ _____ _____    ______ ____
ROOT
ATOM      1  C   UNL     1      -7.367  -1.712 132.416  0.00  0.00    +0.000 A 
ATOM      2  C   UNL     1      -7.693  -0.361 132.093  0.00  0.00    +0.000 A 
ATOM      3  C   UNL     1      -8.063  -0.096 130.812  0.00  0.00    +0.000 A 
ATOM      4  C   UNL     1      -7.991  -1.160 129.944  0.00  0.00    +0.000 A 
ATOM      5  C   UNL     1      -7.755  -0.932 128.580  0.00  0.00    +0.000 C 
ATOM      6  O   UNL     1      -7.426   0.193 128.307  0.00  0.00    +0.000 OA
ATOM      7  C   UNL     1      -7.910  -2.229 127.800  0.00  0.00    +0.000 C 
ATOM      8  C   UNL     1      -7.643  -3.287 128.899  0.00  0.00    +0.000 C 
ATOM      9  C   UNL     1      -7.688  -2.478 130.168  0.00  0.00    +0.000 A 
ATOM     10  C   UNL     1      -7.374  -2.773 131.461  0.00  0.00    +0.000 A 
ENDROOT
BRANCH   1  12
ATOM     11  C   UNL     1      -5.599  -2.585 133.632  0.00  0.00    +0.000 C 
ATOM     12  O   UNL     1      -6.932  -2.095 133.657  0.00  0.00    +0.000 OA
ENDBRANCH   1  12
BRANCH   2  13
ATOM     13  O   UNL     1      -7.541   0.646 133.004  0.00  0.00    +0.000 OA
ATOM     14  C   UNL     1      -8.124   1.918 132.709  0.00  0.00    +0.000 C 
ENDBRANCH   2  13
BRANCH   7  15
ATOM     15  C   UNL     1      -7.041  -2.234 126.545  0.00  0.00    +0.000 C 
BRANCH  15  16
ATOM     16  C   UNL     1      -7.785  -2.268 125.162  0.00  0.00    +0.000 C 
ATOM     17  C   UNL     1      -6.932  -1.937 123.934  0.00  0.00    +0.000 C 
ATOM     18  C   UNL     1      -6.719  -0.423 123.765  0.00  0.00    +0.000 C 
ATOM     19  N   UNL     1      -7.874   0.460 123.777  0.00  0.00    +0.000 NA
ATOM     20  C   UNL     1      -8.744   0.095 124.914  0.00  0.00    +0.000 C 
ATOM     21  C   UNL     1      -9.026  -1.384 125.090  0.00  0.00    +0.000 C 
BRANCH  19  22
ATOM     22  C   UNL     1      -7.295   1.829 123.995  0.00  0.00    +0.000 C 
BRANCH  22  23
ATOM     23  C   UNL     1      -7.382   2.663 122.763  0.00  0.00    +0.000 A 
ATOM     24  C   UNL     1      -6.221   3.038 122.102  0.00  0.00    +0.000 A 
ATOM     25  C   UNL     1      -6.333   3.752 120.919  0.00  0.00    +0.000 A 
ATOM     26  C   UNL     1      -7.584   3.942 120.323  0.00  0.00    +0.000 A 
ATOM     27  C   UNL     1      -8.742   3.543 120.968  0.00  0.00    +0.000 A 
ATOM     28  C   UNL     1      -8.635   3.007 122.231  0.00  0.00    +0.000 A 
ENDBRANCH  22  23
ENDBRANCH  19  22
ENDBRANCH  15  16
ENDBRANCH   7  15
TORSDOF 6
ENDMDL
MODEL 7
REMARK VINA RESULT:      -7.8      1.790      3.107
REMARK  Name = Donepezil
REMARK  8 active torsions:
REMARK  status: ('A' for Active; 'I' for Inactive)
REMARK    1  A    between atoms: C_1  and  O_2
REMARK    2  A    between atoms: O_2  and  C_3
REMARK    3  A    between atoms: C_4  and  O_5
REMARK    4  A    between atoms: O_5  and  C_6
REMARK    5  A    between atoms: C_11  and  C_12
REMARK    6  A    between atoms: C_12  and  C_13
REMARK    7  A    between atoms: N_16  and  C_17
REMARK    8  A    between atoms: C_17  and  C_18
REMARK                            x       y       z     vdW  Elec       q    Type
REMARK                         _______ _______ _______ _____ _____    ______ ____
ROOT
ATOM      1  C   UNL     1      -4.385  -3.402 131.346  0.00  0.00    +0.000 A 
ATOM      2  C   UNL     1      -5.696  -3.656 131.848  0.00  0.00    +0.000 A 
ATOM      3  C   UNL     1      -6.734  -3.529 130.979  0.00  0.00    +0.000 A 
ATOM      4  C   UNL     1      -6.402  -3.074 129.724  0.00  0.00    +0.000 A 
ATOM      5  C   UNL     1      -7.342  -2.354 128.973  0.00  0.00    +0.000 C 
ATOM      6  O   UNL     1      -8.319  -2.008 129.585  0.00  0.00    +0.000 OA
ATOM      7  C   UNL     1      -6.820  -2.130 127.561  0.00  0.00    +0.000 C 
ATOM      8  C   UNL     1      -5.289  -2.241 127.774  0.00  0.00    +0.000 C 
ATOM      9  C   UNL     1      -5.179  -2.807 129.165  0.00  0.00    +0.000 A 
ATOM     10  C   UNL     1      -4.123  -2.988 130.005  0.00  0.00    +0.000 A 
ENDROOT
BRANCH   1  12
ATOM     11  C   UNL     1      -2.998  -2.201 132.762  0.00  0.00    +0.000 C 
ATOM     12  O   UNL     1      -3.266  -3.448 132.135  0.00  0.00    +0.000 OA
ENDBRANCH   1  12
BRANCH   2  13
ATOM     13  O   UNL     1      -5.915  -3.916 133.171  0.00  0.00    +0.000 OA
ATOM     14  C   UNL     1      -5.843  -5.273 133.615  0.00  0.00    +0.000 C 
ENDBRANCH   2  13
BRANCH   7  15
ATOM     15  C   UNL     1      -7.389  -0.853 126.950  0.00  0.00    +0.000 C 
BRANCH  15  16
ATOM     16  C   UNL     1      -8.300  -1.013 125.681  0.00  0.00    +0.000 C 
ATOM     17  C   UNL     1      -7.568  -1.241 124.354  0.00  0.00    +0.000 C 
ATOM     18  C   UNL     1      -7.008   0.066 123.768  0.00  0.00    +0.000 C 
ATOM     19  N   UNL     1      -7.892   1.210 123.617  0.00  0.00    +0.000 NA
ATOM     20  C   UNL     1      -8.661   1.389 124.866  0.00  0.00    +0.000 C 
ATOM     21  C   UNL     1      -9.277   0.135 125.455  0.00  0.00    +0.000 C 
BRANCH  19  22
ATOM     22  C   UNL     1      -6.964   2.375 123.417  0.00  0.00    +0.000 C 
BRANCH  22  23
ATOM     23  C   UNL     1      -7.257   3.097 122.146  0.00  0.00    +0.000 A 
ATOM     24  C   UNL     1      -6.211   3.536 121.347  0.00  0.00    +0.000 A 
ATOM     25  C   UNL     1      -6.511   4.140 120.136  0.00  0.00    +0.000 A 
ATOM     26  C   UNL     1      -7.826   4.154 119.659  0.00  0.00    +0.000 A 
ATOM     27  C   UNL     1      -8.868   3.690 120.444  0.00  0.00    +0.000 A 
ATOM     28  C   UNL     1      -8.585   3.267 121.723  0.00  0.00    +0.000 A 
ENDBRANCH  22  23
ENDBRANCH  19  22
ENDBRANCH  15  16
ENDBRANCH   7  15
TORSDOF 6
ENDMDL
MODEL 8
REMARK VINA RESULT:      -7.8      8.943     11.124
REMARK  Name = Donepezil
REMARK  8 active torsions:
REMARK  status: ('A' for Active; 'I' for Inactive)
REMARK    1  A    between atoms: C_1  and  O_2
REMARK    2  A    between atoms: O_2  and  C_3
REMARK    3  A    between atoms: C_4  and  O_5
REMARK    4  A    between atoms: O_5  and  C_6
REMARK    5  A    between atoms: C_11  and  C_12
REMARK    6  A    between atoms: C_12  and  C_13
REMARK    7  A    between atoms: N_16  and  C_17
REMARK    8  A    between atoms: C_17  and  C_18
REMARK                            x       y       z     vdW  Elec       q    Type
REMARK                         _______ _______ _______ _____ _____    ______ ____
ROOT
ATOM      1  C   UNL     1     -10.252   7.160 130.341  0.00  0.00    +0.000 A 
ATOM      2  C   UNL     1     -10.905   6.517 131.434  0.00  0.00    +0.000 A 
ATOM      3  C   UNL     1     -10.122   6.038 132.437  0.00  0.00    +0.000 A 
ATOM      4  C   UNL     1      -8.767   6.150 132.233  0.00  0.00    +0.000 A 
ATOM      5  C   UNL     1      -7.894   5.225 132.825  0.00  0.00    +0.000 C 
ATOM      6  O   UNL     1      -8.431   4.264 133.311  0.00  0.00    +0.000 OA
ATOM      7  C   UNL     1      -6.451   5.664 132.619  0.00  0.00    +0.000 C 
ATOM      8  C   UNL     1      -6.574   6.555 131.358  0.00  0.00    +0.000 C 
ATOM      9  C   UNL     1      -8.061   6.747 131.220  0.00  0.00    +0.000 A 
ATOM     10  C   UNL     1      -8.833   7.286 130.236  0.00  0.00    +0.000 A 
ENDROOT
BRANCH   1  12
ATOM     11  C   UNL     1     -10.441   7.086 128.033  0.00  0.00    +0.000 C 
ATOM     12  O   UNL     1     -10.927   7.638 129.249  0.00  0.00    +0.000 OA
ENDBRANCH   1  12
BRANCH   2  13
ATOM     13  O   UNL     1     -12.253   6.296 131.429  0.00  0.00    +0.000 OA
ATOM     14  C   UNL     1     -13.124   7.422 131.566  0.00  0.00    +0.000 C 
ENDBRANCH   2  13
BRANCH   7  15
ATOM     15  C   UNL     1      -5.502   4.469 132.588  0.00  0.00    +0.000 C 
BRANCH  15  16
ATOM     16  C   UNL     1      -4.539   4.290 133.816  0.00  0.00    +0.000 C 
ATOM     17  C   UNL     1      -4.205   5.565 134.597  0.00  0.00    +0.000 C 
ATOM     18  C   UNL     1      -3.129   6.412 133.895  0.00  0.00    +0.000 C 
ATOM     19  N   UNL     1      -1.884   5.779 133.489  0.00  0.00    +0.000 NA
ATOM     20  C   UNL     1      -2.195   4.507 132.805  0.00  0.00    +0.000 C 
ATOM     21  C   UNL     1      -3.213   3.614 133.486  0.00  0.00    +0.000 C 
BRANCH  19  22
ATOM     22  C   UNL     1      -1.273   6.747 132.517  0.00  0.00    +0.000 C 
BRANCH  22  23
ATOM     23  C   UNL     1      -2.171   6.994 131.352  0.00  0.00    +0.000 A 
ATOM     24  C   UNL     1      -3.104   8.019 131.408  0.00  0.00    +0.000 A 
ATOM     25  C   UNL     1      -3.876   8.274 130.285  0.00  0.00    +0.000 A 
ATOM     26  C   UNL     1      -3.604   7.624 129.077  0.00  0.00    +0.000 A 
ATOM     27  C   UNL     1      -2.653   6.618 129.013  0.00  0.00    +0.000 A 
ATOM     28  C   UNL     1      -2.025   6.239 130.178  0.00  0.00    +0.000 A 
ENDBRANCH  22  23
ENDBRANCH  19  22
ENDBRANCH  15  16
ENDBRANCH   7  15
TORSDOF 6
ENDMDL
MODEL 9
REMARK VINA RESULT:      -7.7      2.184      3.302
REMARK  Name = Donepezil
REMARK  8 active torsions:
REMARK  status: ('A' for Active; 'I' for Inactive)
REMARK    1  A    between atoms: C_1  and  O_2
REMARK    2  A    between atoms: O_2  and  C_3
REMARK    3  A    between atoms: C_4  and  O_5
REMARK    4  A    between atoms: O_5  and  C_6
REMARK    5  A    between atoms: C_11  and  C_12
REMARK    6  A    between atoms: C_12  and  C_13
REMARK    7  A    between atoms: N_16  and  C_17
REMARK    8  A    between atoms: C_17  and  C_18
REMARK                            x       y       z     vdW  Elec       q    Type
REMARK                         _______ _______ _______ _____ _____    ______ ____
ROOT
ATOM      1  C   UNL     1      -5.795  -2.724 130.475  0.00  0.00    +0.000 A 
ATOM      2  C   UNL     1      -6.255  -1.694 131.348  0.00  0.00    +0.000 A 
ATOM      3  C   UNL     1      -7.156  -0.806 130.850  0.00  0.00    +0.000 A 
ATOM      4  C   UNL     1      -7.453  -0.952 129.515  0.00  0.00    +0.000 A 
ATOM      5  C   UNL     1      -7.845   0.164 128.761  0.00  0.00    +0.000 C 
ATOM      6  O   UNL     1      -7.690   1.223 129.312  0.00  0.00    +0.000 OA
ATOM      7  C   UNL     1      -8.304  -0.275 127.378  0.00  0.00    +0.000 C 
ATOM      8  C   UNL     1      -7.561  -1.625 127.219  0.00  0.00    +0.000 C 
ATOM      9  C   UNL     1      -7.058  -1.904 128.610  0.00  0.00    +0.000 A 
ATOM     10  C   UNL     1      -6.202  -2.838 129.111  0.00  0.00    +0.000 A 
ENDROOT
BRANCH   1  12
ATOM     11  C   UNL     1      -5.418  -4.927 131.082  0.00  0.00    +0.000 C 
ATOM     12  O   UNL     1      -4.852  -3.646 130.845  0.00  0.00    +0.000 OA
ENDBRANCH   1  12
BRANCH   2  13
ATOM     13  O   UNL     1      -5.737  -1.539 132.603  0.00  0.00    +0.000 OA
ATOM     14  C   UNL     1      -6.599  -1.757 133.723  0.00  0.00    +0.000 C 
ENDBRANCH   2  13
BRANCH   7  15
ATOM     15  C   UNL     1      -8.075   0.819 126.340  0.00  0.00    +0.000 C 
BRANCH  15  16
ATOM     16  C   UNL     1      -8.816   0.663 124.964  0.00  0.00    +0.000 C 
ATOM     17  C   UNL     1      -7.978   0.102 123.811  0.00  0.00    +0.000 C 
ATOM     18  C   UNL     1      -7.066   1.170 123.181  0.00  0.00    +0.000 C 
ATOM     19  N   UNL     1      -7.646   2.435 122.759  0.00  0.00    +0.000 NA
ATOM     20  C   UNL     1      -8.520   2.944 123.835  0.00  0.00    +0.000 C 
ATOM     21  C   UNL     1      -9.474   1.940 124.452  0.00  0.00    +0.000 C 
BRANCH  19  22
ATOM     22  C   UNL     1      -6.465   3.347 122.585  0.00  0.00    +0.000 C 
BRANCH  22  23
ATOM     23  C   UNL     1      -6.409   3.914 121.208  0.00  0.00    +0.000 A 
ATOM     24  C   UNL     1      -7.527   3.845 120.389  0.00  0.00    +0.000 A 
ATOM     25  C   UNL     1      -7.473   4.444 119.141  0.00  0.00    +0.000 A 
ATOM     26  C   UNL     1      -6.379   5.240 118.786  0.00  0.00    +0.000 A 
ATOM     27  C   UNL     1      -5.273   5.334 119.614  0.00  0.00    +0.000 A 
ATOM     28  C   UNL     1      -5.255   4.581 120.767  0.00  0.00    +0.000 A 
ENDBRANCH  22  23
ENDBRANCH  19  22
ENDBRANCH  15  16
ENDBRANCH   7  15
TORSDOF 6
ENDMDL
