MODEL 1
REMARK VINA RESULT:      -5.9      0.000      0.000
REMARK  Name = Dopamine
REMARK  5 active torsions:
REMARK  status: ('A' for Active; 'I' for Inactive)
REMARK    1  A    between atoms: N_1  and  C_2
REMARK    2  A    between atoms: C_2  and  C_3
REMARK    3  A    between atoms: C_3  and  C_4
REMARK    4  A    between atoms: C_6  and  O_7
REMARK    5  A    between atoms: C_8  and  O_9
REMARK                            x       y       z     vdW  Elec       q    Type
REMARK                         _______ _______ _______ _____ _____    ______ ____
ROOT
ATOM      1  C   UNL     1     -12.944   9.053 129.446  0.00  0.00    +0.000 A 
ATOM      2  C   UNL     1     -12.834   8.362 130.666  0.00  0.00    +0.000 A 
ATOM      3  C   UNL     1     -12.430   7.031 130.683  0.00  0.00    +0.000 A 
ATOM      4  C   UNL     1     -12.121   6.377 129.500  0.00  0.00    +0.000 A 
ATOM      5  C   UNL     1     -12.199   7.041 128.284  0.00  0.00    +0.000 A 
ATOM      6  C   UNL     1     -12.609   8.378 128.258  0.00  0.00    +0.000 A 
ENDROOT
BRANCH   3   7
ATOM      7  O   UNL     1     -12.329   6.333 131.856  0.00  0.00    +0.000 OA
ATOM      8  H   UNL     1     -12.622   6.914 132.579  0.00  0.00    +0.000 HD
ENDBRANCH   3   7
BRANCH   4   9
ATOM      9  O   UNL     1     -11.737   5.067 129.521  0.00  0.00    +0.000 OA
ATOM     10  H   UNL     1     -11.713   4.804 128.579  0.00  0.00    +0.000 HD
ENDBRANCH   4   9
BRANCH   1  11
ATOM     11  C   UNL     1     -13.393  10.502 129.364  0.00  0.00    +0.000 C 
BRANCH  11  12
ATOM     12  C   UNL     1     -13.434  11.230 130.716  0.00  0.00    +0.000 C 
BRANCH  12  13
ATOM     13  N   UNL     1     -13.795  12.638 130.597  0.00  0.00    +0.000 NA
ATOM     14  H   UNL     1     -14.215  12.790 129.679  0.00  0.00    +0.000 HD
ATOM     15  H   UNL     1     -12.954  13.212 130.621  0.00  0.00    +0.000 HD
ENDBRANCH  12  13
ENDBRANCH  11  12
ENDBRANCH   1  11
TORSDOF 5
ENDMDL
MODEL 2
REMARK VINA RESULT:      -5.7      0.932      2.083
REMARK  Name = Dopamine
REMARK  5 active torsions:
REMARK  status: ('A' for Active; 'I' for Inactive)
REMARK    1  A    between atoms: N_1  and  C_2
REMARK    2  A    between atoms: C_2  and  C_3
REMARK    3  A    between atoms: C_3  and  C_4
REMARK    4  A    between atoms: C_6  and  O_7
REMARK    5  A    between atoms: C_8  and  O_9
REMARK                            x       y       z     vdW  Elec       q    Type
REMARK                         _______ _______ _______ _____ _____    ______ ____
ROOT
ATOM      1  C   UNL     1     -13.057   9.303 129.292  0.00  0.00    +0.000 A 
ATOM      2  C   UNL     1     -12.807   8.595 128.102  0.00  0.00    +0.000 A 
ATOM      3  C   UNL     1     -12.384   7.271 128.151  0.00  0.00    +0.000 A 
ATOM      4  C   UNL     1     -12.216   6.632 129.370  0.00  0.00    +0.000 A 
ATOM      5  C   UNL     1     -12.477   7.299 130.558  0.00  0.00    +0.000 A 
ATOM      6  C   UNL     1     -12.898   8.632 130.518  0.00  0.00    +0.000 A 
ENDROOT
BRANCH   3   7
ATOM      7  O   UNL     1     -12.121   6.566 127.007  0.00  0.00    +0.000 OA
ATOM      8  H   UNL     1     -12.470   5.666 127.121  0.00  0.00    +0.000 HD
ENDBRANCH   3   7
BRANCH   4   9
ATOM      9  O   UNL     1     -11.789   5.336 129.412  0.00  0.00    +0.000 OA
ATOM     10  H   UNL     1     -12.449   4.844 128.883  0.00  0.00    +0.000 HD
ENDBRANCH   4   9
BRANCH   1  11
ATOM     11  C   UNL     1     -13.507  10.754 129.303  0.00  0.00    +0.000 C 
BRANCH  11  12
ATOM     12  C   UNL     1     -13.452  11.424 130.684  0.00  0.00    +0.000 C 
BRANCH  12  13
ATOM     13  N   UNL     1     -13.831  12.832 130.652  0.00  0.00    +0.000 NA
ATOM     14  H   UNL     1     -14.482  13.011 131.417  0.00  0.00    +0.000 HD
ATOM     15  H   UNL     1     -14.342  13.032 129.794  0.00  0.00    +0.000 HD
ENDBRANCH  12  13
ENDBRANCH  11  12
ENDBRANCH   1  11
TORSDOF 5
ENDMDL
MODEL 3
REMARK VINA RESULT:      -5.7      2.192      2.393
REMARK  Name = Dopamine
REMARK  5 active torsions:
REMARK  status: ('A' for Active; 'I' for Inactive)
REMARK    1  A    between atoms: N_1  and  C_2
REMARK    2  A    between atoms: C_2  and  C_3
REMARK    3  A    between atoms: C_3  and  C_4
REMARK    4  A    between atoms: C_6  and  O_7
REMARK    5  A    between atoms: C_8  and  O_9
REMARK                            x       y       z     vdW  Elec       q    Type
REMARK                         _______ _______ _______ _____ _____    ______ ____
ROOT
ATOM      1  C   UNL     1     -12.765   9.162 129.152  0.00  0.00    +0.000 A 
ATOM      2  C   UNL     1     -11.458   8.661 129.006  0.00  0.00    +0.000 A 
ATOM      3  C   UNL     1     -11.170   7.736 128.008  0.00  0.00    +0.000 A 
ATOM      4  C   UNL     1     -12.164   7.307 127.141  0.00  0.00    +0.000 A 
ATOM      5  C   UNL     1     -13.456   7.801 127.248  0.00  0.00    +0.000 A 
ATOM      6  C   UNL     1     -13.755   8.728 128.252  0.00  0.00    +0.000 A 
ENDROOT
BRANCH   3   7
ATOM      7  O   UNL     1      -9.910   7.224 127.855  0.00  0.00    +0.000 OA
ATOM      8  H   UNL     1      -9.346   7.919 127.475  0.00  0.00    +0.000 HD
ENDBRANCH   3   7
BRANCH   4   9
ATOM      9  O   UNL     1     -11.878   6.390 126.172  0.00  0.00    +0.000 OA
ATOM     10  H   UNL     1     -10.957   6.587 125.911  0.00  0.00    +0.000 HD
ENDBRANCH   4   9
BRANCH   1  11
ATOM     11  C   UNL     1     -13.142  10.163 130.230  0.00  0.00    +0.000 C 
BRANCH  11  12
ATOM     12  C   UNL     1     -13.776  11.457 129.699  0.00  0.00    +0.000 C 
BRANCH  12  13
ATOM     13  N   UNL     1     -13.770  12.540 130.676  0.00  0.00    +0.000 NA
ATOM     14  H   UNL     1     -14.050  13.403 130.206  0.00  0.00    +0.000 HD
ATOM     15  H   UNL     1     -12.821  12.697 131.010  0.00  0.00    +0.000 HD
ENDBRANCH  12  13
ENDBRANCH  11  12
ENDBRANCH   1  11
TORSDOF 5
ENDMDL
MODEL 4
REMARK VINA RESULT:      -5.6      3.283      3.951
REMARK  Name = Dopamine
REMARK  5 active torsions:
REMARK  status: ('A' for Active; 'I' for Inactive)
REMARK    1  A    between atoms: N_1  and  C_2
REMARK    2  A    between atoms: C_2  and  C_3
REMARK    3  A    between atoms: C_3  and  C_4
REMARK    4  A    between atoms: C_6  and  O_7
REMARK    5  A    between atoms: C_8  and  O_9
REMARK                            x       y       z     vdW  Elec       q    Type
REMARK                         _______ _______ _______ _____ _____    ______ ____
ROOT
ATOM      1  C   UNL     1     -10.692   7.790 129.174  0.00  0.00    +0.000 A 
ATOM      2  C   UNL     1     -11.923   7.719 129.852  0.00  0.00    +0.000 A 
ATOM      3  C   UNL     1     -12.013   7.060 131.074  0.00  0.00    +0.000 A 
ATOM      4  C   UNL     1     -10.889   6.479 131.641  0.00  0.00    +0.000 A 
ATOM      5  C   UNL     1      -9.658   6.554 131.006  0.00  0.00    +0.000 A 
ATOM      6  C   UNL     1      -9.560   7.209 129.774  0.00  0.00    +0.000 A 
ENDROOT
BRANCH   3   7
ATOM      7  O   UNL     1     -13.202   6.965 131.745  0.00  0.00    +0.000 OA
ATOM      8  H   UNL     1     -13.181   6.155 132.283  0.00  0.00    +0.000 HD
ENDBRANCH   3   7
BRANCH   4   9
ATOM      9  O   UNL     1     -10.985   5.824 132.835  0.00  0.00    +0.000 OA
ATOM     10  H   UNL     1     -11.794   5.281 132.751  0.00  0.00    +0.000 HD
ENDBRANCH   4   9
BRANCH   1  11
ATOM     11  C   UNL     1     -10.536   8.483 127.831  0.00  0.00    +0.000 C 
BRANCH  11  12
ATOM     12  C   UNL     1     -11.141   7.713 126.648  0.00  0.00    +0.000 C 
BRANCH  12  13
ATOM     13  N   UNL     1     -10.397   6.505 126.310  0.00  0.00    +0.000 NA
ATOM     14  H   UNL     1      -9.783   6.272 127.092  0.00  0.00    +0.000 HD
ATOM     15  H   UNL     1      -9.786   6.688 125.516  0.00  0.00    +0.000 HD
ENDBRANCH  12  13
ENDBRANCH  11  12
ENDBRANCH   1  11
TORSDOF 5
ENDMDL
MODEL 5
REMARK VINA RESULT:      -5.5     13.520     14.684
REMARK  Name = Dopamine
REMARK  5 active torsions:
REMARK  status: ('A' for Active; 'I' for Inactive)
REMARK    1  A    between atoms: N_1  and  C_2
REMARK    2  A    between atoms: C_2  and  C_3
REMARK    3  A    between atoms: C_3  and  C_4
REMARK    4  A    between atoms: C_6  and  O_7
REMARK    5  A    between atoms: C_8  and  O_9
REMARK                            x       y       z     vdW  Elec       q    Type
REMARK                         _______ _______ _______ _____ _____    ______ ____
ROOT
ATOM      1  C   UNL     1      -6.452  -2.948 124.028  0.00  0.00    +0.000 A 
ATOM      2  C   UNL     1      -7.719  -3.558 124.079  0.00  0.00    +0.000 A 
ATOM      3  C   UNL     1      -8.845  -2.870 123.637  0.00  0.00    +0.000 A 
ATOM      4  C   UNL     1      -8.728  -1.584 123.132  0.00  0.00    +0.000 A 
ATOM      5  C   UNL     1      -7.488  -0.967 123.050  0.00  0.00    +0.000 A 
ATOM      6  C   UNL     1      -6.352  -1.650 123.496  0.00  0.00    +0.000 A 
ENDROOT
BRANCH   3   7
ATOM      7  O   UNL     1     -10.090  -3.436 123.690  0.00  0.00    +0.000 OA
ATOM      8  H   UNL     1     -10.702  -2.784 124.072  0.00  0.00    +0.000 HD
ENDBRANCH   3   7
BRANCH   4   9
ATOM      9  O   UNL     1      -9.838  -0.909 122.712  0.00  0.00    +0.000 OA
ATOM     10  H   UNL     1      -9.491  -0.067 122.356  0.00  0.00    +0.000 HD
ENDBRANCH   4   9
BRANCH   1  11
ATOM     11  C   UNL     1      -5.190  -3.643 124.508  0.00  0.00    +0.000 C 
BRANCH  11  12
ATOM     12  C   UNL     1      -4.234  -4.069 123.383  0.00  0.00    +0.000 C 
BRANCH  12  13
ATOM     13  N   UNL     1      -4.229  -5.509 123.151  0.00  0.00    +0.000 NA
ATOM     14  H   UNL     1      -5.179  -5.805 122.923  0.00  0.00    +0.000 HD
ATOM     15  H   UNL     1      -3.980  -5.995 124.011  0.00  0.00    +0.000 HD
ENDBRANCH  12  13
ENDBRANCH  11  12
ENDBRANCH   1  11
TORSDOF 5
ENDMDL
MODEL 6
REMARK VINA RESULT:      -5.4      3.233      4.009
REMARK  Name = Dopamine
REMARK  5 active torsions:
REMARK  status: ('A' for Active; 'I' for Inactive)
REMARK    1  A    between atoms: N_1  and  C_2
REMARK    2  A    between atoms: C_2  and  C_3
REMARK    3  A    between atoms: C_3  and  C_4
REMARK    4  A    between atoms: C_6  and  O_7
REMARK    5  A    between atoms: C_8  and  O_9
REMARK                            x       y       z     vdW  Elec       q    Type
REMARK                         _______ _______ _______ _____ _____    ______ ____
ROOT
ATOM      1  C   UNL     1     -11.062   7.696 129.335  0.00  0.00    +0.000 A 
ATOM      2  C   UNL     1      -9.780   7.368 129.813  0.00  0.00    +0.000 A 
ATOM      3  C   UNL     1      -9.635   6.701 131.025  0.00  0.00    +0.000 A 
ATOM      4  C   UNL     1     -10.750   6.343 131.767  0.00  0.00    +0.000 A 
ATOM      5  C   UNL     1     -12.027   6.635 131.309  0.00  0.00    +0.000 A 
ATOM      6  C   UNL     1     -12.182   7.310 130.094  0.00  0.00    +0.000 A 
ENDROOT
BRANCH   3   7
ATOM      7  O   UNL     1      -8.398   6.383 131.518  0.00  0.00    +0.000 OA
ATOM      8  H   UNL     1      -8.448   6.398 132.490  0.00  0.00    +0.000 HD
ENDBRANCH   3   7
BRANCH   4   9
ATOM      9  O   UNL     1     -10.601   5.700 132.962  0.00  0.00    +0.000 OA
ATOM     10  H   UNL     1      -9.915   5.024 132.792  0.00  0.00    +0.000 HD
ENDBRANCH   4   9
BRANCH   1  11
ATOM     11  C   UNL     1     -11.283   8.435 128.026  0.00  0.00    +0.000 C 
BRANCH  11  12
ATOM     12  C   UNL     1     -10.865   7.647 126.776  0.00  0.00    +0.000 C 
BRANCH  12  13
ATOM     13  N   UNL     1     -11.912   6.760 126.282  0.00  0.00    +0.000 NA
ATOM     14  H   UNL     1     -12.442   6.406 127.080  0.00  0.00    +0.000 HD
ATOM     15  H   UNL     1     -11.492   5.946 125.838  0.00  0.00    +0.000 HD
ENDBRANCH  12  13
ENDBRANCH  11  12
ENDBRANCH   1  11
TORSDOF 5
ENDMDL
MODEL 7
REMARK VINA RESULT:      -5.2      3.512      4.224
REMARK  Name = Dopamine
REMARK  5 active torsions:
REMARK  status: ('A' for Active; 'I' for Inactive)
REMARK    1  A    between atoms: N_1  and  C_2
REMARK    2  A    between atoms: C_2  and  C_3
REMARK    3  A    between atoms: C_3  and  C_4
REMARK    4  A    between atoms: C_6  and  O_7
REMARK    5  A    between atoms: C_8  and  O_9
REMARK                            x       y       z     vdW  Elec       q    Type
REMARK                         _______ _______ _______ _____ _____    ______ ____
ROOT
ATOM      1  C   UNL     1     -12.083   7.495 129.402  0.00  0.00    +0.000 A 
ATOM      2  C   UNL     1     -12.713   6.857 128.318  0.00  0.00    +0.000 A 
ATOM      3  C   UNL     1     -12.251   7.061 127.021  0.00  0.00    +0.000 A 
ATOM      4  C   UNL     1     -11.161   7.884 126.786  0.00  0.00    +0.000 A 
ATOM      5  C   UNL     1     -10.506   8.508 127.839  0.00  0.00    +0.000 A 
ATOM      6  C   UNL     1     -10.967   8.312 129.145  0.00  0.00    +0.000 A 
ENDROOT
BRANCH   3   7
ATOM      7  O   UNL     1     -12.856   6.463 125.949  0.00  0.00    +0.000 OA
ATOM      8  H   UNL     1     -13.744   6.848 125.850  0.00  0.00    +0.000 HD
ENDBRANCH   3   7
BRANCH   4   9
ATOM      9  O   UNL     1     -10.720   8.090 125.511  0.00  0.00    +0.000 OA
ATOM     10  H   UNL     1     -11.146   7.382 124.987  0.00  0.00    +0.000 HD
ENDBRANCH   4   9
BRANCH   1  11
ATOM     11  C   UNL     1     -12.550   7.322 130.837  0.00  0.00    +0.000 C 
BRANCH  11  12
ATOM     12  C   UNL     1     -11.866   6.171 131.591  0.00  0.00    +0.000 C 
BRANCH  12  13
ATOM     13  N   UNL     1     -10.660   6.587 132.297  0.00  0.00    +0.000 NA
ATOM     14  H   UNL     1     -10.674   7.603 132.395  0.00  0.00    +0.000 HD
ATOM     15  H   UNL     1      -9.839   6.369 131.735  0.00  0.00    +0.000 HD
ENDBRANCH  12  13
ENDBRANCH  11  12
ENDBRANCH   1  11
TORSDOF 5
ENDMDL
MODEL 8
REMARK VINA RESULT:      -5.0      3.773      4.967
REMARK  Name = Dopamine
REMARK  5 active torsions:
REMARK  status: ('A' for Active; 'I' for Inactive)
REMARK    1  A    between atoms: N_1  and  C_2
REMARK    2  A    between atoms: C_2  and  C_3
REMARK    3  A    between atoms: C_3  and  C_4
REMARK    4  A    between atoms: C_6  and  O_7
REMARK    5  A    between atoms: C_8  and  O_9
REMARK                            x       y       z     vdW  Elec       q    Type
REMARK                         _______ _______ _______ _____ _____    ______ ____
ROOT
ATOM      1  C   UNL     1     -11.079   6.667 130.530  0.00  0.00    +0.000 A 
ATOM      2  C   UNL     1     -10.562   7.223 129.345  0.00  0.00    +0.000 A 
ATOM      3  C   UNL     1     -11.212   8.290 128.732  0.00  0.00    +0.000 A 
ATOM      4  C   UNL     1     -12.365   8.822 129.288  0.00  0.00    +0.000 A 
ATOM      5  C   UNL     1     -12.884   8.307 130.468  0.00  0.00    +0.000 A 
ATOM      6  C   UNL     1     -12.239   7.231 131.088  0.00  0.00    +0.000 A 
ENDROOT
BRANCH   3   7
ATOM      7  O   UNL     1     -10.738   8.839 127.572  0.00  0.00    +0.000 OA
ATOM      8  H   UNL     1     -10.093   8.221 127.187  0.00  0.00    +0.000 HD
ENDBRANCH   3   7
BRANCH   4   9
ATOM      9  O   UNL     1     -13.005   9.861 128.676  0.00  0.00    +0.000 OA
ATOM     10  H   UNL     1     -12.757  10.646 129.204  0.00  0.00    +0.000 HD
ENDBRANCH   4   9
BRANCH   1  11
ATOM     11  C   UNL     1     -10.421   5.493 131.236  0.00  0.00    +0.000 C 
BRANCH  11  12
ATOM     12  C   UNL     1      -9.915   5.809 132.652  0.00  0.00    +0.000 C 
BRANCH  12  13
ATOM     13  N   UNL     1      -9.850   4.633 133.512  0.00  0.00    +0.000 NA
ATOM     14  H   UNL     1     -10.749   4.525 133.984  0.00  0.00    +0.000 HD
ATOM     15  H   UNL     1      -9.161   4.782 134.247  0.00  0.00    +0.000 HD
ENDBRANCH  12  13
ENDBRANCH  11  12
ENDBRANCH   1  11
TORSDOF 5
ENDMDL
MODEL 9
REMARK VINA RESULT:      -5.0      2.569      3.146
REMARK  Name = Dopamine
REMARK  5 active torsions:
REMARK  status: ('A' for Active; 'I' for Inactive)
REMARK    1  A    between atoms: N_1  and  C_2
REMARK    2  A    between atoms: C_2  and  C_3
REMARK    3  A    between atoms: C_3  and  C_4
REMARK    4  A    between atoms: C_6  and  O_7
REMARK    5  A    between atoms: C_8  and  O_9
REMARK                            x       y       z     vdW  Elec       q    Type
REMARK                         _______ _______ _______ _____ _____    ______ ____
ROOT
ATOM      1  C   UNL     1     -11.598   7.251 130.244  0.00  0.00    +0.000 A 
ATOM      2  C   UNL     1     -11.598   6.504 131.437  0.00  0.00    +0.000 A 
ATOM      3  C   UNL     1     -10.395   6.114 132.018  0.00  0.00    +0.000 A 
ATOM      4  C   UNL     1      -9.188   6.466 131.435  0.00  0.00    +0.000 A 
ATOM      5  C   UNL     1      -9.158   7.221 130.271  0.00  0.00    +0.000 A 
ATOM      6  C   UNL     1     -10.363   7.613 129.678  0.00  0.00    +0.000 A 
ENDROOT
BRANCH   3   7
ATOM      7  O   UNL     1     -10.369   5.375 133.169  0.00  0.00    +0.000 OA
ATOM      8  H   UNL     1     -11.264   5.376 133.549  0.00  0.00    +0.000 HD
ENDBRANCH   3   7
BRANCH   4   9
ATOM      9  O   UNL     1      -8.011   6.069 132.002  0.00  0.00    +0.000 OA
ATOM     10  H   UNL     1      -7.860   5.170 131.647  0.00  0.00    +0.000 HD
ENDBRANCH   4   9
BRANCH   1  11
ATOM     11  C   UNL     1     -12.878   7.694 129.557  0.00  0.00    +0.000 C 
BRANCH  11  12
ATOM     12  C   UNL     1     -12.675   8.753 128.462  0.00  0.00    +0.000 C 
BRANCH  12  13
ATOM     13  N   UNL     1     -13.216  10.059 128.822  0.00  0.00    +0.000 NA
ATOM     14  H   UNL     1     -14.124  10.171 128.370  0.00  0.00    +0.000 HD
ATOM     15  H   UNL     1     -12.620  10.794 128.445  0.00  0.00    +0.000 HD
ENDBRANCH  12  13
ENDBRANCH  11  12
ENDBRANCH   1  11
TORSDOF 5
ENDMDL
