MODEL 1
REMARK VINA RESULT:      -6.8      0.000      0.000
REMARK  Name = Dopexamine
REMARK  15 active torsions:
REMARK  status: ('A' for Active; 'I' for Inactive)
REMARK    1  A    between atoms: O_1  and  C_2
REMARK    2  A    between atoms: C_3  and  O_4
REMARK    3  A    between atoms: C_6  and  C_7
REMARK    4  A    between atoms: C_7  and  C_8
REMARK    5  A    between atoms: C_8  and  N_9
REMARK    6  A    between atoms: N_9  and  C_10
REMARK    7  A    between atoms: C_10  and  C_11
REMARK    8  A    between atoms: C_11  and  C_12
REMARK    9  A    between atoms: C_12  and  C_13
REMARK   10  A    between atoms: C_13  and  C_14
REMARK   11  A    between atoms: C_14  and  C_15
REMARK   12  A    between atoms: C_15  and  N_16
REMARK   13  A    between atoms: N_16  and  C_17
REMARK   14  A    between atoms: C_17  and  C_18
REMARK   15  A    between atoms: C_18  and  C_19
REMARK                            x       y       z     vdW  Elec       q    Type
REMARK                         _______ _______ _______ _____ _____    ______ ____
ROOT
ATOM      1  C   UNL     1      -8.441   3.474 125.409  0.00  0.00    +0.000 C 
ENDROOT
BRANCH   1   2
ATOM      2  N   UNL     1      -8.096   3.821 124.034  0.00  0.00    +0.000 NA
ATOM      3  H   UNL     1      -8.573   3.190 123.392  0.00  0.00    +0.000 HD
BRANCH   2   4
ATOM      4  C   UNL     1      -6.654   3.685 123.877  0.00  0.00    +0.000 C 
BRANCH   4   5
ATOM      5  C   UNL     1      -6.271   2.901 122.623  0.00  0.00    +0.000 C 
BRANCH   5   9
ATOM      6  C   UNL     1      -5.977   5.365 119.084  0.00  0.00    +0.000 A 
ATOM      7  C   UNL     1      -7.085   4.542 119.289  0.00  0.00    +0.000 A 
ATOM      8  C   UNL     1      -7.167   3.754 120.438  0.00  0.00    +0.000 A 
ATOM      9  C   UNL     1      -6.142   3.774 121.393  0.00  0.00    +0.000 A 
ATOM     10  C   UNL     1      -5.035   4.607 121.165  0.00  0.00    +0.000 A 
ATOM     11  C   UNL     1      -4.956   5.397 120.022  0.00  0.00    +0.000 A 
BRANCH   6  12
ATOM     12  O   UNL     1      -5.797   6.175 118.000  0.00  0.00    +0.000 OA
ATOM     13  H   UNL     1      -6.602   6.229 117.475  0.00  0.00    +0.000 HD
ENDBRANCH   6  12
BRANCH   7  14
ATOM     14  O   UNL     1      -8.136   4.437 118.427  0.00  0.00    +0.000 OA
ATOM     15  H   UNL     1      -8.765   5.155 118.563  0.00  0.00    +0.000 HD
ENDBRANCH   7  14
ENDBRANCH   5   9
ENDBRANCH   4   5
ENDBRANCH   2   4
ENDBRANCH   1   2
BRANCH   1  16
ATOM     16  C   UNL     1      -7.715   2.201 125.789  0.00  0.00    +0.000 C 
BRANCH  16  17
ATOM     17  C   UNL     1      -8.676   1.026 125.719  0.00  0.00    +0.000 C 
BRANCH  17  18
ATOM     18  C   UNL     1      -9.546   1.146 124.483  0.00  0.00    +0.000 C 
BRANCH  18  19
ATOM     19  C   UNL     1      -9.387  -0.092 123.620  0.00  0.00    +0.000 C 
BRANCH  19  20
ATOM     20  C   UNL     1      -7.916  -0.363 123.391  0.00  0.00    +0.000 C 
BRANCH  20  21
ATOM     21  N   UNL     1      -7.723  -1.802 123.260  0.00  0.00    +0.000 NA
ATOM     22  H   UNL     1      -6.883  -2.084 123.766  0.00  0.00    +0.000 HD
BRANCH  21  23
ATOM     23  C   UNL     1      -8.885  -2.467 123.832  0.00  0.00    +0.000 C 
BRANCH  23  24
ATOM     24  C   UNL     1      -8.502  -3.652 124.714  0.00  0.00    +0.000 C 
BRANCH  24  25
ATOM     25  C   UNL     1      -8.192  -3.248 126.139  0.00  0.00    +0.000 A 
ATOM     26  C   UNL     1      -7.138  -2.376 126.467  0.00  0.00    +0.000 A 
ATOM     27  C   UNL     1      -6.804  -2.128 127.795  0.00  0.00    +0.000 A 
ATOM     28  C   UNL     1      -7.561  -2.689 128.812  0.00  0.00    +0.000 A 
ATOM     29  C   UNL     1      -8.645  -3.512 128.506  0.00  0.00    +0.000 A 
ATOM     30  C   UNL     1      -8.955  -3.795 127.174  0.00  0.00    +0.000 A 
ENDBRANCH  24  25
ENDBRANCH  23  24
ENDBRANCH  21  23
ENDBRANCH  20  21
ENDBRANCH  19  20
ENDBRANCH  18  19
ENDBRANCH  17  18
ENDBRANCH  16  17
ENDBRANCH   1  16
TORSDOF 15
ENDMDL
MODEL 2
REMARK VINA RESULT:      -6.6      5.436      9.151
REMARK  Name = Dopexamine
REMARK  15 active torsions:
REMARK  status: ('A' for Active; 'I' for Inactive)
REMARK    1  A    between atoms: O_1  and  C_2
REMARK    2  A    between atoms: C_3  and  O_4
REMARK    3  A    between atoms: C_6  and  C_7
REMARK    4  A    between atoms: C_7  and  C_8
REMARK    5  A    between atoms: C_8  and  N_9
REMARK    6  A    between atoms: N_9  and  C_10
REMARK    7  A    between atoms: C_10  and  C_11
REMARK    8  A    between atoms: C_11  and  C_12
REMARK    9  A    between atoms: C_12  and  C_13
REMARK   10  A    between atoms: C_13  and  C_14
REMARK   11  A    between atoms: C_14  and  C_15
REMARK   12  A    between atoms: C_15  and  N_16
REMARK   13  A    between atoms: N_16  and  C_17
REMARK   14  A    between atoms: C_17  and  C_18
REMARK   15  A    between atoms: C_18  and  C_19
REMARK                            x       y       z     vdW  Elec       q    Type
REMARK                         _______ _______ _______ _____ _____    ______ ____
ROOT
ATOM      1  C   UNL     1      -7.940   2.935 131.338  0.00  0.00    +0.000 C 
ENDROOT
BRANCH   1   2
ATOM      2  N   UNL     1      -7.802   4.234 131.990  0.00  0.00    +0.000 NA
ATOM      3  H   UNL     1      -7.106   4.170 132.732  0.00  0.00    +0.000 HD
BRANCH   2   4
ATOM      4  C   UNL     1      -9.094   4.600 132.556  0.00  0.00    +0.000 C 
BRANCH   4   5
ATOM      5  C   UNL     1      -9.364   6.102 132.477  0.00  0.00    +0.000 C 
BRANCH   5   9
ATOM      6  C   UNL     1     -12.038   7.174 129.254  0.00  0.00    +0.000 A 
ATOM      7  C   UNL     1     -10.661   7.106 129.044  0.00  0.00    +0.000 A 
ATOM      8  C   UNL     1      -9.810   6.755 130.094  0.00  0.00    +0.000 A 
ATOM      9  C   UNL     1     -10.324   6.475 131.367  0.00  0.00    +0.000 A 
ATOM     10  C   UNL     1     -11.713   6.554 131.557  0.00  0.00    +0.000 A 
ATOM     11  C   UNL     1     -12.562   6.897 130.509  0.00  0.00    +0.000 A 
BRANCH   6  12
ATOM     12  O   UNL     1     -12.957   7.503 128.301  0.00  0.00    +0.000 OA
ATOM     13  H   UNL     1     -12.628   7.297 127.421  0.00  0.00    +0.000 HD
ENDBRANCH   6  12
BRANCH   7  14
ATOM     14  O   UNL     1     -10.050   7.363 127.853  0.00  0.00    +0.000 OA
ATOM     15  H   UNL     1     -10.387   6.782 127.161  0.00  0.00    +0.000 HD
ENDBRANCH   7  14
ENDBRANCH   5   9
ENDBRANCH   4   5
ENDBRANCH   2   4
ENDBRANCH   1   2
BRANCH   1  16
ATOM     16  C   UNL     1      -8.957   3.054 130.222  0.00  0.00    +0.000 C 
BRANCH  16  17
ATOM     17  C   UNL     1      -8.270   2.849 128.883  0.00  0.00    +0.000 C 
BRANCH  17  18
ATOM     18  C   UNL     1      -7.900   4.191 128.282  0.00  0.00    +0.000 C 
BRANCH  18  19
ATOM     19  C   UNL     1      -7.212   3.984 126.945  0.00  0.00    +0.000 C 
BRANCH  19  20
ATOM     20  C   UNL     1      -8.053   4.596 125.845  0.00  0.00    +0.000 C 
BRANCH  20  21
ATOM     21  N   UNL     1      -8.946   3.569 125.319  0.00  0.00    +0.000 NA
ATOM     22  H   UNL     1      -9.727   4.011 124.833  0.00  0.00    +0.000 HD
BRANCH  21  23
ATOM     23  C   UNL     1      -8.190   2.748 124.386  0.00  0.00    +0.000 C 
BRANCH  23  24
ATOM     24  C   UNL     1      -8.826   2.707 122.999  0.00  0.00    +0.000 C 
BRANCH  24  25
ATOM     25  C   UNL     1      -7.950   3.327 121.933  0.00  0.00    +0.000 A 
ATOM     26  C   UNL     1      -8.456   3.763 120.695  0.00  0.00    +0.000 A 
ATOM     27  C   UNL     1      -7.601   4.210 119.692  0.00  0.00    +0.000 A 
ATOM     28  C   UNL     1      -6.239   4.295 119.935  0.00  0.00    +0.000 A 
ATOM     29  C   UNL     1      -5.724   3.920 121.176  0.00  0.00    +0.000 A 
ATOM     30  C   UNL     1      -6.577   3.432 122.169  0.00  0.00    +0.000 A 
ENDBRANCH  24  25
ENDBRANCH  23  24
ENDBRANCH  21  23
ENDBRANCH  20  21
ENDBRANCH  19  20
ENDBRANCH  18  19
ENDBRANCH  17  18
ENDBRANCH  16  17
ENDBRANCH   1  16
TORSDOF 15
ENDMDL
MODEL 3
REMARK VINA RESULT:      -6.6      1.704      2.897
REMARK  Name = Dopexamine
REMARK  15 active torsions:
REMARK  status: ('A' for Active; 'I' for Inactive)
REMARK    1  A    between atoms: O_1  and  C_2
REMARK    2  A    between atoms: C_3  and  O_4
REMARK    3  A    between atoms: C_6  and  C_7
REMARK    4  A    between atoms: C_7  and  C_8
REMARK    5  A    between atoms: C_8  and  N_9
REMARK    6  A    between atoms: N_9  and  C_10
REMARK    7  A    between atoms: C_10  and  C_11
REMARK    8  A    between atoms: C_11  and  C_12
REMARK    9  A    between atoms: C_12  and  C_13
REMARK   10  A    between atoms: C_13  and  C_14
REMARK   11  A    between atoms: C_14  and  C_15
REMARK   12  A    between atoms: C_15  and  N_16
REMARK   13  A    between atoms: N_16  and  C_17
REMARK   14  A    between atoms: C_17  and  C_18
REMARK   15  A    between atoms: C_18  and  C_19
REMARK                            x       y       z     vdW  Elec       q    Type
REMARK                         _______ _______ _______ _____ _____    ______ ____
ROOT
ATOM      1  C   UNL     1      -9.945   1.346 123.955  0.00  0.00    +0.000 C 
ENDROOT
BRANCH   1   2
ATOM      2  N   UNL     1      -8.549   1.547 124.332  0.00  0.00    +0.000 NA
ATOM      3  H   UNL     1      -8.460   1.496 125.346  0.00  0.00    +0.000 HD
BRANCH   2   4
ATOM      4  C   UNL     1      -8.135   2.863 123.866  0.00  0.00    +0.000 C 
BRANCH   4   5
ATOM      5  C   UNL     1      -6.634   2.943 123.591  0.00  0.00    +0.000 C 
BRANCH   5   9
ATOM      6  C   UNL     1      -5.627   4.984 119.916  0.00  0.00    +0.000 A 
ATOM      7  C   UNL     1      -4.878   5.192 121.075  0.00  0.00    +0.000 A 
ATOM      8  C   UNL     1      -5.213   4.523 122.253  0.00  0.00    +0.000 A 
ATOM      9  C   UNL     1      -6.304   3.645 122.291  0.00  0.00    +0.000 A 
ATOM     10  C   UNL     1      -7.046   3.454 121.114  0.00  0.00    +0.000 A 
ATOM     11  C   UNL     1      -6.708   4.115 119.938  0.00  0.00    +0.000 A 
BRANCH   6  12
ATOM     12  O   UNL     1      -5.385   5.583 118.714  0.00  0.00    +0.000 OA
ATOM     13  H   UNL     1      -4.787   6.329 118.816  0.00  0.00    +0.000 HD
ENDBRANCH   6  12
BRANCH   7  14
ATOM     14  O   UNL     1      -3.802   6.026 121.158  0.00  0.00    +0.000 OA
ATOM     15  H   UNL     1      -3.627   6.446 120.307  0.00  0.00    +0.000 HD
ENDBRANCH   7  14
ENDBRANCH   5   9
ENDBRANCH   4   5
ENDBRANCH   2   4
ENDBRANCH   1   2
BRANCH   1  16
ATOM     16  C   UNL     1      -9.997   0.821 122.535  0.00  0.00    +0.000 C 
BRANCH  16  17
ATOM     17  C   UNL     1     -10.087  -0.696 122.557  0.00  0.00    +0.000 C 
BRANCH  17  18
ATOM     18  C   UNL     1      -8.697  -1.293 122.652  0.00  0.00    +0.000 C 
BRANCH  18  19
ATOM     19  C   UNL     1      -8.756  -2.621 123.384  0.00  0.00    +0.000 C 
BRANCH  19  20
ATOM     20  C   UNL     1      -7.580  -2.728 124.331  0.00  0.00    +0.000 C 
BRANCH  20  21
ATOM     21  N   UNL     1      -7.345  -1.418 124.928  0.00  0.00    +0.000 NA
ATOM     22  H   UNL     1      -8.137  -0.805 124.734  0.00  0.00    +0.000 HD
BRANCH  21  23
ATOM     23  C   UNL     1      -7.202  -1.596 126.366  0.00  0.00    +0.000 C 
BRANCH  23  24
ATOM     24  C   UNL     1      -5.766  -1.912 126.774  0.00  0.00    +0.000 C 
BRANCH  24  25
ATOM     25  C   UNL     1      -5.674  -2.584 128.126  0.00  0.00    +0.000 A 
ATOM     26  C   UNL     1      -4.448  -2.966 128.701  0.00  0.00    +0.000 A 
ATOM     27  C   UNL     1      -4.412  -3.696 129.886  0.00  0.00    +0.000 A 
ATOM     28  C   UNL     1      -5.593  -3.990 130.549  0.00  0.00    +0.000 A 
ATOM     29  C   UNL     1      -6.815  -3.571 130.024  0.00  0.00    +0.000 A 
ATOM     30  C   UNL     1      -6.855  -2.875 128.814  0.00  0.00    +0.000 A 
ENDBRANCH  24  25
ENDBRANCH  23  24
ENDBRANCH  21  23
ENDBRANCH  20  21
ENDBRANCH  19  20
ENDBRANCH  18  19
ENDBRANCH  17  18
ENDBRANCH  16  17
ENDBRANCH   1  16
TORSDOF 15
ENDMDL
MODEL 4
REMARK VINA RESULT:      -6.6      3.541      5.517
REMARK  Name = Dopexamine
REMARK  15 active torsions:
REMARK  status: ('A' for Active; 'I' for Inactive)
REMARK    1  A    between atoms: O_1  and  C_2
REMARK    2  A    between atoms: C_3  and  O_4
REMARK    3  A    between atoms: C_6  and  C_7
REMARK    4  A    between atoms: C_7  and  C_8
REMARK    5  A    between atoms: C_8  and  N_9
REMARK    6  A    between atoms: N_9  and  C_10
REMARK    7  A    between atoms: C_10  and  C_11
REMARK    8  A    between atoms: C_11  and  C_12
REMARK    9  A    between atoms: C_12  and  C_13
REMARK   10  A    between atoms: C_13  and  C_14
REMARK   11  A    between atoms: C_14  and  C_15
REMARK   12  A    between atoms: C_15  and  N_16
REMARK   13  A    between atoms: N_16  and  C_17
REMARK   14  A    between atoms: C_17  and  C_18
REMARK   15  A    between atoms: C_18  and  C_19
REMARK                            x       y       z     vdW  Elec       q    Type
REMARK                         _______ _______ _______ _____ _____    ______ ____
ROOT
ATOM      1  C   UNL     1      -6.207   2.139 128.909  0.00  0.00    +0.000 C 
ENDROOT
BRANCH   1   2
ATOM      2  N   UNL     1      -6.419   2.654 127.559  0.00  0.00    +0.000 NA
ATOM      3  H   UNL     1      -7.377   2.464 127.268  0.00  0.00    +0.000 HD
BRANCH   2   4
ATOM      4  C   UNL     1      -5.489   1.983 126.663  0.00  0.00    +0.000 C 
BRANCH   4   5
ATOM      5  C   UNL     1      -6.068   0.698 126.070  0.00  0.00    +0.000 C 
BRANCH   5   9
ATOM      6  C   UNL     1     -10.019   1.250 124.405  0.00  0.00    +0.000 A 
ATOM      7  C   UNL     1      -8.890   1.718 123.732  0.00  0.00    +0.000 A 
ATOM      8  C   UNL     1      -7.621   1.530 124.281  0.00  0.00    +0.000 A 
ATOM      9  C   UNL     1      -7.463   0.878 125.511  0.00  0.00    +0.000 A 
ATOM     10  C   UNL     1      -8.613   0.418 126.173  0.00  0.00    +0.000 A 
ATOM     11  C   UNL     1      -9.878   0.600 125.623  0.00  0.00    +0.000 A 
BRANCH   6  12
ATOM     12  O   UNL     1     -11.302   1.377 123.960  0.00  0.00    +0.000 OA
ATOM     13  H   UNL     1     -11.657   0.526 123.687  0.00  0.00    +0.000 HD
ENDBRANCH   6  12
BRANCH   7  14
ATOM     14  O   UNL     1      -8.923   2.371 122.535  0.00  0.00    +0.000 OA
ATOM     15  H   UNL     1      -8.132   2.179 122.018  0.00  0.00    +0.000 HD
ENDBRANCH   7  14
ENDBRANCH   5   9
ENDBRANCH   4   5
ENDBRANCH   2   4
ENDBRANCH   1   2
BRANCH   1  16
ATOM     16  C   UNL     1      -7.494   1.512 129.400  0.00  0.00    +0.000 C 
BRANCH  16  17
ATOM     17  C   UNL     1      -7.213   0.675 130.637  0.00  0.00    +0.000 C 
BRANCH  17  18
ATOM     18  C   UNL     1      -6.769  -0.716 130.227  0.00  0.00    +0.000 C 
BRANCH  18  19
ATOM     19  C   UNL     1      -7.857  -1.382 129.405  0.00  0.00    +0.000 C 
BRANCH  19  20
ATOM     20  C   UNL     1      -7.948  -2.846 129.778  0.00  0.00    +0.000 C 
BRANCH  20  21
ATOM     21  N   UNL     1      -8.433  -3.591 128.622  0.00  0.00    +0.000 NA
ATOM     22  H   UNL     1      -9.449  -3.674 128.669  0.00  0.00    +0.000 HD
BRANCH  21  23
ATOM     23  C   UNL     1      -8.057  -2.857 127.422  0.00  0.00    +0.000 C 
BRANCH  23  24
ATOM     24  C   UNL     1      -8.541  -3.541 126.146  0.00  0.00    +0.000 C 
BRANCH  24  25
ATOM     25  C   UNL     1      -7.991  -2.898 124.892  0.00  0.00    +0.000 A 
ATOM     26  C   UNL     1      -8.817  -2.465 123.838  0.00  0.00    +0.000 A 
ATOM     27  C   UNL     1      -8.267  -1.998 122.647  0.00  0.00    +0.000 A 
ATOM     28  C   UNL     1      -6.891  -1.888 122.520  0.00  0.00    +0.000 A 
ATOM     29  C   UNL     1      -6.058  -2.260 123.575  0.00  0.00    +0.000 A 
ATOM     30  C   UNL     1      -6.607  -2.769 124.754  0.00  0.00    +0.000 A 
ENDBRANCH  24  25
ENDBRANCH  23  24
ENDBRANCH  21  23
ENDBRANCH  20  21
ENDBRANCH  19  20
ENDBRANCH  18  19
ENDBRANCH  17  18
ENDBRANCH  16  17
ENDBRANCH   1  16
TORSDOF 15
ENDMDL
MODEL 5
REMARK VINA RESULT:      -6.5      1.382      2.101
REMARK  Name = Dopexamine
REMARK  15 active torsions:
REMARK  status: ('A' for Active; 'I' for Inactive)
REMARK    1  A    between atoms: O_1  and  C_2
REMARK    2  A    between atoms: C_3  and  O_4
REMARK    3  A    between atoms: C_6  and  C_7
REMARK    4  A    between atoms: C_7  and  C_8
REMARK    5  A    between atoms: C_8  and  N_9
REMARK    6  A    between atoms: N_9  and  C_10
REMARK    7  A    between atoms: C_10  and  C_11
REMARK    8  A    between atoms: C_11  and  C_12
REMARK    9  A    between atoms: C_12  and  C_13
REMARK   10  A    between atoms: C_13  and  C_14
REMARK   11  A    between atoms: C_14  and  C_15
REMARK   12  A    between atoms: C_15  and  N_16
REMARK   13  A    between atoms: N_16  and  C_17
REMARK   14  A    between atoms: C_17  and  C_18
REMARK   15  A    between atoms: C_18  and  C_19
REMARK                            x       y       z     vdW  Elec       q    Type
REMARK                         _______ _______ _______ _____ _____    ______ ____
ROOT
ATOM      1  C   UNL     1      -6.356   1.395 127.210  0.00  0.00    +0.000 C 
ENDROOT
BRANCH   1   2
ATOM      2  N   UNL     1      -5.575   1.819 126.052  0.00  0.00    +0.000 NA
ATOM      3  H   UNL     1      -4.591   1.883 126.310  0.00  0.00    +0.000 HD
BRANCH   2   4
ATOM      4  C   UNL     1      -6.060   3.125 125.629  0.00  0.00    +0.000 C 
BRANCH   4   5
ATOM      5  C   UNL     1      -5.075   3.848 124.711  0.00  0.00    +0.000 C 
BRANCH   5   9
ATOM      6  C   UNL     1      -6.390   4.173 120.606  0.00  0.00    +0.000 A 
ATOM      7  C   UNL     1      -5.329   4.946 121.077  0.00  0.00    +0.000 A 
ATOM      8  C   UNL     1      -4.913   4.828 122.404  0.00  0.00    +0.000 A 
ATOM      9  C   UNL     1      -5.556   3.942 123.278  0.00  0.00    +0.000 A 
ATOM     10  C   UNL     1      -6.625   3.176 122.784  0.00  0.00    +0.000 A 
ATOM     11  C   UNL     1      -7.034   3.289 121.459  0.00  0.00    +0.000 A 
BRANCH   6  12
ATOM     12  O   UNL     1      -6.874   4.208 119.331  0.00  0.00    +0.000 OA
ATOM     13  H   UNL     1      -6.873   3.329 118.939  0.00  0.00    +0.000 HD
ENDBRANCH   6  12
BRANCH   7  14
ATOM     14  O   UNL     1      -4.634   5.844 120.321  0.00  0.00    +0.000 OA
ATOM     15  H   UNL     1      -3.832   5.445 119.964  0.00  0.00    +0.000 HD
ENDBRANCH   7  14
ENDBRANCH   5   9
ENDBRANCH   4   5
ENDBRANCH   2   4
ENDBRANCH   1   2
BRANCH   1  16
ATOM     16  C   UNL     1      -7.792   1.836 127.020  0.00  0.00    +0.000 C 
BRANCH  16  17
ATOM     17  C   UNL     1      -8.627   0.659 126.543  0.00  0.00    +0.000 C 
BRANCH  17  18
ATOM     18  C   UNL     1      -9.155   0.934 125.149  0.00  0.00    +0.000 C 
BRANCH  18  19
ATOM     19  C   UNL     1      -8.318   0.189 124.125  0.00  0.00    +0.000 C 
BRANCH  19  20
ATOM     20  C   UNL     1      -9.231  -0.503 123.135  0.00  0.00    +0.000 C 
BRANCH  20  21
ATOM     21  N   UNL     1      -8.600  -1.750 122.717  0.00  0.00    +0.000 NA
ATOM     22  H   UNL     1      -7.602  -1.716 122.924  0.00  0.00    +0.000 HD
BRANCH  21  23
ATOM     23  C   UNL     1      -9.218  -2.840 123.459  0.00  0.00    +0.000 C 
BRANCH  23  24
ATOM     24  C   UNL     1      -8.190  -3.707 124.181  0.00  0.00    +0.000 C 
BRANCH  24  25
ATOM     25  C   UNL     1      -7.891  -3.218 125.581  0.00  0.00    +0.000 A 
ATOM     26  C   UNL     1      -6.710  -2.525 125.906  0.00  0.00    +0.000 A 
ATOM     27  C   UNL     1      -6.411  -2.205 127.227  0.00  0.00    +0.000 A 
ATOM     28  C   UNL     1      -7.318  -2.507 128.231  0.00  0.00    +0.000 A 
ATOM     29  C   UNL     1      -8.519  -3.145 127.922  0.00  0.00    +0.000 A 
ATOM     30  C   UNL     1      -8.801  -3.504 126.602  0.00  0.00    +0.000 A 
ENDBRANCH  24  25
ENDBRANCH  23  24
ENDBRANCH  21  23
ENDBRANCH  20  21
ENDBRANCH  19  20
ENDBRANCH  18  19
ENDBRANCH  17  18
ENDBRANCH  16  17
ENDBRANCH   1  16
TORSDOF 15
ENDMDL
MODEL 6
REMARK VINA RESULT:      -6.5      7.830     10.396
REMARK  Name = Dopexamine
REMARK  15 active torsions:
REMARK  status: ('A' for Active; 'I' for Inactive)
REMARK    1  A    between atoms: O_1  and  C_2
REMARK    2  A    between atoms: C_3  and  O_4
REMARK    3  A    between atoms: C_6  and  C_7
REMARK    4  A    between atoms: C_7  and  C_8
REMARK    5  A    between atoms: C_8  and  N_9
REMARK    6  A    between atoms: N_9  and  C_10
REMARK    7  A    between atoms: C_10  and  C_11
REMARK    8  A    between atoms: C_11  and  C_12
REMARK    9  A    between atoms: C_12  and  C_13
REMARK   10  A    between atoms: C_13  and  C_14
REMARK   11  A    between atoms: C_14  and  C_15
REMARK   12  A    between atoms: C_15  and  N_16
REMARK   13  A    between atoms: N_16  and  C_17
REMARK   14  A    between atoms: C_17  and  C_18
REMARK   15  A    between atoms: C_18  and  C_19
REMARK                            x       y       z     vdW  Elec       q    Type
REMARK                         _______ _______ _______ _____ _____    ______ ____
ROOT
ATOM      1  C   UNL     1      -6.717   3.265 129.635  0.00  0.00    +0.000 C 
ENDROOT
BRANCH   1   2
ATOM      2  N   UNL     1      -7.794   3.026 130.590  0.00  0.00    +0.000 NA
ATOM      3  H   UNL     1      -7.880   2.026 130.765  0.00  0.00    +0.000 HD
BRANCH   2   4
ATOM      4  C   UNL     1      -9.033   3.534 130.018  0.00  0.00    +0.000 C 
BRANCH   4   5
ATOM      5  C   UNL     1      -8.825   4.813 129.207  0.00  0.00    +0.000 C 
BRANCH   5   9
ATOM      6  C   UNL     1     -11.847   7.784 130.061  0.00  0.00    +0.000 A 
ATOM      7  C   UNL     1     -11.700   6.662 130.877  0.00  0.00    +0.000 A 
ATOM      8  C   UNL     1     -10.718   5.713 130.591  0.00  0.00    +0.000 A 
ATOM      9  C   UNL     1      -9.875   5.868 129.482  0.00  0.00    +0.000 A 
ATOM     10  C   UNL     1     -10.043   7.003 128.672  0.00  0.00    +0.000 A 
ATOM     11  C   UNL     1     -11.018   7.953 128.962  0.00  0.00    +0.000 A 
BRANCH   6  12
ATOM     12  O   UNL     1     -12.769   8.771 130.251  0.00  0.00    +0.000 OA
ATOM     13  H   UNL     1     -13.651   8.401 130.358  0.00  0.00    +0.000 HD
ENDBRANCH   6  12
BRANCH   7  14
ATOM     14  O   UNL     1     -12.465   6.403 131.976  0.00  0.00    +0.000 OA
ATOM     15  H   UNL     1     -13.064   7.137 132.158  0.00  0.00    +0.000 HD
ENDBRANCH   7  14
ENDBRANCH   5   9
ENDBRANCH   4   5
ENDBRANCH   2   4
ENDBRANCH   1   2
BRANCH   1  16
ATOM     16  C   UNL     1      -5.389   3.061 130.334  0.00  0.00    +0.000 C 
BRANCH  16  17
ATOM     17  C   UNL     1      -4.301   3.813 129.588  0.00  0.00    +0.000 C 
BRANCH  17  18
ATOM     18  C   UNL     1      -4.895   4.524 128.388  0.00  0.00    +0.000 C 
BRANCH  18  19
ATOM     19  C   UNL     1      -3.944   5.605 127.907  0.00  0.00    +0.000 C 
BRANCH  19  20
ATOM     20  C   UNL     1      -2.572   5.372 128.503  0.00  0.00    +0.000 C 
BRANCH  20  21
ATOM     21  N   UNL     1      -2.102   6.622 129.088  0.00  0.00    +0.000 NA
ATOM     22  H   UNL     1      -2.761   7.371 128.872  0.00  0.00    +0.000 HD
BRANCH  21  23
ATOM     23  C   UNL     1      -2.019   6.443 130.531  0.00  0.00    +0.000 C 
BRANCH  23  24
ATOM     24  C   UNL     1      -2.869   7.456 131.292  0.00  0.00    +0.000 C 
BRANCH  24  25
ATOM     25  C   UNL     1      -4.282   6.973 131.535  0.00  0.00    +0.000 A 
ATOM     26  C   UNL     1      -5.362   7.346 130.714  0.00  0.00    +0.000 A 
ATOM     27  C   UNL     1      -6.666   6.986 131.044  0.00  0.00    +0.000 A 
ATOM     28  C   UNL     1      -6.901   6.189 132.153  0.00  0.00    +0.000 A 
ATOM     29  C   UNL     1      -5.837   5.762 132.948  0.00  0.00    +0.000 A 
ATOM     30  C   UNL     1      -4.533   6.158 132.642  0.00  0.00    +0.000 A 
ENDBRANCH  24  25
ENDBRANCH  23  24
ENDBRANCH  21  23
ENDBRANCH  20  21
ENDBRANCH  19  20
ENDBRANCH  18  19
ENDBRANCH  17  18
ENDBRANCH  16  17
ENDBRANCH   1  16
TORSDOF 15
ENDMDL
MODEL 7
REMARK VINA RESULT:      -6.5      3.141      5.074
REMARK  Name = Dopexamine
REMARK  15 active torsions:
REMARK  status: ('A' for Active; 'I' for Inactive)
REMARK    1  A    between atoms: O_1  and  C_2
REMARK    2  A    between atoms: C_3  and  O_4
REMARK    3  A    between atoms: C_6  and  C_7
REMARK    4  A    between atoms: C_7  and  C_8
REMARK    5  A    between atoms: C_8  and  N_9
REMARK    6  A    between atoms: N_9  and  C_10
REMARK    7  A    between atoms: C_10  and  C_11
REMARK    8  A    between atoms: C_11  and  C_12
REMARK    9  A    between atoms: C_12  and  C_13
REMARK   10  A    between atoms: C_13  and  C_14
REMARK   11  A    between atoms: C_14  and  C_15
REMARK   12  A    between atoms: C_15  and  N_16
REMARK   13  A    between atoms: N_16  and  C_17
REMARK   14  A    between atoms: C_17  and  C_18
REMARK   15  A    between atoms: C_18  and  C_19
REMARK                            x       y       z     vdW  Elec       q    Type
REMARK                         _______ _______ _______ _____ _____    ______ ____
ROOT
ATOM      1  C   UNL     1      -8.783  -1.470 122.879  0.00  0.00    +0.000 C 
ENDROOT
BRANCH   1   2
ATOM      2  N   UNL     1      -9.843  -0.491 123.099  0.00  0.00    +0.000 NA
ATOM      3  H   UNL     1     -10.049  -0.009 122.225  0.00  0.00    +0.000 HD
BRANCH   2   4
ATOM      4  C   UNL     1      -9.379   0.468 124.093  0.00  0.00    +0.000 C 
BRANCH   4   5
ATOM      5  C   UNL     1      -7.865   0.673 124.049  0.00  0.00    +0.000 C 
BRANCH   5   9
ATOM      6  C   UNL     1      -6.760   4.778 124.832  0.00  0.00    +0.000 A 
ATOM      7  C   UNL     1      -8.010   4.292 125.214  0.00  0.00    +0.000 A 
ATOM      8  C   UNL     1      -8.352   2.963 124.958  0.00  0.00    +0.000 A 
ATOM      9  C   UNL     1      -7.452   2.106 124.310  0.00  0.00    +0.000 A 
ATOM     10  C   UNL     1      -6.200   2.618 123.931  0.00  0.00    +0.000 A 
ATOM     11  C   UNL     1      -5.857   3.941 124.193  0.00  0.00    +0.000 A 
BRANCH   6  12
ATOM     12  O   UNL     1      -6.324   6.055 125.036  0.00  0.00    +0.000 OA
ATOM     13  H   UNL     1      -5.701   6.319 124.352  0.00  0.00    +0.000 HD
ENDBRANCH   6  12
BRANCH   7  14
ATOM     14  O   UNL     1      -8.966   5.034 125.842  0.00  0.00    +0.000 OA
ATOM     15  H   UNL     1      -9.492   5.529 125.203  0.00  0.00    +0.000 HD
ENDBRANCH   7  14
ENDBRANCH   5   9
ENDBRANCH   4   5
ENDBRANCH   2   4
ENDBRANCH   1   2
BRANCH   1  16
ATOM     16  C   UNL     1      -9.356  -2.860 123.059  0.00  0.00    +0.000 C 
BRANCH  16  17
ATOM     17  C   UNL     1      -8.789  -3.484 124.322  0.00  0.00    +0.000 C 
BRANCH  17  18
ATOM     18  C   UNL     1      -7.319  -3.136 124.455  0.00  0.00    +0.000 C 
BRANCH  18  19
ATOM     19  C   UNL     1      -7.033  -2.637 125.860  0.00  0.00    +0.000 C 
BRANCH  19  20
ATOM     20  C   UNL     1      -8.339  -2.336 126.564  0.00  0.00    +0.000 C 
BRANCH  20  21
ATOM     21  N   UNL     1      -8.312  -2.964 127.880  0.00  0.00    +0.000 NA
ATOM     22  H   UNL     1      -7.936  -3.909 127.801  0.00  0.00    +0.000 HD
BRANCH  21  23
ATOM     23  C   UNL     1      -7.453  -2.166 128.743  0.00  0.00    +0.000 C 
BRANCH  23  24
ATOM     24  C   UNL     1      -7.834  -2.287 130.216  0.00  0.00    +0.000 C 
BRANCH  24  25
ATOM     25  C   UNL     1      -6.927  -3.225 130.982  0.00  0.00    +0.000 A 
ATOM     26  C   UNL     1      -6.142  -4.205 130.348  0.00  0.00    +0.000 A 
ATOM     27  C   UNL     1      -5.419  -5.132 131.095  0.00  0.00    +0.000 A 
ATOM     28  C   UNL     1      -5.411  -5.047 132.478  0.00  0.00    +0.000 A 
ATOM     29  C   UNL     1      -6.139  -4.046 133.122  0.00  0.00    +0.000 A 
ATOM     30  C   UNL     1      -6.898  -3.143 132.377  0.00  0.00    +0.000 A 
ENDBRANCH  24  25
ENDBRANCH  23  24
ENDBRANCH  21  23
ENDBRANCH  20  21
ENDBRANCH  19  20
ENDBRANCH  18  19
ENDBRANCH  17  18
ENDBRANCH  16  17
ENDBRANCH   1  16
TORSDOF 15
ENDMDL
MODEL 8
REMARK VINA RESULT:      -6.4      7.693     10.533
REMARK  Name = Dopexamine
REMARK  15 active torsions:
REMARK  status: ('A' for Active; 'I' for Inactive)
REMARK    1  A    between atoms: O_1  and  C_2
REMARK    2  A    between atoms: C_3  and  O_4
REMARK    3  A    between atoms: C_6  and  C_7
REMARK    4  A    between atoms: C_7  and  C_8
REMARK    5  A    between atoms: C_8  and  N_9
REMARK    6  A    between atoms: N_9  and  C_10
REMARK    7  A    between atoms: C_10  and  C_11
REMARK    8  A    between atoms: C_11  and  C_12
REMARK    9  A    between atoms: C_12  and  C_13
REMARK   10  A    between atoms: C_13  and  C_14
REMARK   11  A    between atoms: C_14  and  C_15
REMARK   12  A    between atoms: C_15  and  N_16
REMARK   13  A    between atoms: N_16  and  C_17
REMARK   14  A    between atoms: C_17  and  C_18
REMARK   15  A    between atoms: C_18  and  C_19
REMARK                            x       y       z     vdW  Elec       q    Type
REMARK                         _______ _______ _______ _____ _____    ______ ____
ROOT
ATOM      1  C   UNL     1      -6.327   4.745 130.603  0.00  0.00    +0.000 C 
ENDROOT
BRANCH   1   2
ATOM      2  N   UNL     1      -6.622   4.790 132.032  0.00  0.00    +0.000 NA
ATOM      3  H   UNL     1      -7.130   3.948 132.302  0.00  0.00    +0.000 HD
BRANCH   2   4
ATOM      4  C   UNL     1      -7.442   5.965 132.293  0.00  0.00    +0.000 C 
BRANCH   4   5
ATOM      5  C   UNL     1      -7.682   6.803 131.038  0.00  0.00    +0.000 C 
BRANCH   5   9
ATOM      6  C   UNL     1     -11.852   7.358 130.044  0.00  0.00    +0.000 A 
ATOM      7  C   UNL     1     -10.851   7.948 129.273  0.00  0.00    +0.000 A 
ATOM      8  C   UNL     1      -9.509   7.757 129.604  0.00  0.00    +0.000 A 
ATOM      9  C   UNL     1      -9.150   6.981 130.713  0.00  0.00    +0.000 A 
ATOM     10  C   UNL     1     -10.173   6.399 131.479  0.00  0.00    +0.000 A 
ATOM     11  C   UNL     1     -11.512   6.584 131.144  0.00  0.00    +0.000 A 
BRANCH   6  12
ATOM     12  O   UNL     1     -13.191   7.476 129.809  0.00  0.00    +0.000 OA
ATOM     13  H   UNL     1     -13.451   6.964 129.037  0.00  0.00    +0.000 HD
ENDBRANCH   6  12
BRANCH   7  14
ATOM     14  O   UNL     1     -11.082   8.727 128.177  0.00  0.00    +0.000 OA
ATOM     15  H   UNL     1     -12.025   8.769 127.978  0.00  0.00    +0.000 HD
ENDBRANCH   7  14
ENDBRANCH   5   9
ENDBRANCH   4   5
ENDBRANCH   2   4
ENDBRANCH   1   2
BRANCH   1  16
ATOM     16  C   UNL     1      -5.675   3.418 130.280  0.00  0.00    +0.000 C 
BRANCH  16  17
ATOM     17  C   UNL     1      -4.165   3.588 130.244  0.00  0.00    +0.000 C 
BRANCH  17  18
ATOM     18  C   UNL     1      -3.625   3.109 128.910  0.00  0.00    +0.000 C 
BRANCH  18  19
ATOM     19  C   UNL     1      -2.867   4.234 128.229  0.00  0.00    +0.000 C 
BRANCH  19  20
ATOM     20  C   UNL     1      -3.735   4.846 127.150  0.00  0.00    +0.000 C 
BRANCH  20  21
ATOM     21  N   UNL     1      -4.343   6.062 127.678  0.00  0.00    +0.000 NA
ATOM     22  H   UNL     1      -4.986   5.824 128.434  0.00  0.00    +0.000 HD
BRANCH  21  23
ATOM     23  C   UNL     1      -3.278   6.913 128.190  0.00  0.00    +0.000 C 
BRANCH  23  24
ATOM     24  C   UNL     1      -3.701   7.688 129.435  0.00  0.00    +0.000 C 
BRANCH  24  25
ATOM     25  C   UNL     1      -3.133   7.104 130.710  0.00  0.00    +0.000 A 
ATOM     26  C   UNL     1      -1.882   6.464 130.759  0.00  0.00    +0.000 A 
ATOM     27  C   UNL     1      -1.450   5.827 131.919  0.00  0.00    +0.000 A 
ATOM     28  C   UNL     1      -2.228   5.884 133.066  0.00  0.00    +0.000 A 
ATOM     29  C   UNL     1      -3.446   6.563 133.052  0.00  0.00    +0.000 A 
ATOM     30  C   UNL     1      -3.899   7.165 131.877  0.00  0.00    +0.000 A 
ENDBRANCH  24  25
ENDBRANCH  23  24
ENDBRANCH  21  23
ENDBRANCH  20  21
ENDBRANCH  19  20
ENDBRANCH  18  19
ENDBRANCH  17  18
ENDBRANCH  16  17
ENDBRANCH   1  16
TORSDOF 15
ENDMDL
MODEL 9
REMARK VINA RESULT:      -6.4      3.049      7.685
REMARK  Name = Dopexamine
REMARK  15 active torsions:
REMARK  status: ('A' for Active; 'I' for Inactive)
REMARK    1  A    between atoms: O_1  and  C_2
REMARK    2  A    between atoms: C_3  and  O_4
REMARK    3  A    between atoms: C_6  and  C_7
REMARK    4  A    between atoms: C_7  and  C_8
REMARK    5  A    between atoms: C_8  and  N_9
REMARK    6  A    between atoms: N_9  and  C_10
REMARK    7  A    between atoms: C_10  and  C_11
REMARK    8  A    between atoms: C_11  and  C_12
REMARK    9  A    between atoms: C_12  and  C_13
REMARK   10  A    between atoms: C_13  and  C_14
REMARK   11  A    between atoms: C_14  and  C_15
REMARK   12  A    between atoms: C_15  and  N_16
REMARK   13  A    between atoms: N_16  and  C_17
REMARK   14  A    between atoms: C_17  and  C_18
REMARK   15  A    between atoms: C_18  and  C_19
REMARK                            x       y       z     vdW  Elec       q    Type
REMARK                         _______ _______ _______ _____ _____    ______ ____
ROOT
ATOM      1  C   UNL     1      -6.248   0.423 129.313  0.00  0.00    +0.000 C 
ENDROOT
BRANCH   1   2
ATOM      2  N   UNL     1      -6.436  -0.898 128.722  0.00  0.00    +0.000 NA
ATOM      3  H   UNL     1      -6.032  -1.606 129.334  0.00  0.00    +0.000 HD
BRANCH   2   4
ATOM      4  C   UNL     1      -5.763  -0.920 127.431  0.00  0.00    +0.000 C 
BRANCH   4   5
ATOM      5  C   UNL     1      -5.754  -2.311 126.797  0.00  0.00    +0.000 C 
BRANCH   5   9
ATOM      6  C   UNL     1      -9.062  -2.969 124.093  0.00  0.00    +0.000 A 
ATOM      7  C   UNL     1      -7.842  -2.482 123.622  0.00  0.00    +0.000 A 
ATOM      8  C   UNL     1      -6.782  -2.278 124.506  0.00  0.00    +0.000 A 
ATOM      9  C   UNL     1      -6.929  -2.550 125.873  0.00  0.00    +0.000 A 
ATOM     10  C   UNL     1      -8.167  -3.035 126.326  0.00  0.00    +0.000 A 
ATOM     11  C   UNL     1      -9.221  -3.245 125.443  0.00  0.00    +0.000 A 
BRANCH   6  12
ATOM     12  O   UNL     1     -10.159  -3.206 123.317  0.00  0.00    +0.000 OA
ATOM     13  H   UNL     1      -9.954  -3.831 122.614  0.00  0.00    +0.000 HD
ENDBRANCH   6  12
BRANCH   7  14
ATOM     14  O   UNL     1      -7.587  -2.177 122.317  0.00  0.00    +0.000 OA
ATOM     15  H   UNL     1      -8.229  -2.599 121.734  0.00  0.00    +0.000 HD
ENDBRANCH   7  14
ENDBRANCH   5   9
ENDBRANCH   4   5
ENDBRANCH   2   4
ENDBRANCH   1   2
BRANCH   1  16
ATOM     16  C   UNL     1      -7.452   1.281 128.987  0.00  0.00    +0.000 C 
BRANCH  16  17
ATOM     17  C   UNL     1      -7.048   2.377 128.015  0.00  0.00    +0.000 C 
BRANCH  17  18
ATOM     18  C   UNL     1      -7.957   2.349 126.801  0.00  0.00    +0.000 C 
BRANCH  18  19
ATOM     19  C   UNL     1      -8.881   1.148 126.877  0.00  0.00    +0.000 C 
BRANCH  19  20
ATOM     20  C   UNL     1      -9.046   0.551 125.495  0.00  0.00    +0.000 C 
BRANCH  20  21
ATOM     21  N   UNL     1      -7.992   1.076 124.634  0.00  0.00    +0.000 NA
ATOM     22  H   UNL     1      -7.177   0.464 124.679  0.00  0.00    +0.000 HD
BRANCH  21  23
ATOM     23  C   UNL     1      -8.501   1.116 123.271  0.00  0.00    +0.000 C 
BRANCH  23  24
ATOM     24  C   UNL     1      -9.041   2.492 122.893  0.00  0.00    +0.000 C 
BRANCH  24  25
ATOM     25  C   UNL     1      -8.194   3.189 121.851  0.00  0.00    +0.000 A 
ATOM     26  C   UNL     1      -8.736   3.726 120.668  0.00  0.00    +0.000 A 
ATOM     27  C   UNL     1      -7.909   4.245 119.676  0.00  0.00    +0.000 A 
ATOM     28  C   UNL     1      -6.540   4.301 119.880  0.00  0.00    +0.000 A 
ATOM     29  C   UNL     1      -5.989   3.825 121.070  0.00  0.00    +0.000 A 
ATOM     30  C   UNL     1      -6.813   3.266 122.049  0.00  0.00    +0.000 A 
ENDBRANCH  24  25
ENDBRANCH  23  24
ENDBRANCH  21  23
ENDBRANCH  20  21
ENDBRANCH  19  20
ENDBRANCH  18  19
ENDBRANCH  17  18
ENDBRANCH  16  17
ENDBRANCH   1  16
TORSDOF 15
ENDMDL
