MODEL 1
REMARK VINA RESULT:      -8.1      0.000      0.000
REMARK  Name = Doravirine
REMARK  7 active torsions:
REMARK  status: ('A' for Active; 'I' for Inactive)
REMARK    1  A    between atoms: C_1  and  N_2
REMARK    2  A    between atoms: C_7  and  C_8
REMARK    3  A    between atoms: C_8  and  N_9
REMARK    4  A    between atoms: C_12  and  C_26
REMARK    5  A    between atoms: C_13  and  O_14
REMARK    6  A    between atoms: O_14  and  C_15
REMARK    7  A    between atoms: C_17  and  C_22
REMARK                            x       y       z     vdW  Elec       q    Type
REMARK                         _______ _______ _______ _____ _____    ______ ____
ROOT
ATOM      1  N   UNL     1      -7.004   1.003 124.013  0.00  0.00    +0.000 N 
ATOM      2  C   UNL     1      -7.116   0.193 122.906  0.00  0.00    +0.000 A 
ATOM      3  C   UNL     1      -6.527  -1.010 122.894  0.00  0.00    +0.000 A 
ATOM      4  C   UNL     1      -6.022  -1.602 124.131  0.00  0.00    +0.000 A 
ATOM      5  C   UNL     1      -6.017  -0.886 125.276  0.00  0.00    +0.000 A 
ATOM      6  C   UNL     1      -6.486   0.557 125.214  0.00  0.00    +0.000 A 
ATOM      7  O   UNL     1      -6.258   1.375 126.104  0.00  0.00    +0.000 OA
ENDROOT
BRANCH   4   8
ATOM      8  C   UNL     1      -5.651  -3.060 124.087  0.00  0.00    +0.000 C 
ATOM      9  F   UNL     1      -6.762  -3.830 124.227  0.00  0.00    +0.000 F 
ATOM     10  F   UNL     1      -5.076  -3.418 122.909  0.00  0.00    +0.000 F 
ATOM     11  F   UNL     1      -4.795  -3.450 125.064  0.00  0.00    +0.000 F 
ENDBRANCH   4   8
BRANCH   1  12
ATOM     12  C   UNL     1      -7.115   2.459 123.918  0.00  0.00    +0.000 C 
BRANCH  12  19
ATOM     13  C   UNL     1      -5.348   3.462 121.348  0.00  0.00    +0.000 C 
ATOM     14  N   UNL     1      -6.774   3.425 121.528  0.00  0.00    +0.000 N 
ATOM     15  C   UNL     1      -7.594   3.901 120.543  0.00  0.00    +0.000 A 
ATOM     16  O   UNL     1      -7.266   4.373 119.468  0.00  0.00    +0.000 OA
ATOM     17  N   UNL     1      -8.876   3.714 121.013  0.00  0.00    +0.000 N 
ATOM     18  N   UNL     1      -8.854   3.166 122.273  0.00  0.00    +0.000 NA
ATOM     19  C   UNL     1      -7.578   3.027 122.544  0.00  0.00    +0.000 A 
ATOM     20  H   UNL     1      -9.718   3.946 120.504  0.00  0.00    +0.000 HD
ENDBRANCH  12  19
ENDBRANCH   1  12
BRANCH   5  21
ATOM     21  O   UNL     1      -5.478  -1.441 126.437  0.00  0.00    +0.000 OA
BRANCH  21  22
ATOM     22  C   UNL     1      -6.285  -1.805 127.482  0.00  0.00    +0.000 A 
ATOM     23  C   UNL     1      -6.055  -1.186 128.709  0.00  0.00    +0.000 A 
ATOM     24  C   UNL     1      -6.868  -1.504 129.800  0.00  0.00    +0.000 A 
ATOM     25  C   UNL     1      -7.921  -2.415 129.645  0.00  0.00    +0.000 A 
ATOM     26  C   UNL     1      -8.138  -3.024 128.413  0.00  0.00    +0.000 A 
ATOM     27 CL   UNL     1      -9.472  -4.086 128.195  0.00  0.00    +0.000 Cl
ATOM     28  C   UNL     1      -7.287  -2.768 127.347  0.00  0.00    +0.000 A 
BRANCH  24  29
ATOM     29  C   UNL     1      -6.615  -0.917 131.076  0.00  0.00    +0.000 C 
ATOM     30  N   UNL     1      -6.385  -0.441 132.116  0.00  0.00    +0.000 NA
ENDBRANCH  24  29
ENDBRANCH  21  22
ENDBRANCH   5  21
TORSDOF 6
ENDMDL
MODEL 2
REMARK VINA RESULT:      -7.9      8.748     10.449
REMARK  Name = Doravirine
REMARK  7 active torsions:
REMARK  status: ('A' for Active; 'I' for Inactive)
REMARK    1  A    between atoms: C_1  and  N_2
REMARK    2  A    between atoms: C_7  and  C_8
REMARK    3  A    between atoms: C_8  and  N_9
REMARK    4  A    between atoms: C_12  and  C_26
REMARK    5  A    between atoms: C_13  and  O_14
REMARK    6  A    between atoms: O_14  and  C_15
REMARK    7  A    between atoms: C_17  and  C_22
REMARK                            x       y       z     vdW  Elec       q    Type
REMARK                         _______ _______ _______ _____ _____    ______ ____
ROOT
ATOM      1  N   UNL     1      -9.215   5.975 130.946  0.00  0.00    +0.000 N 
ATOM      2  C   UNL     1      -9.639   6.211 132.234  0.00  0.00    +0.000 A 
ATOM      3  C   UNL     1      -8.857   5.874 133.268  0.00  0.00    +0.000 A 
ATOM      4  C   UNL     1      -7.452   5.534 133.057  0.00  0.00    +0.000 A 
ATOM      5  C   UNL     1      -6.958   5.423 131.805  0.00  0.00    +0.000 A 
ATOM      6  C   UNL     1      -7.922   5.593 130.644  0.00  0.00    +0.000 A 
ATOM      7  O   UNL     1      -7.660   5.235 129.497  0.00  0.00    +0.000 OA
ENDROOT
BRANCH   4   8
ATOM      8  C   UNL     1      -6.578   5.460 134.281  0.00  0.00    +0.000 C 
ATOM      9  F   UNL     1      -7.300   5.766 135.391  0.00  0.00    +0.000 F 
ATOM     10  F   UNL     1      -6.064   4.219 134.481  0.00  0.00    +0.000 F 
ATOM     11  F   UNL     1      -5.523   6.312 134.269  0.00  0.00    +0.000 F 
ENDBRANCH   4   8
BRANCH   1  12
ATOM     12  C   UNL     1     -10.161   5.791 129.845  0.00  0.00    +0.000 C 
BRANCH  12  19
ATOM     13  C   UNL     1     -12.922   7.365 130.638  0.00  0.00    +0.000 C 
ATOM     14  N   UNL     1     -11.942   7.674 129.634  0.00  0.00    +0.000 N 
ATOM     15  C   UNL     1     -12.131   8.748 128.809  0.00  0.00    +0.000 A 
ATOM     16  O   UNL     1     -13.067   9.530 128.813  0.00  0.00    +0.000 OA
ATOM     17  N   UNL     1     -11.026   8.775 127.985  0.00  0.00    +0.000 N 
ATOM     18  N   UNL     1     -10.188   7.725 128.267  0.00  0.00    +0.000 NA
ATOM     19  C   UNL     1     -10.783   7.087 129.246  0.00  0.00    +0.000 A 
ATOM     20  H   UNL     1     -10.855   9.470 127.271  0.00  0.00    +0.000 HD
ENDBRANCH  12  19
ENDBRANCH   1  12
BRANCH   5  21
ATOM     21  O   UNL     1      -5.629   5.041 131.616  0.00  0.00    +0.000 OA
BRANCH  21  22
ATOM     22  C   UNL     1      -4.838   5.682 130.701  0.00  0.00    +0.000 A 
ATOM     23  C   UNL     1      -4.185   4.890 129.758  0.00  0.00    +0.000 A 
ATOM     24  C   UNL     1      -3.386   5.498 128.788  0.00  0.00    +0.000 A 
ATOM     25  C   UNL     1      -3.272   6.894 128.750  0.00  0.00    +0.000 A 
ATOM     26  C   UNL     1      -3.931   7.671 129.697  0.00  0.00    +0.000 A 
ATOM     27 CL   UNL     1      -3.857   9.387 129.614  0.00  0.00    +0.000 Cl
ATOM     28  C   UNL     1      -4.665   7.067 130.709  0.00  0.00    +0.000 A 
BRANCH  24  29
ATOM     29  C   UNL     1      -2.671   4.699 127.846  0.00  0.00    +0.000 C 
ATOM     30  N   UNL     1      -2.107   4.036 127.069  0.00  0.00    +0.000 NA
ENDBRANCH  24  29
ENDBRANCH  21  22
ENDBRANCH   5  21
TORSDOF 6
ENDMDL
MODEL 3
REMARK VINA RESULT:      -7.9      7.807      9.407
REMARK  Name = Doravirine
REMARK  7 active torsions:
REMARK  status: ('A' for Active; 'I' for Inactive)
REMARK    1  A    between atoms: C_1  and  N_2
REMARK    2  A    between atoms: C_7  and  C_8
REMARK    3  A    between atoms: C_8  and  N_9
REMARK    4  A    between atoms: C_12  and  C_26
REMARK    5  A    between atoms: C_13  and  O_14
REMARK    6  A    between atoms: O_14  and  C_15
REMARK    7  A    between atoms: C_17  and  C_22
REMARK                            x       y       z     vdW  Elec       q    Type
REMARK                         _______ _______ _______ _____ _____    ______ ____
ROOT
ATOM      1  N   UNL     1      -9.243   5.742 130.134  0.00  0.00    +0.000 N 
ATOM      2  C   UNL     1      -8.708   6.828 130.788  0.00  0.00    +0.000 A 
ATOM      3  C   UNL     1      -7.429   6.807 131.185  0.00  0.00    +0.000 A 
ATOM      4  C   UNL     1      -6.512   5.786 130.682  0.00  0.00    +0.000 A 
ATOM      5  C   UNL     1      -6.974   4.771 129.921  0.00  0.00    +0.000 A 
ATOM      6  C   UNL     1      -8.469   4.695 129.670  0.00  0.00    +0.000 A 
ATOM      7  O   UNL     1      -9.028   3.683 129.250  0.00  0.00    +0.000 OA
ENDROOT
BRANCH   4   8
ATOM      8  C   UNL     1      -5.044   6.005 130.935  0.00  0.00    +0.000 C 
ATOM      9  F   UNL     1      -4.868   7.023 131.818  0.00  0.00    +0.000 F 
ATOM     10  F   UNL     1      -4.438   4.915 131.473  0.00  0.00    +0.000 F 
ATOM     11  F   UNL     1      -4.328   6.335 129.832  0.00  0.00    +0.000 F 
ENDBRANCH   4   8
BRANCH   1  12
ATOM     12  C   UNL     1     -10.677   5.452 130.165  0.00  0.00    +0.000 C 
BRANCH  12  19
ATOM     13  C   UNL     1     -11.222   8.139 128.373  0.00  0.00    +0.000 C 
ATOM     14  N   UNL     1     -11.783   7.745 129.636  0.00  0.00    +0.000 N 
ATOM     15  C   UNL     1     -12.655   8.578 130.281  0.00  0.00    +0.000 A 
ATOM     16  O   UNL     1     -13.051   9.669 129.908  0.00  0.00    +0.000 OA
ATOM     17  N   UNL     1     -13.011   7.913 131.434  0.00  0.00    +0.000 N 
ATOM     18  N   UNL     1     -12.352   6.711 131.523  0.00  0.00    +0.000 NA
ATOM     19  C   UNL     1     -11.619   6.662 130.435  0.00  0.00    +0.000 A 
ATOM     20  H   UNL     1     -13.665   8.259 132.122  0.00  0.00    +0.000 HD
ENDBRANCH  12  19
ENDBRANCH   1  12
BRANCH   5  21
ATOM     21  O   UNL     1      -6.098   3.770 129.497  0.00  0.00    +0.000 OA
BRANCH  21  22
ATOM     22  C   UNL     1      -5.522   3.822 128.256  0.00  0.00    +0.000 A 
ATOM     23  C   UNL     1      -4.202   3.389 128.148  0.00  0.00    +0.000 A 
ATOM     24  C   UNL     1      -3.577   3.399 126.899  0.00  0.00    +0.000 A 
ATOM     25  C   UNL     1      -4.288   3.813 125.765  0.00  0.00    +0.000 A 
ATOM     26  C   UNL     1      -5.605   4.242 125.889  0.00  0.00    +0.000 A 
ATOM     27 CL   UNL     1      -6.508   4.682 124.493  0.00  0.00    +0.000 Cl
ATOM     28  C   UNL     1      -6.206   4.305 127.139  0.00  0.00    +0.000 A 
BRANCH  24  29
ATOM     29  C   UNL     1      -2.210   3.005 126.779  0.00  0.00    +0.000 C 
ATOM     30  N   UNL     1      -1.093   2.677 126.704  0.00  0.00    +0.000 NA
ENDBRANCH  24  29
ENDBRANCH  21  22
ENDBRANCH   5  21
TORSDOF 6
ENDMDL
MODEL 4
REMARK VINA RESULT:      -7.8      1.846      2.181
REMARK  Name = Doravirine
REMARK  7 active torsions:
REMARK  status: ('A' for Active; 'I' for Inactive)
REMARK    1  A    between atoms: C_1  and  N_2
REMARK    2  A    between atoms: C_7  and  C_8
REMARK    3  A    between atoms: C_8  and  N_9
REMARK    4  A    between atoms: C_12  and  C_26
REMARK    5  A    between atoms: C_13  and  O_14
REMARK    6  A    between atoms: O_14  and  C_15
REMARK    7  A    between atoms: C_17  and  C_22
REMARK                            x       y       z     vdW  Elec       q    Type
REMARK                         _______ _______ _______ _____ _____    ______ ____
ROOT
ATOM      1  N   UNL     1      -8.651   1.242 124.426  0.00  0.00    +0.000 N 
ATOM      2  C   UNL     1      -9.507   0.736 123.474  0.00  0.00    +0.000 A 
ATOM      3  C   UNL     1      -9.380  -0.535 123.067  0.00  0.00    +0.000 A 
ATOM      4  C   UNL     1      -8.552  -1.476 123.819  0.00  0.00    +0.000 A 
ATOM      5  C   UNL     1      -7.795  -1.044 124.851  0.00  0.00    +0.000 A 
ATOM      6  C   UNL     1      -7.786   0.444 125.151  0.00  0.00    +0.000 A 
ATOM      7  O   UNL     1      -6.935   0.981 125.858  0.00  0.00    +0.000 OA
ENDROOT
BRANCH   4   8
ATOM      8  C   UNL     1      -8.697  -2.935 123.477  0.00  0.00    +0.000 C 
ATOM      9  F   UNL     1      -9.746  -3.472 124.155  0.00  0.00    +0.000 F 
ATOM     10  F   UNL     1      -8.941  -3.141 122.157  0.00  0.00    +0.000 F 
ATOM     11  F   UNL     1      -7.617  -3.693 123.789  0.00  0.00    +0.000 F 
ENDBRANCH   4   8
BRANCH   1  12
ATOM     12  C   UNL     1      -8.356   2.673 124.514  0.00  0.00    +0.000 C 
BRANCH  12  19
ATOM     13  C   UNL     1      -5.364   3.983 124.768  0.00  0.00    +0.000 C 
ATOM     14  N   UNL     1      -6.187   3.784 123.607  0.00  0.00    +0.000 N 
ATOM     15  C   UNL     1      -5.751   4.216 122.385  0.00  0.00    +0.000 A 
ATOM     16  O   UNL     1      -4.698   4.772 122.128  0.00  0.00    +0.000 OA
ATOM     17  N   UNL     1      -6.748   3.869 121.498  0.00  0.00    +0.000 N 
ATOM     18  N   UNL     1      -7.792   3.267 122.156  0.00  0.00    +0.000 NA
ATOM     19  C   UNL     1      -7.419   3.253 123.414  0.00  0.00    +0.000 A 
ATOM     20  H   UNL     1      -6.718   4.033 120.501  0.00  0.00    +0.000 HD
ENDBRANCH  12  19
ENDBRANCH   1  12
BRANCH   5  21
ATOM     21  O   UNL     1      -6.965  -1.941 125.523  0.00  0.00    +0.000 OA
BRANCH  21  22
ATOM     22  C   UNL     1      -7.280  -2.384 126.780  0.00  0.00    +0.000 A 
ATOM     23  C   UNL     1      -6.458  -1.971 127.826  0.00  0.00    +0.000 A 
ATOM     24  C   UNL     1      -6.753  -2.376 129.130  0.00  0.00    +0.000 A 
ATOM     25  C   UNL     1      -7.884  -3.164 129.379  0.00  0.00    +0.000 A 
ATOM     26  C   UNL     1      -8.695  -3.567 128.324  0.00  0.00    +0.000 A 
ATOM     27 CL   UNL     1     -10.126  -4.472 128.628  0.00  0.00    +0.000 Cl
ATOM     28  C   UNL     1      -8.365  -3.231 127.018  0.00  0.00    +0.000 A 
BRANCH  24  29
ATOM     29  C   UNL     1      -5.892  -2.003 130.207  0.00  0.00    +0.000 C 
ATOM     30  N   UNL     1      -5.196  -1.717 131.098  0.00  0.00    +0.000 NA
ENDBRANCH  24  29
ENDBRANCH  21  22
ENDBRANCH   5  21
TORSDOF 6
ENDMDL
MODEL 5
REMARK VINA RESULT:      -7.7      7.277      8.783
REMARK  Name = Doravirine
REMARK  7 active torsions:
REMARK  status: ('A' for Active; 'I' for Inactive)
REMARK    1  A    between atoms: C_1  and  N_2
REMARK    2  A    between atoms: C_7  and  C_8
REMARK    3  A    between atoms: C_8  and  N_9
REMARK    4  A    between atoms: C_12  and  C_26
REMARK    5  A    between atoms: C_13  and  O_14
REMARK    6  A    between atoms: O_14  and  C_15
REMARK    7  A    between atoms: C_17  and  C_22
REMARK                            x       y       z     vdW  Elec       q    Type
REMARK                         _______ _______ _______ _____ _____    ______ ____
ROOT
ATOM      1  N   UNL     1      -6.790   3.265 128.592  0.00  0.00    +0.000 N 
ATOM      2  C   UNL     1      -5.711   4.046 128.939  0.00  0.00    +0.000 A 
ATOM      3  C   UNL     1      -5.894   5.154 129.670  0.00  0.00    +0.000 A 
ATOM      4  C   UNL     1      -7.164   5.391 130.353  0.00  0.00    +0.000 A 
ATOM      5  C   UNL     1      -8.214   4.568 130.144  0.00  0.00    +0.000 A 
ATOM      6  C   UNL     1      -8.047   3.445 129.136  0.00  0.00    +0.000 A 
ATOM      7  O   UNL     1      -8.997   2.828 128.657  0.00  0.00    +0.000 OA
ENDROOT
BRANCH   4   8
ATOM      8  C   UNL     1      -7.189   6.490 131.381  0.00  0.00    +0.000 C 
ATOM      9  F   UNL     1      -5.922   6.872 131.689  0.00  0.00    +0.000 F 
ATOM     10  F   UNL     1      -7.835   7.602 130.943  0.00  0.00    +0.000 F 
ATOM     11  F   UNL     1      -7.775   6.146 132.555  0.00  0.00    +0.000 F 
ENDBRANCH   4   8
BRANCH   1  12
ATOM     12  C   UNL     1      -6.774   2.413 127.402  0.00  0.00    +0.000 C 
BRANCH  12  19
ATOM     13  C   UNL     1      -4.294   3.669 125.670  0.00  0.00    +0.000 C 
ATOM     14  N   UNL     1      -5.700   3.643 125.378  0.00  0.00    +0.000 N 
ATOM     15  C   UNL     1      -6.170   4.249 124.246  0.00  0.00    +0.000 A 
ATOM     16  O   UNL     1      -5.522   4.836 123.397  0.00  0.00    +0.000 OA
ATOM     17  N   UNL     1      -7.532   4.037 124.256  0.00  0.00    +0.000 N 
ATOM     18  N   UNL     1      -7.906   3.346 125.382  0.00  0.00    +0.000 NA
ATOM     19  C   UNL     1      -6.782   3.147 126.029  0.00  0.00    +0.000 A 
ATOM     20  H   UNL     1      -8.170   4.347 123.535  0.00  0.00    +0.000 HD
ENDBRANCH  12  19
ENDBRANCH   1  12
BRANCH   5  21
ATOM     21  O   UNL     1      -9.439   4.840 130.756  0.00  0.00    +0.000 OA
BRANCH  21  22
ATOM     22  C   UNL     1     -10.244   5.848 130.298  0.00  0.00    +0.000 A 
ATOM     23  C   UNL     1     -10.152   6.171 128.946  0.00  0.00    +0.000 A 
ATOM     24  C   UNL     1     -10.971   7.176 128.425  0.00  0.00    +0.000 A 
ATOM     25  C   UNL     1     -11.895   7.825 129.253  0.00  0.00    +0.000 A 
ATOM     26  C   UNL     1     -11.975   7.490 130.601  0.00  0.00    +0.000 A 
ATOM     27 CL   UNL     1     -13.157   8.229 131.609  0.00  0.00    +0.000 Cl
ATOM     28  C   UNL     1     -11.112   6.546 131.140  0.00  0.00    +0.000 A 
BRANCH  24  29
ATOM     29  C   UNL     1     -10.854   7.554 127.053  0.00  0.00    +0.000 C 
ATOM     30  N   UNL     1     -10.778   7.877 125.934  0.00  0.00    +0.000 NA
ENDBRANCH  24  29
ENDBRANCH  21  22
ENDBRANCH   5  21
TORSDOF 6
ENDMDL
MODEL 6
REMARK VINA RESULT:      -7.7      6.488      8.100
REMARK  Name = Doravirine
REMARK  7 active torsions:
REMARK  status: ('A' for Active; 'I' for Inactive)
REMARK    1  A    between atoms: C_1  and  N_2
REMARK    2  A    between atoms: C_7  and  C_8
REMARK    3  A    between atoms: C_8  and  N_9
REMARK    4  A    between atoms: C_12  and  C_26
REMARK    5  A    between atoms: C_13  and  O_14
REMARK    6  A    between atoms: O_14  and  C_15
REMARK    7  A    between atoms: C_17  and  C_22
REMARK                            x       y       z     vdW  Elec       q    Type
REMARK                         _______ _______ _______ _____ _____    ______ ____
ROOT
ATOM      1  N   UNL     1      -7.149   2.863 127.903  0.00  0.00    +0.000 N 
ATOM      2  C   UNL     1      -7.819   1.705 128.226  0.00  0.00    +0.000 A 
ATOM      3  C   UNL     1      -8.568   1.653 129.336  0.00  0.00    +0.000 A 
ATOM      4  C   UNL     1      -8.925   2.878 130.049  0.00  0.00    +0.000 A 
ATOM      5  C   UNL     1      -8.391   4.062 129.679  0.00  0.00    +0.000 A 
ATOM      6  C   UNL     1      -7.370   4.061 128.556  0.00  0.00    +0.000 A 
ATOM      7  O   UNL     1      -6.619   5.008 128.332  0.00  0.00    +0.000 OA
ENDROOT
BRANCH   4   8
ATOM      8  C   UNL     1     -10.000   2.767 131.098  0.00  0.00    +0.000 C 
ATOM      9  F   UNL     1     -10.142   1.472 131.486  0.00  0.00    +0.000 F 
ATOM     10  F   UNL     1      -9.713   3.480 132.218  0.00  0.00    +0.000 F 
ATOM     11  F   UNL     1     -11.226   3.175 130.688  0.00  0.00    +0.000 F 
ENDBRANCH   4   8
BRANCH   1  12
ATOM     12  C   UNL     1      -5.936   2.849 127.084  0.00  0.00    +0.000 C 
BRANCH  12  19
ATOM     13  C   UNL     1      -6.888   0.946 124.592  0.00  0.00    +0.000 C 
ATOM     14  N   UNL     1      -6.516   2.335 124.601  0.00  0.00    +0.000 N 
ATOM     15  C   UNL     1      -6.487   3.037 123.429  0.00  0.00    +0.000 A 
ATOM     16  O   UNL     1      -6.755   2.626 122.312  0.00  0.00    +0.000 OA
ATOM     17  N   UNL     1      -6.112   4.316 123.778  0.00  0.00    +0.000 N 
ATOM     18  N   UNL     1      -5.880   4.400 125.129  0.00  0.00    +0.000 NA
ATOM     19  C   UNL     1      -6.119   3.190 125.575  0.00  0.00    +0.000 A 
ATOM     20  H   UNL     1      -6.018   5.088 123.131  0.00  0.00    +0.000 HD
ENDBRANCH  12  19
ENDBRANCH   1  12
BRANCH   5  21
ATOM     21  O   UNL     1      -8.695   5.215 130.405  0.00  0.00    +0.000 OA
BRANCH  21  22
ATOM     22  C   UNL     1      -9.723   6.034 130.023  0.00  0.00    +0.000 A 
ATOM     23  C   UNL     1      -9.789   6.388 128.677  0.00  0.00    +0.000 A 
ATOM     24  C   UNL     1     -10.834   7.202 128.234  0.00  0.00    +0.000 A 
ATOM     25  C   UNL     1     -11.819   7.629 129.134  0.00  0.00    +0.000 A 
ATOM     26  C   UNL     1     -11.738   7.268 130.474  0.00  0.00    +0.000 A 
ATOM     27 CL   UNL     1     -12.981   7.726 131.572  0.00  0.00    +0.000 Cl
ATOM     28  C   UNL     1     -10.662   6.521 130.935  0.00  0.00    +0.000 A 
BRANCH  24  29
ATOM     29  C   UNL     1     -10.890   7.614 126.868  0.00  0.00    +0.000 C 
ATOM     30  N   UNL     1     -10.957   7.957 125.755  0.00  0.00    +0.000 NA
ENDBRANCH  24  29
ENDBRANCH  21  22
ENDBRANCH   5  21
TORSDOF 6
ENDMDL
MODEL 7
REMARK VINA RESULT:      -7.7      2.625      3.194
REMARK  Name = Doravirine
REMARK  7 active torsions:
REMARK  status: ('A' for Active; 'I' for Inactive)
REMARK    1  A    between atoms: C_1  and  N_2
REMARK    2  A    between atoms: C_7  and  C_8
REMARK    3  A    between atoms: C_8  and  N_9
REMARK    4  A    between atoms: C_12  and  C_26
REMARK    5  A    between atoms: C_13  and  O_14
REMARK    6  A    between atoms: O_14  and  C_15
REMARK    7  A    between atoms: C_17  and  C_22
REMARK                            x       y       z     vdW  Elec       q    Type
REMARK                         _______ _______ _______ _____ _____    ______ ____
ROOT
ATOM      1  N   UNL     1      -8.182   0.825 123.552  0.00  0.00    +0.000 N 
ATOM      2  C   UNL     1      -9.349   0.244 123.113  0.00  0.00    +0.000 A 
ATOM      3  C   UNL     1      -9.518  -1.081 123.221  0.00  0.00    +0.000 A 
ATOM      4  C   UNL     1      -8.623  -1.879 124.057  0.00  0.00    +0.000 A 
ATOM      5  C   UNL     1      -7.533  -1.313 124.620  0.00  0.00    +0.000 A 
ATOM      6  C   UNL     1      -7.241   0.141 124.299  0.00  0.00    +0.000 A 
ATOM      7  O   UNL     1      -6.151   0.669 124.510  0.00  0.00    +0.000 OA
ENDROOT
BRANCH   4   8
ATOM      8  C   UNL     1      -9.051  -3.289 124.361  0.00  0.00    +0.000 C 
ATOM      9  F   UNL     1      -7.985  -4.129 124.289  0.00  0.00    +0.000 F 
ATOM     10  F   UNL     1      -9.566  -3.421 125.611  0.00  0.00    +0.000 F 
ATOM     11  F   UNL     1      -9.983  -3.788 123.511  0.00  0.00    +0.000 F 
ENDBRANCH   4   8
BRANCH   1  12
ATOM     12  C   UNL     1      -7.695   2.090 122.998  0.00  0.00    +0.000 C 
BRANCH  12  19
ATOM     13  C   UNL     1      -5.263   4.225 123.508  0.00  0.00    +0.000 C 
ATOM     14  N   UNL     1      -6.550   4.126 124.141  0.00  0.00    +0.000 N 
ATOM     15  C   UNL     1      -6.877   4.988 125.150  0.00  0.00    +0.000 A 
ATOM     16  O   UNL     1      -6.193   5.886 125.610  0.00  0.00    +0.000 OA
ATOM     17  N   UNL     1      -8.158   4.642 125.525  0.00  0.00    +0.000 N 
ATOM     18  N   UNL     1      -8.603   3.570 124.791  0.00  0.00    +0.000 NA
ATOM     19  C   UNL     1      -7.604   3.287 123.990  0.00  0.00    +0.000 A 
ATOM     20  H   UNL     1      -8.697   5.110 126.241  0.00  0.00    +0.000 HD
ENDBRANCH  12  19
ENDBRANCH   1  12
BRANCH   5  21
ATOM     21  O   UNL     1      -6.654  -2.099 125.367  0.00  0.00    +0.000 OA
BRANCH  21  22
ATOM     22  C   UNL     1      -6.465  -1.864 126.702  0.00  0.00    +0.000 A 
ATOM     23  C   UNL     1      -5.314  -2.392 127.285  0.00  0.00    +0.000 A 
ATOM     24  C   UNL     1      -5.064  -2.159 128.639  0.00  0.00    +0.000 A 
ATOM     25  C   UNL     1      -5.950  -1.375 129.390  0.00  0.00    +0.000 A 
ATOM     26  C   UNL     1      -7.093  -0.855 128.794  0.00  0.00    +0.000 A 
ATOM     27 CL   UNL     1      -8.148   0.168 129.687  0.00  0.00    +0.000 Cl
ATOM     28  C   UNL     1      -7.386  -1.146 127.468  0.00  0.00    +0.000 A 
BRANCH  24  29
ATOM     29  C   UNL     1      -3.915  -2.733 129.263  0.00  0.00    +0.000 C 
ATOM     30  N   UNL     1      -2.971  -3.213 129.753  0.00  0.00    +0.000 NA
ENDBRANCH  24  29
ENDBRANCH  21  22
ENDBRANCH   5  21
TORSDOF 6
ENDMDL
MODEL 8
REMARK VINA RESULT:      -7.6      7.857      9.229
REMARK  Name = Doravirine
REMARK  7 active torsions:
REMARK  status: ('A' for Active; 'I' for Inactive)
REMARK    1  A    between atoms: C_1  and  N_2
REMARK    2  A    between atoms: C_7  and  C_8
REMARK    3  A    between atoms: C_8  and  N_9
REMARK    4  A    between atoms: C_12  and  C_26
REMARK    5  A    between atoms: C_13  and  O_14
REMARK    6  A    between atoms: O_14  and  C_15
REMARK    7  A    between atoms: C_17  and  C_22
REMARK                            x       y       z     vdW  Elec       q    Type
REMARK                         _______ _______ _______ _____ _____    ______ ____
ROOT
ATOM      1  N   UNL     1     -10.669   5.802 129.968  0.00  0.00    +0.000 N 
ATOM      2  C   UNL     1      -9.770   6.732 130.435  0.00  0.00    +0.000 A 
ATOM      3  C   UNL     1      -9.021   6.458 131.512  0.00  0.00    +0.000 A 
ATOM      4  C   UNL     1      -8.926   5.091 132.021  0.00  0.00    +0.000 A 
ATOM      5  C   UNL     1      -9.697   4.114 131.498  0.00  0.00    +0.000 A 
ATOM      6  C   UNL     1     -10.701   4.498 130.426  0.00  0.00    +0.000 A 
ATOM      7  O   UNL     1     -11.635   3.772 130.092  0.00  0.00    +0.000 OA
ENDROOT
BRANCH   4   8
ATOM      8  C   UNL     1      -7.846   4.816 133.034  0.00  0.00    +0.000 C 
ATOM      9  F   UNL     1      -8.386   4.279 134.160  0.00  0.00    +0.000 F 
ATOM     10  F   UNL     1      -6.922   3.927 132.585  0.00  0.00    +0.000 F 
ATOM     11  F   UNL     1      -7.158   5.914 133.432  0.00  0.00    +0.000 F 
ENDBRANCH   4   8
BRANCH   1  12
ATOM     12  C   UNL     1     -11.856   6.192 129.206  0.00  0.00    +0.000 C 
BRANCH  12  19
ATOM     13  C   UNL     1     -12.986   8.012 131.684  0.00  0.00    +0.000 C 
ATOM     14  N   UNL     1     -12.705   8.381 130.324  0.00  0.00    +0.000 N 
ATOM     15  C   UNL     1     -12.958   9.656 129.901  0.00  0.00    +0.000 A 
ATOM     16  O   UNL     1     -13.408  10.579 130.558  0.00  0.00    +0.000 OA
ATOM     17  N   UNL     1     -12.574   9.685 128.577  0.00  0.00    +0.000 N 
ATOM     18  N   UNL     1     -12.126   8.450 128.177  0.00  0.00    +0.000 NA
ATOM     19  C   UNL     1     -12.237   7.701 129.248  0.00  0.00    +0.000 A 
ATOM     20  H   UNL     1     -12.616  10.500 127.981  0.00  0.00    +0.000 HD
ENDBRANCH  12  19
ENDBRANCH   1  12
BRANCH   5  21
ATOM     21  O   UNL     1      -9.639   2.826 132.033  0.00  0.00    +0.000 OA
BRANCH  21  22
ATOM     22  C   UNL     1      -8.991   1.819 131.368  0.00  0.00    +0.000 A 
ATOM     23  C   UNL     1      -8.711   0.659 132.087  0.00  0.00    +0.000 A 
ATOM     24  C   UNL     1      -8.074  -0.407 131.447  0.00  0.00    +0.000 A 
ATOM     25  C   UNL     1      -7.750  -0.314 130.087  0.00  0.00    +0.000 A 
ATOM     26  C   UNL     1      -8.037   0.851 129.383  0.00  0.00    +0.000 A 
ATOM     27 CL   UNL     1      -7.711   0.947 127.697  0.00  0.00    +0.000 Cl
ATOM     28  C   UNL     1      -8.602   1.941 130.033  0.00  0.00    +0.000 A 
BRANCH  24  29
ATOM     29  C   UNL     1      -7.736  -1.584 132.182  0.00  0.00    +0.000 C 
ATOM     30  N   UNL     1      -7.481  -2.545 132.791  0.00  0.00    +0.000 NA
ENDBRANCH  24  29
ENDBRANCH  21  22
ENDBRANCH   5  21
TORSDOF 6
ENDMDL
MODEL 9
REMARK VINA RESULT:      -7.6      9.143     10.545
REMARK  Name = Doravirine
REMARK  7 active torsions:
REMARK  status: ('A' for Active; 'I' for Inactive)
REMARK    1  A    between atoms: C_1  and  N_2
REMARK    2  A    between atoms: C_7  and  C_8
REMARK    3  A    between atoms: C_8  and  N_9
REMARK    4  A    between atoms: C_12  and  C_26
REMARK    5  A    between atoms: C_13  and  O_14
REMARK    6  A    between atoms: O_14  and  C_15
REMARK    7  A    between atoms: C_17  and  C_22
REMARK                            x       y       z     vdW  Elec       q    Type
REMARK                         _______ _______ _______ _____ _____    ______ ____
ROOT
ATOM      1  N   UNL     1      -9.186   5.896 130.811  0.00  0.00    +0.000 N 
ATOM      2  C   UNL     1      -9.606   6.221 132.081  0.00  0.00    +0.000 A 
ATOM      3  C   UNL     1      -8.899   5.815 133.144  0.00  0.00    +0.000 A 
ATOM      4  C   UNL     1      -7.544   5.293 132.979  0.00  0.00    +0.000 A 
ATOM      5  C   UNL     1      -7.039   5.085 131.744  0.00  0.00    +0.000 A 
ATOM      6  C   UNL     1      -7.946   5.344 130.554  0.00  0.00    +0.000 A 
ATOM      7  O   UNL     1      -7.705   4.923 129.424  0.00  0.00    +0.000 OA
ENDROOT
BRANCH   4   8
ATOM      8  C   UNL     1      -6.716   5.142 134.228  0.00  0.00    +0.000 C 
ATOM      9  F   UNL     1      -5.811   6.152 134.315  0.00  0.00    +0.000 F 
ATOM     10  F   UNL     1      -7.464   5.191 135.360  0.00  0.00    +0.000 F 
ATOM     11  F   UNL     1      -6.003   3.990 134.290  0.00  0.00    +0.000 F 
ENDBRANCH   4   8
BRANCH   1  12
ATOM     12  C   UNL     1     -10.122   5.804 129.689  0.00  0.00    +0.000 C 
BRANCH  12  19
ATOM     13  C   UNL     1     -12.895   7.279 130.619  0.00  0.00    +0.000 C 
ATOM     14  N   UNL     1     -11.918   7.684 129.646  0.00  0.00    +0.000 N 
ATOM     15  C   UNL     1     -12.117   8.825 128.920  0.00  0.00    +0.000 A 
ATOM     16  O   UNL     1     -13.059   9.595 128.992  0.00  0.00    +0.000 OA
ATOM     17  N   UNL     1     -11.013   8.934 128.101  0.00  0.00    +0.000 N 
ATOM     18  N   UNL     1     -10.165   7.870 128.289  0.00  0.00    +0.000 NA
ATOM     19  C   UNL     1     -10.755   7.143 129.208  0.00  0.00    +0.000 A 
ATOM     20  H   UNL     1     -10.848   9.690 127.452  0.00  0.00    +0.000 HD
ENDBRANCH  12  19
ENDBRANCH   1  12
BRANCH   5  21
ATOM     21  O   UNL     1      -5.767   4.531 131.601  0.00  0.00    +0.000 OA
BRANCH  21  22
ATOM     22  C   UNL     1      -4.664   5.331 131.466  0.00  0.00    +0.000 A 
ATOM     23  C   UNL     1      -4.845   6.566 130.846  0.00  0.00    +0.000 A 
ATOM     24  C   UNL     1      -3.755   7.429 130.707  0.00  0.00    +0.000 A 
ATOM     25  C   UNL     1      -2.503   7.063 131.218  0.00  0.00    +0.000 A 
ATOM     26  C   UNL     1      -2.339   5.827 131.834  0.00  0.00    +0.000 A 
ATOM     27 CL   UNL     1      -0.825   5.400 132.529  0.00  0.00    +0.000 Cl
ATOM     28  C   UNL     1      -3.400   4.935 131.908  0.00  0.00    +0.000 A 
BRANCH  24  29
ATOM     29  C   UNL     1      -3.913   8.677 130.030  0.00  0.00    +0.000 C 
ATOM     30  N   UNL     1      -4.019   9.694 129.470  0.00  0.00    +0.000 NA
ENDBRANCH  24  29
ENDBRANCH  21  22
ENDBRANCH   5  21
TORSDOF 6
ENDMDL
