MODEL 1
REMARK VINA RESULT:      -7.2      0.000      0.000
REMARK  Name = Doripenem
REMARK  12 active torsions:
REMARK  status: ('A' for Active; 'I' for Inactive)
REMARK    1  A    between atoms: C_3  and  C_4
REMARK    2  A    between atoms: C_5  and  S_6
REMARK    3  A    between atoms: S_6  and  C_7
REMARK    4  A    between atoms: C_10  and  C_11
REMARK    5  A    between atoms: C_11  and  N_12
REMARK    6  A    between atoms: N_12  and  S_13
REMARK    7  A    between atoms: S_13  and  N_14
REMARK    8  A    between atoms: C_18  and  C_27
REMARK    9  A    between atoms: C_22  and  C_24
REMARK   10  A    between atoms: C_24  and  C_25
REMARK   11  A    between atoms: C_24  and  O_26
REMARK   12  A    between atoms: C_27  and  O_28
REMARK                            x       y       z     vdW  Elec       q    Type
REMARK                         _______ _______ _______ _____ _____    ______ ____
ROOT
ATOM      1  C   UNL     1      -8.869   5.760 130.114  0.00  0.00    +0.000 C 
ATOM      2  C   UNL     1      -7.403   5.604 130.536  0.00  0.00    +0.000 C 
ATOM      3  C   UNL     1      -6.908   6.938 131.105  0.00  0.00    +0.000 C 
ATOM      4  C   UNL     1      -7.495   4.449 131.515  0.00  0.00    +0.000 C 
ATOM      5  C   UNL     1      -8.774   4.334 131.959  0.00  0.00    +0.000 C 
ATOM      6  N   UNL     1      -9.655   5.100 131.195  0.00  0.00    +0.000 N 
ATOM      7  C   UNL     1     -10.254   6.267 131.591  0.00  0.00    +0.000 C 
ATOM      8  O   UNL     1     -10.916   6.525 132.562  0.00  0.00    +0.000 OA
ATOM      9  C   UNL     1      -9.703   7.043 130.369  0.00  0.00    +0.000 C 
ENDROOT
BRANCH   9  10
ATOM     10  C   UNL     1     -10.666   7.420 129.260  0.00  0.00    +0.000 C 
ATOM     11  C   UNL     1     -11.911   8.064 129.846  0.00  0.00    +0.000 C 
BRANCH  10  12
ATOM     12  O   UNL     1      -9.993   8.335 128.388  0.00  0.00    +0.000 OA
ATOM     13  H   UNL     1     -10.590   8.566 127.651  0.00  0.00    +0.000 HD
ENDBRANCH  10  12
ENDBRANCH   9  10
BRANCH   5  14
ATOM     14  C   UNL     1      -9.234   3.396 133.047  0.00  0.00    +0.000 C 
ATOM     15  O   UNL     1      -9.133   2.180 132.997  0.00  0.00    +0.000 OA
BRANCH  14  16
ATOM     16  O   UNL     1      -9.782   3.978 134.136  0.00  0.00    +0.000 OA
ATOM     17  H   UNL     1     -10.657   3.652 134.414  0.00  0.00    +0.000 HD
ENDBRANCH  14  16
ENDBRANCH   5  14
BRANCH   4  18
ATOM     18  S   UNL     1      -6.214   3.346 131.923  0.00  0.00    +0.000 S 
BRANCH  18  19
ATOM     19  C   UNL     1      -5.264   2.840 130.464  0.00  0.00    +0.000 C 
ATOM     20  C   UNL     1      -4.110   3.764 130.176  0.00  0.00    +0.000 C 
ATOM     21  N   UNL     1      -3.823   3.663 128.748  0.00  0.00    +0.000 NA
ATOM     22  C   UNL     1      -5.064   3.222 128.068  0.00  0.00    +0.000 C 
ATOM     23  C   UNL     1      -6.037   2.749 129.159  0.00  0.00    +0.000 C 
ATOM     24  H   UNL     1      -3.099   2.955 128.617  0.00  0.00    +0.000 HD
BRANCH  22  25
ATOM     25  C   UNL     1      -5.618   4.360 127.178  0.00  0.00    +0.000 C 
BRANCH  25  26
ATOM     26  N   UNL     1      -7.090   4.436 127.205  0.00  0.00    +0.000 NA
ATOM     27  H   UNL     1      -7.535   4.935 127.970  0.00  0.00    +0.000 HD
BRANCH  26  28
ATOM     28  S   UNL     1      -7.862   4.744 125.759  0.00  0.00    +0.000 S 
ATOM     29  O   UNL     1      -7.972   3.521 125.009  0.00  0.00    +0.000 OA
ATOM     30  O   UNL     1      -8.961   5.628 126.034  0.00  0.00    +0.000 OA
BRANCH  28  31
ATOM     31  N   UNL     1      -6.673   5.649 125.070  0.00  0.00    +0.000 NA
ATOM     32  H   UNL     1      -5.761   5.623 125.506  0.00  0.00    +0.000 HD
ATOM     33  H   UNL     1      -6.940   6.389 124.431  0.00  0.00    +0.000 HD
ENDBRANCH  28  31
ENDBRANCH  26  28
ENDBRANCH  25  26
ENDBRANCH  22  25
ENDBRANCH  18  19
ENDBRANCH   4  18
TORSDOF 10
ENDMDL
MODEL 2
REMARK VINA RESULT:      -7.1      3.418      7.225
REMARK  Name = Doripenem
REMARK  12 active torsions:
REMARK  status: ('A' for Active; 'I' for Inactive)
REMARK    1  A    between atoms: C_3  and  C_4
REMARK    2  A    between atoms: C_5  and  S_6
REMARK    3  A    between atoms: S_6  and  C_7
REMARK    4  A    between atoms: C_10  and  C_11
REMARK    5  A    between atoms: C_11  and  N_12
REMARK    6  A    between atoms: N_12  and  S_13
REMARK    7  A    between atoms: S_13  and  N_14
REMARK    8  A    between atoms: C_18  and  C_27
REMARK    9  A    between atoms: C_22  and  C_24
REMARK   10  A    between atoms: C_24  and  C_25
REMARK   11  A    between atoms: C_24  and  O_26
REMARK   12  A    between atoms: C_27  and  O_28
REMARK                            x       y       z     vdW  Elec       q    Type
REMARK                         _______ _______ _______ _____ _____    ______ ____
ROOT
ATOM      1  C   UNL     1      -7.286   1.125 125.783  0.00  0.00    +0.000 C 
ATOM      2  C   UNL     1      -6.273   1.603 126.830  0.00  0.00    +0.000 C 
ATOM      3  C   UNL     1      -4.858   1.328 126.310  0.00  0.00    +0.000 C 
ATOM      4  C   UNL     1      -6.663   3.061 126.978  0.00  0.00    +0.000 C 
ATOM      5  C   UNL     1      -7.366   3.455 125.884  0.00  0.00    +0.000 C 
ATOM      6  N   UNL     1      -7.757   2.366 125.105  0.00  0.00    +0.000 N 
ATOM      7  C   UNL     1      -7.221   2.012 123.894  0.00  0.00    +0.000 C 
ATOM      8  O   UNL     1      -7.068   2.645 122.883  0.00  0.00    +0.000 OA
ATOM      9  C   UNL     1      -6.885   0.582 124.387  0.00  0.00    +0.000 C 
ENDROOT
BRANCH   9  10
ATOM     10  C   UNL     1      -7.724  -0.573 123.875  0.00  0.00    +0.000 C 
ATOM     11  C   UNL     1      -6.921  -1.405 122.889  0.00  0.00    +0.000 C 
BRANCH  10  12
ATOM     12  O   UNL     1      -8.111  -1.367 125.002  0.00  0.00    +0.000 OA
ATOM     13  H   UNL     1      -8.871  -1.924 124.750  0.00  0.00    +0.000 HD
ENDBRANCH  10  12
ENDBRANCH   9  10
BRANCH   5  14
ATOM     14  C   UNL     1      -7.805   4.869 125.596  0.00  0.00    +0.000 C 
ATOM     15  O   UNL     1      -8.917   5.310 125.847  0.00  0.00    +0.000 OA
BRANCH  14  16
ATOM     16  O   UNL     1      -6.878   5.672 125.031  0.00  0.00    +0.000 OA
ATOM     17  H   UNL     1      -7.066   6.627 125.032  0.00  0.00    +0.000 HD
ENDBRANCH  14  16
ENDBRANCH   5  14
BRANCH   4  18
ATOM     18  S   UNL     1      -6.384   4.060 128.374  0.00  0.00    +0.000 S 
BRANCH  18  19
ATOM     19  C   UNL     1      -7.626   3.786 129.665  0.00  0.00    +0.000 C 
ATOM     20  C   UNL     1      -8.769   2.924 129.195  0.00  0.00    +0.000 C 
ATOM     21  N   UNL     1      -9.929   3.262 130.014  0.00  0.00    +0.000 NA
ATOM     22  C   UNL     1      -9.740   4.643 130.518  0.00  0.00    +0.000 C 
ATOM     23  C   UNL     1      -8.278   5.031 130.244  0.00  0.00    +0.000 C 
ATOM     24  H   UNL     1      -9.960   2.617 130.805  0.00  0.00    +0.000 HD
BRANCH  22  25
ATOM     25  C   UNL     1     -10.777   5.593 129.874  0.00  0.00    +0.000 C 
BRANCH  25  26
ATOM     26  N   UNL     1     -10.378   6.037 128.525  0.00  0.00    +0.000 NA
ATOM     27  H   UNL     1     -10.220   5.332 127.810  0.00  0.00    +0.000 HD
BRANCH  26  28
ATOM     28  S   UNL     1     -11.173   7.362 127.895  0.00  0.00    +0.000 S 
ATOM     29  O   UNL     1     -12.502   7.423 128.442  0.00  0.00    +0.000 OA
ATOM     30  O   UNL     1     -10.246   8.460 127.889  0.00  0.00    +0.000 OA
BRANCH  28  31
ATOM     31  N   UNL     1     -11.293   6.822 126.345  0.00  0.00    +0.000 NA
ATOM     32  H   UNL     1     -11.548   7.500 125.638  0.00  0.00    +0.000 HD
ATOM     33  H   UNL     1     -11.382   5.825 126.188  0.00  0.00    +0.000 HD
ENDBRANCH  28  31
ENDBRANCH  26  28
ENDBRANCH  25  26
ENDBRANCH  22  25
ENDBRANCH  18  19
ENDBRANCH   4  18
TORSDOF 10
ENDMDL
MODEL 3
REMARK VINA RESULT:      -7.0      4.795      8.239
REMARK  Name = Doripenem
REMARK  12 active torsions:
REMARK  status: ('A' for Active; 'I' for Inactive)
REMARK    1  A    between atoms: C_3  and  C_4
REMARK    2  A    between atoms: C_5  and  S_6
REMARK    3  A    between atoms: S_6  and  C_7
REMARK    4  A    between atoms: C_10  and  C_11
REMARK    5  A    between atoms: C_11  and  N_12
REMARK    6  A    between atoms: N_12  and  S_13
REMARK    7  A    between atoms: S_13  and  N_14
REMARK    8  A    between atoms: C_18  and  C_27
REMARK    9  A    between atoms: C_22  and  C_24
REMARK   10  A    between atoms: C_24  and  C_25
REMARK   11  A    between atoms: C_24  and  O_26
REMARK   12  A    between atoms: C_27  and  O_28
REMARK                            x       y       z     vdW  Elec       q    Type
REMARK                         _______ _______ _______ _____ _____    ______ ____
ROOT
ATOM      1  C   UNL     1      -7.611  -0.622 126.255  0.00  0.00    +0.000 C 
ATOM      2  C   UNL     1      -6.626  -0.126 125.190  0.00  0.00    +0.000 C 
ATOM      3  C   UNL     1      -5.844  -1.325 124.644  0.00  0.00    +0.000 C 
ATOM      4  C   UNL     1      -7.560   0.567 124.218  0.00  0.00    +0.000 C 
ATOM      5  C   UNL     1      -8.826   0.105 124.400  0.00  0.00    +0.000 C 
ATOM      6  N   UNL     1      -8.939  -0.632 125.578  0.00  0.00    +0.000 N 
ATOM      7  C   UNL     1      -9.069  -1.995 125.663  0.00  0.00    +0.000 C 
ATOM      8  O   UNL     1      -9.854  -2.747 125.149  0.00  0.00    +0.000 OA
ATOM      9  C   UNL     1      -7.832  -2.121 126.587  0.00  0.00    +0.000 C 
ENDROOT
BRANCH   9  10
ATOM     10  C   UNL     1      -8.057  -2.433 128.054  0.00  0.00    +0.000 C 
ATOM     11  C   UNL     1      -8.712  -3.796 128.204  0.00  0.00    +0.000 C 
BRANCH  10  12
ATOM     12  O   UNL     1      -6.782  -2.416 128.706  0.00  0.00    +0.000 OA
ATOM     13  H   UNL     1      -6.898  -2.085 129.617  0.00  0.00    +0.000 HD
ENDBRANCH  10  12
ENDBRANCH   9  10
BRANCH   5  14
ATOM     14  C   UNL     1     -10.009   0.448 123.529  0.00  0.00    +0.000 C 
ATOM     15  O   UNL     1     -10.239  -0.067 122.445  0.00  0.00    +0.000 OA
BRANCH  14  16
ATOM     16  O   UNL     1     -10.850   1.385 124.018  0.00  0.00    +0.000 OA
ATOM     17  H   UNL     1     -11.734   1.433 123.614  0.00  0.00    +0.000 HD
ENDBRANCH  14  16
ENDBRANCH   5  14
BRANCH   4  18
ATOM     18  S   UNL     1      -7.135   1.849 123.123  0.00  0.00    +0.000 S 
BRANCH  18  19
ATOM     19  C   UNL     1      -7.532   3.482 123.802  0.00  0.00    +0.000 C 
ATOM     20  C   UNL     1      -6.303   4.285 124.138  0.00  0.00    +0.000 C 
ATOM     21  N   UNL     1      -6.679   5.232 125.184  0.00  0.00    +0.000 NA
ATOM     22  C   UNL     1      -7.845   4.670 125.905  0.00  0.00    +0.000 C 
ATOM     23  C   UNL     1      -8.374   3.495 125.068  0.00  0.00    +0.000 C 
ATOM     24  H   UNL     1      -6.950   6.109 124.737  0.00  0.00    +0.000 HD
BRANCH  22  25
ATOM     25  C   UNL     1      -7.445   4.286 127.349  0.00  0.00    +0.000 C 
BRANCH  25  26
ATOM     26  N   UNL     1      -8.442   4.717 128.347  0.00  0.00    +0.000 NA
ATOM     27  H   UNL     1      -9.244   5.253 128.029  0.00  0.00    +0.000 HD
BRANCH  26  28
ATOM     28  S   UNL     1      -8.887   3.603 129.507  0.00  0.00    +0.000 S 
ATOM     29  O   UNL     1      -7.807   3.434 130.442  0.00  0.00    +0.000 OA
ATOM     30  O   UNL     1     -10.246   3.884 129.878  0.00  0.00    +0.000 OA
BRANCH  28  31
ATOM     31  N   UNL     1      -8.916   2.278 128.531  0.00  0.00    +0.000 NA
ATOM     32  H   UNL     1      -8.057   2.034 128.056  0.00  0.00    +0.000 HD
ATOM     33  H   UNL     1      -9.816   1.925 128.224  0.00  0.00    +0.000 HD
ENDBRANCH  28  31
ENDBRANCH  26  28
ENDBRANCH  25  26
ENDBRANCH  22  25
ENDBRANCH  18  19
ENDBRANCH   4  18
TORSDOF 10
ENDMDL
MODEL 4
REMARK VINA RESULT:      -7.0      4.401      7.031
REMARK  Name = Doripenem
REMARK  12 active torsions:
REMARK  status: ('A' for Active; 'I' for Inactive)
REMARK    1  A    between atoms: C_3  and  C_4
REMARK    2  A    between atoms: C_5  and  S_6
REMARK    3  A    between atoms: S_6  and  C_7
REMARK    4  A    between atoms: C_10  and  C_11
REMARK    5  A    between atoms: C_11  and  N_12
REMARK    6  A    between atoms: N_12  and  S_13
REMARK    7  A    between atoms: S_13  and  N_14
REMARK    8  A    between atoms: C_18  and  C_27
REMARK    9  A    between atoms: C_22  and  C_24
REMARK   10  A    between atoms: C_24  and  C_25
REMARK   11  A    between atoms: C_24  and  O_26
REMARK   12  A    between atoms: C_27  and  O_28
REMARK                            x       y       z     vdW  Elec       q    Type
REMARK                         _______ _______ _______ _____ _____    ______ ____
ROOT
ATOM      1  C   UNL     1      -8.129   1.252 125.924  0.00  0.00    +0.000 C 
ATOM      2  C   UNL     1      -6.945   1.545 126.854  0.00  0.00    +0.000 C 
ATOM      3  C   UNL     1      -5.662   1.018 126.202  0.00  0.00    +0.000 C 
ATOM      4  C   UNL     1      -7.051   3.050 127.008  0.00  0.00    +0.000 C 
ATOM      5  C   UNL     1      -7.781   3.559 125.980  0.00  0.00    +0.000 C 
ATOM      6  N   UNL     1      -8.437   2.555 125.269  0.00  0.00    +0.000 N 
ATOM      7  C   UNL     1      -8.099   2.105 124.019  0.00  0.00    +0.000 C 
ATOM      8  O   UNL     1      -7.939   2.696 122.983  0.00  0.00    +0.000 OA
ATOM      9  C   UNL     1      -7.975   0.640 124.507  0.00  0.00    +0.000 C 
ENDROOT
BRANCH   9  10
ATOM     10  C   UNL     1      -9.055  -0.347 124.108  0.00  0.00    +0.000 C 
ATOM     11  C   UNL     1      -8.563  -1.227 122.970  0.00  0.00    +0.000 C 
BRANCH  10  12
ATOM     12  O   UNL     1      -9.369  -1.142 125.256  0.00  0.00    +0.000 OA
ATOM     13  H   UNL     1      -8.813  -0.850 126.003  0.00  0.00    +0.000 HD
ENDBRANCH  10  12
ENDBRANCH   9  10
BRANCH   5  14
ATOM     14  C   UNL     1      -7.987   5.028 125.706  0.00  0.00    +0.000 C 
ATOM     15  O   UNL     1      -8.970   5.663 126.058  0.00  0.00    +0.000 OA
BRANCH  14  16
ATOM     16  O   UNL     1      -6.995   5.648 125.031  0.00  0.00    +0.000 OA
ATOM     17  H   UNL     1      -6.112   5.635 125.441  0.00  0.00    +0.000 HD
ENDBRANCH  14  16
ENDBRANCH   5  14
BRANCH   4  18
ATOM     18  S   UNL     1      -6.458   3.988 128.346  0.00  0.00    +0.000 S 
BRANCH  18  19
ATOM     19  C   UNL     1      -4.648   3.956 128.448  0.00  0.00    +0.000 C 
ATOM     20  C   UNL     1      -4.137   4.351 129.809  0.00  0.00    +0.000 C 
ATOM     21  N   UNL     1      -2.788   4.877 129.628  0.00  0.00    +0.000 NA
ATOM     22  C   UNL     1      -2.681   5.375 128.236  0.00  0.00    +0.000 C 
ATOM     23  C   UNL     1      -3.905   4.850 127.469  0.00  0.00    +0.000 C 
ATOM     24  H   UNL     1      -2.126   4.112 129.763  0.00  0.00    +0.000 HD
BRANCH  22  25
ATOM     25  C   UNL     1      -2.544   6.916 128.229  0.00  0.00    +0.000 C 
BRANCH  25  26
ATOM     26  N   UNL     1      -3.841   7.601 128.383  0.00  0.00    +0.000 NA
ATOM     27  H   UNL     1      -4.660   7.192 127.941  0.00  0.00    +0.000 HD
BRANCH  26  28
ATOM     28  S   UNL     1      -4.211   8.196 129.897  0.00  0.00    +0.000 S 
ATOM     29  O   UNL     1      -5.589   7.910 130.196  0.00  0.00    +0.000 OA
ATOM     30  O   UNL     1      -3.110   7.884 130.766  0.00  0.00    +0.000 OA
BRANCH  28  31
ATOM     31  N   UNL     1      -4.099   9.797 129.531  0.00  0.00    +0.000 NA
ATOM     32  H   UNL     1      -3.201  10.136 129.213  0.00  0.00    +0.000 HD
ATOM     33  H   UNL     1      -4.814  10.423 129.883  0.00  0.00    +0.000 HD
ENDBRANCH  28  31
ENDBRANCH  26  28
ENDBRANCH  25  26
ENDBRANCH  22  25
ENDBRANCH  18  19
ENDBRANCH   4  18
TORSDOF 10
ENDMDL
MODEL 5
REMARK VINA RESULT:      -7.0      3.369      6.675
REMARK  Name = Doripenem
REMARK  12 active torsions:
REMARK  status: ('A' for Active; 'I' for Inactive)
REMARK    1  A    between atoms: C_3  and  C_4
REMARK    2  A    between atoms: C_5  and  S_6
REMARK    3  A    between atoms: S_6  and  C_7
REMARK    4  A    between atoms: C_10  and  C_11
REMARK    5  A    between atoms: C_11  and  N_12
REMARK    6  A    between atoms: N_12  and  S_13
REMARK    7  A    between atoms: S_13  and  N_14
REMARK    8  A    between atoms: C_18  and  C_27
REMARK    9  A    between atoms: C_22  and  C_24
REMARK   10  A    between atoms: C_24  and  C_25
REMARK   11  A    between atoms: C_24  and  O_26
REMARK   12  A    between atoms: C_27  and  O_28
REMARK                            x       y       z     vdW  Elec       q    Type
REMARK                         _______ _______ _______ _____ _____    ______ ____
ROOT
ATOM      1  C   UNL     1      -3.696   4.910 131.304  0.00  0.00    +0.000 C 
ATOM      2  C   UNL     1      -5.178   5.302 131.309  0.00  0.00    +0.000 C 
ATOM      3  C   UNL     1      -5.297   6.785 131.676  0.00  0.00    +0.000 C 
ATOM      4  C   UNL     1      -5.592   4.922 129.901  0.00  0.00    +0.000 C 
ATOM      5  C   UNL     1      -4.489   4.845 129.110  0.00  0.00    +0.000 C 
ATOM      6  N   UNL     1      -3.316   4.855 129.863  0.00  0.00    +0.000 N 
ATOM      7  C   UNL     1      -2.436   5.902 129.966  0.00  0.00    +0.000 C 
ATOM      8  O   UNL     1      -1.866   6.540 129.120  0.00  0.00    +0.000 OA
ATOM      9  C   UNL     1      -2.541   5.925 131.512  0.00  0.00    +0.000 C 
ENDROOT
BRANCH   9  10
ATOM     10  C   UNL     1      -1.366   5.411 132.321  0.00  0.00    +0.000 C 
ATOM     11  C   UNL     1      -0.458   6.565 132.714  0.00  0.00    +0.000 C 
BRANCH  10  12
ATOM     12  O   UNL     1      -1.886   4.764 133.487  0.00  0.00    +0.000 OA
ATOM     13  H   UNL     1      -2.825   4.546 133.335  0.00  0.00    +0.000 HD
ENDBRANCH  10  12
ENDBRANCH   9  10
BRANCH   5  14
ATOM     14  C   UNL     1      -4.504   4.633 127.617  0.00  0.00    +0.000 C 
ATOM     15  O   UNL     1      -4.132   3.610 127.063  0.00  0.00    +0.000 OA
BRANCH  14  16
ATOM     16  O   UNL     1      -4.972   5.663 126.879  0.00  0.00    +0.000 OA
ATOM     17  H   UNL     1      -4.514   6.516 126.976  0.00  0.00    +0.000 HD
ENDBRANCH  14  16
ENDBRANCH   5  14
BRANCH   4  18
ATOM     18  S   UNL     1      -7.200   4.514 129.379  0.00  0.00    +0.000 S 
BRANCH  18  19
ATOM     19  C   UNL     1      -8.457   5.046 130.572  0.00  0.00    +0.000 C 
ATOM     20  C   UNL     1      -9.808   4.439 130.300  0.00  0.00    +0.000 C 
ATOM     21  N   UNL     1     -10.808   5.344 130.860  0.00  0.00    +0.000 NA
ATOM     22  C   UNL     1     -10.212   6.700 130.912  0.00  0.00    +0.000 C 
ATOM     23  C   UNL     1      -8.704   6.543 130.662  0.00  0.00    +0.000 C 
ATOM     24  H   UNL     1     -11.023   5.034 131.809  0.00  0.00    +0.000 HD
BRANCH  22  25
ATOM     25  C   UNL     1     -10.925   7.635 129.908  0.00  0.00    +0.000 C 
BRANCH  25  26
ATOM     26  N   UNL     1     -10.100   7.928 128.721  0.00  0.00    +0.000 NA
ATOM     27  H   UNL     1      -9.090   7.952 128.828  0.00  0.00    +0.000 HD
BRANCH  26  28
ATOM     28  S   UNL     1     -10.534   7.186 127.292  0.00  0.00    +0.000 S 
ATOM     29  O   UNL     1     -10.903   8.189 126.329  0.00  0.00    +0.000 OA
ATOM     30  O   UNL     1      -9.588   6.133 127.045  0.00  0.00    +0.000 OA
BRANCH  28  31
ATOM     31  N   UNL     1     -11.918   6.477 127.830  0.00  0.00    +0.000 NA
ATOM     32  H   UNL     1     -12.773   6.697 127.337  0.00  0.00    +0.000 HD
ATOM     33  H   UNL     1     -11.926   6.082 128.764  0.00  0.00    +0.000 HD
ENDBRANCH  28  31
ENDBRANCH  26  28
ENDBRANCH  25  26
ENDBRANCH  22  25
ENDBRANCH  18  19
ENDBRANCH   4  18
TORSDOF 10
ENDMDL
MODEL 6
REMARK VINA RESULT:      -6.9      5.912      8.570
REMARK  Name = Doripenem
REMARK  12 active torsions:
REMARK  status: ('A' for Active; 'I' for Inactive)
REMARK    1  A    between atoms: C_3  and  C_4
REMARK    2  A    between atoms: C_5  and  S_6
REMARK    3  A    between atoms: S_6  and  C_7
REMARK    4  A    between atoms: C_10  and  C_11
REMARK    5  A    between atoms: C_11  and  N_12
REMARK    6  A    between atoms: N_12  and  S_13
REMARK    7  A    between atoms: S_13  and  N_14
REMARK    8  A    between atoms: C_18  and  C_27
REMARK    9  A    between atoms: C_22  and  C_24
REMARK   10  A    between atoms: C_24  and  C_25
REMARK   11  A    between atoms: C_24  and  O_26
REMARK   12  A    between atoms: C_27  and  O_28
REMARK                            x       y       z     vdW  Elec       q    Type
REMARK                         _______ _______ _______ _____ _____    ______ ____
ROOT
ATOM      1  C   UNL     1      -7.478  -0.967 126.219  0.00  0.00    +0.000 C 
ATOM      2  C   UNL     1      -6.410  -0.543 125.203  0.00  0.00    +0.000 C 
ATOM      3  C   UNL     1      -5.714  -1.797 124.665  0.00  0.00    +0.000 C 
ATOM      4  C   UNL     1      -7.241   0.244 124.208  0.00  0.00    +0.000 C 
ATOM      5  C   UNL     1      -8.548  -0.108 124.331  0.00  0.00    +0.000 C 
ATOM      6  N   UNL     1      -8.773  -0.850 125.489  0.00  0.00    +0.000 N 
ATOM      7  C   UNL     1      -9.024  -2.198 125.543  0.00  0.00    +0.000 C 
ATOM      8  O   UNL     1      -9.850  -2.870 124.984  0.00  0.00    +0.000 OA
ATOM      9  C   UNL     1      -7.841  -2.446 126.513  0.00  0.00    +0.000 C 
ENDROOT
BRANCH   9  10
ATOM     10  C   UNL     1      -8.153  -2.760 127.964  0.00  0.00    +0.000 C 
ATOM     11  C   UNL     1      -8.906  -4.075 128.064  0.00  0.00    +0.000 C 
BRANCH  10  12
ATOM     12  O   UNL     1      -6.911  -2.838 128.672  0.00  0.00    +0.000 OA
ATOM     13  H   UNL     1      -6.611  -1.935 128.885  0.00  0.00    +0.000 HD
ENDBRANCH  10  12
ENDBRANCH   9  10
BRANCH   5  14
ATOM     14  C   UNL     1      -9.660   0.350 123.420  0.00  0.00    +0.000 C 
ATOM     15  O   UNL     1     -10.090   1.493 123.380  0.00  0.00    +0.000 OA
BRANCH  14  16
ATOM     16  O   UNL     1     -10.184  -0.592 122.607  0.00  0.00    +0.000 OA
ATOM     17  H   UNL     1     -10.903  -0.309 122.015  0.00  0.00    +0.000 HD
ENDBRANCH  14  16
ENDBRANCH   5  14
BRANCH   4  18
ATOM     18  S   UNL     1      -6.661   1.501 123.155  0.00  0.00    +0.000 S 
BRANCH  18  19
ATOM     19  C   UNL     1      -6.939   3.152 123.850  0.00  0.00    +0.000 C 
ATOM     20  C   UNL     1      -5.989   4.181 123.297  0.00  0.00    +0.000 C 
ATOM     21  N   UNL     1      -5.868   5.238 124.298  0.00  0.00    +0.000 NA
ATOM     22  C   UNL     1      -6.189   4.648 125.619  0.00  0.00    +0.000 C 
ATOM     23  C   UNL     1      -6.821   3.271 125.361  0.00  0.00    +0.000 C 
ATOM     24  H   UNL     1      -6.550   5.964 124.078  0.00  0.00    +0.000 HD
BRANCH  22  25
ATOM     25  C   UNL     1      -4.923   4.606 126.507  0.00  0.00    +0.000 C 
BRANCH  25  26
ATOM     26  N   UNL     1      -3.895   3.687 125.986  0.00  0.00    +0.000 NA
ATOM     27  H   UNL     1      -3.610   3.780 125.014  0.00  0.00    +0.000 HD
BRANCH  26  28
ATOM     28  S   UNL     1      -2.582   3.378 126.968  0.00  0.00    +0.000 S 
ATOM     29  O   UNL     1      -1.576   2.682 126.212  0.00  0.00    +0.000 OA
ATOM     30  O   UNL     1      -2.339   4.560 127.749  0.00  0.00    +0.000 OA
BRANCH  28  31
ATOM     31  N   UNL     1      -3.310   2.285 127.960  0.00  0.00    +0.000 NA
ATOM     32  H   UNL     1      -2.998   1.324 127.896  0.00  0.00    +0.000 HD
ATOM     33  H   UNL     1      -4.197   2.533 128.383  0.00  0.00    +0.000 HD
ENDBRANCH  28  31
ENDBRANCH  26  28
ENDBRANCH  25  26
ENDBRANCH  22  25
ENDBRANCH  18  19
ENDBRANCH   4  18
TORSDOF 10
ENDMDL
MODEL 7
REMARK VINA RESULT:      -6.9      3.066      5.675
REMARK  Name = Doripenem
REMARK  12 active torsions:
REMARK  status: ('A' for Active; 'I' for Inactive)
REMARK    1  A    between atoms: C_3  and  C_4
REMARK    2  A    between atoms: C_5  and  S_6
REMARK    3  A    between atoms: S_6  and  C_7
REMARK    4  A    between atoms: C_10  and  C_11
REMARK    5  A    between atoms: C_11  and  N_12
REMARK    6  A    between atoms: N_12  and  S_13
REMARK    7  A    between atoms: S_13  and  N_14
REMARK    8  A    between atoms: C_18  and  C_27
REMARK    9  A    between atoms: C_22  and  C_24
REMARK   10  A    between atoms: C_24  and  C_25
REMARK   11  A    between atoms: C_24  and  O_26
REMARK   12  A    between atoms: C_27  and  O_28
REMARK                            x       y       z     vdW  Elec       q    Type
REMARK                         _______ _______ _______ _____ _____    ______ ____
ROOT
ATOM      1  C   UNL     1      -4.799   5.010 130.605  0.00  0.00    +0.000 C 
ATOM      2  C   UNL     1      -6.002   5.413 131.466  0.00  0.00    +0.000 C 
ATOM      3  C   UNL     1      -6.366   6.869 131.157  0.00  0.00    +0.000 C 
ATOM      4  C   UNL     1      -7.021   4.365 131.064  0.00  0.00    +0.000 C 
ATOM      5  C   UNL     1      -6.671   3.831 129.864  0.00  0.00    +0.000 C 
ATOM      6  N   UNL     1      -5.371   4.183 129.505  0.00  0.00    +0.000 N 
ATOM      7  C   UNL     1      -5.024   5.083 128.530  0.00  0.00    +0.000 C 
ATOM      8  O   UNL     1      -5.333   5.150 127.370  0.00  0.00    +0.000 OA
ATOM      9  C   UNL     1      -4.177   5.926 129.518  0.00  0.00    +0.000 C 
ENDROOT
BRANCH   9  10
ATOM     10  C   UNL     1      -2.666   5.865 129.406  0.00  0.00    +0.000 C 
ATOM     11  C   UNL     1      -2.191   6.745 128.261  0.00  0.00    +0.000 C 
BRANCH  10  12
ATOM     12  O   UNL     1      -2.116   6.318 130.647  0.00  0.00    +0.000 OA
ATOM     13  H   UNL     1      -2.594   5.887 131.381  0.00  0.00    +0.000 HD
ENDBRANCH  10  12
ENDBRANCH   9  10
BRANCH   5  14
ATOM     14  C   UNL     1      -7.509   2.861 129.068  0.00  0.00    +0.000 C 
ATOM     15  O   UNL     1      -7.565   1.660 129.285  0.00  0.00    +0.000 OA
BRANCH  14  16
ATOM     16  O   UNL     1      -8.235   3.395 128.063  0.00  0.00    +0.000 OA
ATOM     17  H   UNL     1      -9.173   3.138 128.015  0.00  0.00    +0.000 HD
ENDBRANCH  14  16
ENDBRANCH   5  14
BRANCH   4  18
ATOM     18  S   UNL     1      -8.363   3.818 132.025  0.00  0.00    +0.000 S 
BRANCH  18  19
ATOM     19  C   UNL     1      -9.878   4.747 131.667  0.00  0.00    +0.000 C 
ATOM     20  C   UNL     1     -10.501   4.354 130.352  0.00  0.00    +0.000 C 
ATOM     21  N   UNL     1     -11.277   5.499 129.884  0.00  0.00    +0.000 NA
ATOM     22  C   UNL     1     -10.697   6.718 130.495  0.00  0.00    +0.000 C 
ATOM     23  C   UNL     1      -9.739   6.259 131.605  0.00  0.00    +0.000 C 
ATOM     24  H   UNL     1     -12.239   5.386 130.206  0.00  0.00    +0.000 HD
BRANCH  22  25
ATOM     25  C   UNL     1     -10.032   7.596 129.409  0.00  0.00    +0.000 C 
BRANCH  25  26
ATOM     26  N   UNL     1     -10.124   7.000 128.063  0.00  0.00    +0.000 NA
ATOM     27  H   UNL     1     -10.004   5.995 127.969  0.00  0.00    +0.000 HD
BRANCH  26  28
ATOM     28  S   UNL     1     -11.344   7.553 127.069  0.00  0.00    +0.000 S 
ATOM     29  O   UNL     1     -10.776   8.008 125.828  0.00  0.00    +0.000 OA
ATOM     30  O   UNL     1     -12.439   6.628 127.170  0.00  0.00    +0.000 OA
BRANCH  28  31
ATOM     31  N   UNL     1     -11.752   8.882 127.950  0.00  0.00    +0.000 NA
ATOM     32  H   UNL     1     -10.996   9.416 128.359  0.00  0.00    +0.000 HD
ATOM     33  H   UNL     1     -12.706   8.968 128.280  0.00  0.00    +0.000 HD
ENDBRANCH  28  31
ENDBRANCH  26  28
ENDBRANCH  25  26
ENDBRANCH  22  25
ENDBRANCH  18  19
ENDBRANCH   4  18
TORSDOF 10
ENDMDL
MODEL 8
REMARK VINA RESULT:      -6.9      2.899      3.474
REMARK  Name = Doripenem
REMARK  12 active torsions:
REMARK  status: ('A' for Active; 'I' for Inactive)
REMARK    1  A    between atoms: C_3  and  C_4
REMARK    2  A    between atoms: C_5  and  S_6
REMARK    3  A    between atoms: S_6  and  C_7
REMARK    4  A    between atoms: C_10  and  C_11
REMARK    5  A    between atoms: C_11  and  N_12
REMARK    6  A    between atoms: N_12  and  S_13
REMARK    7  A    between atoms: S_13  and  N_14
REMARK    8  A    between atoms: C_18  and  C_27
REMARK    9  A    between atoms: C_22  and  C_24
REMARK   10  A    between atoms: C_24  and  C_25
REMARK   11  A    between atoms: C_24  and  O_26
REMARK   12  A    between atoms: C_27  and  O_28
REMARK                            x       y       z     vdW  Elec       q    Type
REMARK                         _______ _______ _______ _____ _____    ______ ____
ROOT
ATOM      1  C   UNL     1      -9.029   5.643 130.100  0.00  0.00    +0.000 C 
ATOM      2  C   UNL     1      -7.560   5.529 130.523  0.00  0.00    +0.000 C 
ATOM      3  C   UNL     1      -7.078   6.898 131.013  0.00  0.00    +0.000 C 
ATOM      4  C   UNL     1      -7.634   4.430 131.565  0.00  0.00    +0.000 C 
ATOM      5  C   UNL     1      -8.910   4.325 132.021  0.00  0.00    +0.000 C 
ATOM      6  N   UNL     1      -9.803   5.036 131.220  0.00  0.00    +0.000 N 
ATOM      7  C   UNL     1     -10.414   6.217 131.553  0.00  0.00    +0.000 C 
ATOM      8  O   UNL     1     -11.075   6.522 132.511  0.00  0.00    +0.000 OA
ATOM      9  C   UNL     1      -9.877   6.929 130.286  0.00  0.00    +0.000 C 
ENDROOT
BRANCH   9  10
ATOM     10  C   UNL     1     -10.849   7.232 129.162  0.00  0.00    +0.000 C 
ATOM     11  C   UNL     1     -11.854   8.281 129.610  0.00  0.00    +0.000 C 
BRANCH  10  12
ATOM     12  O   UNL     1     -10.092   7.709 128.045  0.00  0.00    +0.000 OA
ATOM     13  H   UNL     1      -9.142   7.664 128.265  0.00  0.00    +0.000 HD
ENDBRANCH  10  12
ENDBRANCH   9  10
BRANCH   5  14
ATOM     14  C   UNL     1      -9.354   3.444 133.163  0.00  0.00    +0.000 C 
ATOM     15  O   UNL     1      -9.313   2.223 133.147  0.00  0.00    +0.000 OA
BRANCH  14  16
ATOM     16  O   UNL     1      -9.815   4.085 134.259  0.00  0.00    +0.000 OA
ATOM     17  H   UNL     1     -10.782   4.151 134.354  0.00  0.00    +0.000 HD
ENDBRANCH  14  16
ENDBRANCH   5  14
BRANCH   4  18
ATOM     18  S   UNL     1      -6.338   3.366 132.028  0.00  0.00    +0.000 S 
BRANCH  18  19
ATOM     19  C   UNL     1      -5.013   4.248 132.895  0.00  0.00    +0.000 C 
ATOM     20  C   UNL     1      -5.508   5.475 133.614  0.00  0.00    +0.000 C 
ATOM     21  N   UNL     1      -4.379   6.393 133.730  0.00  0.00    +0.000 NA
ATOM     22  C   UNL     1      -3.427   6.078 132.638  0.00  0.00    +0.000 C 
ATOM     23  C   UNL     1      -3.855   4.729 132.038  0.00  0.00    +0.000 C 
ATOM     24  H   UNL     1      -3.925   6.228 134.629  0.00  0.00    +0.000 HD
BRANCH  22  25
ATOM     25  C   UNL     1      -3.383   7.238 131.616  0.00  0.00    +0.000 C 
BRANCH  25  26
ATOM     26  N   UNL     1      -2.633   6.891 130.395  0.00  0.00    +0.000 NA
ATOM     27  H   UNL     1      -2.075   6.042 130.395  0.00  0.00    +0.000 HD
BRANCH  26  28
ATOM     28  S   UNL     1      -3.418   7.092 128.937  0.00  0.00    +0.000 S 
ATOM     29  O   UNL     1      -2.446   7.316 127.901  0.00  0.00    +0.000 OA
ATOM     30  O   UNL     1      -4.465   6.110 128.871  0.00  0.00    +0.000 OA
BRANCH  28  31
ATOM     31  N   UNL     1      -4.131   8.537 129.276  0.00  0.00    +0.000 NA
ATOM     32  H   UNL     1      -5.140   8.550 129.340  0.00  0.00    +0.000 HD
ATOM     33  H   UNL     1      -3.592   9.384 129.138  0.00  0.00    +0.000 HD
ENDBRANCH  28  31
ENDBRANCH  26  28
ENDBRANCH  25  26
ENDBRANCH  22  25
ENDBRANCH  18  19
ENDBRANCH   4  18
TORSDOF 10
ENDMDL
MODEL 9
REMARK VINA RESULT:      -6.6      3.905      7.546
REMARK  Name = Doripenem
REMARK  12 active torsions:
REMARK  status: ('A' for Active; 'I' for Inactive)
REMARK    1  A    between atoms: C_3  and  C_4
REMARK    2  A    between atoms: C_5  and  S_6
REMARK    3  A    between atoms: S_6  and  C_7
REMARK    4  A    between atoms: C_10  and  C_11
REMARK    5  A    between atoms: C_11  and  N_12
REMARK    6  A    between atoms: N_12  and  S_13
REMARK    7  A    between atoms: S_13  and  N_14
REMARK    8  A    between atoms: C_18  and  C_27
REMARK    9  A    between atoms: C_22  and  C_24
REMARK   10  A    between atoms: C_24  and  C_25
REMARK   11  A    between atoms: C_24  and  O_26
REMARK   12  A    between atoms: C_27  and  O_28
REMARK                            x       y       z     vdW  Elec       q    Type
REMARK                         _______ _______ _______ _____ _____    ______ ____
ROOT
ATOM      1  C   UNL     1      -6.514   2.793 123.888  0.00  0.00    +0.000 C 
ATOM      2  C   UNL     1      -6.880   3.102 125.344  0.00  0.00    +0.000 C 
ATOM      3  C   UNL     1      -7.260   4.582 125.456  0.00  0.00    +0.000 C 
ATOM      4  C   UNL     1      -7.992   2.101 125.591  0.00  0.00    +0.000 C 
ATOM      5  C   UNL     1      -8.509   1.697 124.401  0.00  0.00    +0.000 C 
ATOM      6  N   UNL     1      -7.703   2.087 123.332  0.00  0.00    +0.000 N 
ATOM      7  C   UNL     1      -7.986   3.085 122.436  0.00  0.00    +0.000 C 
ATOM      8  O   UNL     1      -8.950   3.274 121.742  0.00  0.00    +0.000 OA
ATOM      9  C   UNL     1      -6.654   3.819 122.733  0.00  0.00    +0.000 C 
ENDROOT
BRANCH   9  10
ATOM     10  C   UNL     1      -5.556   3.772 121.688  0.00  0.00    +0.000 C 
ATOM     11  C   UNL     1      -6.105   4.194 120.335  0.00  0.00    +0.000 C 
BRANCH  10  12
ATOM     12  O   UNL     1      -4.515   4.661 122.106  0.00  0.00    +0.000 OA
ATOM     13  H   UNL     1      -3.706   4.461 121.598  0.00  0.00    +0.000 HD
ENDBRANCH  10  12
ENDBRANCH   9  10
BRANCH   5  14
ATOM     14  C   UNL     1      -9.723   0.817 124.236  0.00  0.00    +0.000 C 
ATOM     15  O   UNL     1      -9.689  -0.404 124.200  0.00  0.00    +0.000 OA
BRANCH  14  16
ATOM     16  O   UNL     1     -10.907   1.457 124.129  0.00  0.00    +0.000 OA
ATOM     17  H   UNL     1     -10.980   2.320 124.573  0.00  0.00    +0.000 HD
ENDBRANCH  14  16
ENDBRANCH   5  14
BRANCH   4  18
ATOM     18  S   UNL     1      -8.466   1.454 127.134  0.00  0.00    +0.000 S 
BRANCH  18  19
ATOM     19  C   UNL     1      -7.780   2.412 128.512  0.00  0.00    +0.000 C 
ATOM     20  C   UNL     1      -7.759   1.637 129.803  0.00  0.00    +0.000 C 
ATOM     21  N   UNL     1      -7.794   2.609 130.891  0.00  0.00    +0.000 NA
ATOM     22  C   UNL     1      -8.425   3.846 130.372  0.00  0.00    +0.000 C 
ATOM     23  C   UNL     1      -8.489   3.715 128.842  0.00  0.00    +0.000 C 
ATOM     24  H   UNL     1      -6.833   2.813 131.168  0.00  0.00    +0.000 HD
BRANCH  22  25
ATOM     25  C   UNL     1      -9.799   4.067 131.045  0.00  0.00    +0.000 C 
BRANCH  25  26
ATOM     26  N   UNL     1     -10.829   4.528 130.095  0.00  0.00    +0.000 NA
ATOM     27  H   UNL     1     -11.588   3.895 129.858  0.00  0.00    +0.000 HD
BRANCH  26  28
ATOM     28  S   UNL     1     -11.386   6.090 130.276  0.00  0.00    +0.000 S 
ATOM     29  O   UNL     1     -12.155   6.182 131.489  0.00  0.00    +0.000 OA
ATOM     30  O   UNL     1     -10.311   6.977 129.927  0.00  0.00    +0.000 OA
BRANCH  28  31
ATOM     31  N   UNL     1     -12.442   6.088 129.013  0.00  0.00    +0.000 NA
ATOM     32  H   UNL     1     -13.265   5.507 129.100  0.00  0.00    +0.000 HD
ATOM     33  H   UNL     1     -12.119   6.429 128.115  0.00  0.00    +0.000 HD
ENDBRANCH  28  31
ENDBRANCH  26  28
ENDBRANCH  25  26
ENDBRANCH  22  25
ENDBRANCH  18  19
ENDBRANCH   4  18
TORSDOF 10
ENDMDL
