MODEL 1
REMARK VINA RESULT:      -6.5      0.000      0.000
REMARK  Name = Dorzolamide
REMARK  6 active torsions:
REMARK  status: ('A' for Active; 'I' for Inactive)
REMARK    1  A    between atoms: C_1  and  C_2
REMARK    2  A    between atoms: C_2  and  N_3
REMARK    3  A    between atoms: N_3  and  C_4
REMARK    4  A    between atoms: C_6  and  C_7
REMARK    5  A    between atoms: C_14  and  S_16
REMARK    6  A    between atoms: S_16  and  N_17
REMARK                            x       y       z     vdW  Elec       q    Type
REMARK                         _______ _______ _______ _____ _____    ______ ____
ROOT
ATOM      1  C   UNL     1      -5.957   3.460 123.049  0.00  0.00    +0.000 C 
ATOM      2  C   UNL     1      -5.644   4.671 123.942  0.00  0.00    +0.000 C 
ATOM      3  C   UNL     1      -6.356   4.951 125.273  0.00  0.00    +0.000 C 
ATOM      4  C   UNL     1      -5.274   4.887 126.333  0.00  0.00    +0.000 C 
ATOM      5  S   UNL     1      -7.693   3.931 125.849  0.00  0.00    +0.000 S 
ATOM      6  O   UNL     1      -7.339   3.285 127.097  0.00  0.00    +0.000 OA
ATOM      7  O   UNL     1      -8.958   4.605 125.647  0.00  0.00    +0.000 OA
ATOM      8  C   UNL     1      -7.657   2.626 124.726  0.00  0.00    +0.000 A 
ATOM      9  C   UNL     1      -6.861   2.409 123.633  0.00  0.00    +0.000 A 
ATOM     10  C   UNL     1      -7.168   1.113 123.080  0.00  0.00    +0.000 A 
ATOM     11  C   UNL     1      -8.267   0.543 123.686  0.00  0.00    +0.000 A 
ATOM     12  S   UNL     1      -8.793   1.426 125.031  0.00  0.00    +0.000 S 
ENDROOT
BRANCH  11  13
ATOM     13  S   UNL     1      -9.192  -0.925 123.421  0.00  0.00    +0.000 S 
ATOM     14  O   UNL     1      -9.443  -1.476 124.738  0.00  0.00    +0.000 OA
ATOM     15  O   UNL     1     -10.225  -0.543 122.501  0.00  0.00    +0.000 OA
BRANCH  13  16
ATOM     16  N   UNL     1      -8.089  -1.921 122.625  0.00  0.00    +0.000 NA
ATOM     17  H   UNL     1      -7.136  -1.568 122.752  0.00  0.00    +0.000 HD
ATOM     18  H   UNL     1      -8.339  -2.012 121.641  0.00  0.00    +0.000 HD
ENDBRANCH  13  16
ENDBRANCH  11  13
BRANCH   1  19
ATOM     19  N   UNL     1      -6.501   4.012 121.794  0.00  0.00    +0.000 NA
ATOM     20  H   UNL     1      -7.413   3.612 121.575  0.00  0.00    +0.000 HD
BRANCH  19  22
ATOM     21  C   UNL     1      -5.434   5.107 119.875  0.00  0.00    +0.000 C 
ATOM     22  C   UNL     1      -5.658   3.831 120.625  0.00  0.00    +0.000 C 
ENDBRANCH  19  22
ENDBRANCH   1  19
TORSDOF 4
ENDMDL
MODEL 2
REMARK VINA RESULT:      -6.3      8.626      9.797
REMARK  Name = Dorzolamide
REMARK  6 active torsions:
REMARK  status: ('A' for Active; 'I' for Inactive)
REMARK    1  A    between atoms: C_1  and  C_2
REMARK    2  A    between atoms: C_2  and  N_3
REMARK    3  A    between atoms: N_3  and  C_4
REMARK    4  A    between atoms: C_6  and  C_7
REMARK    5  A    between atoms: C_14  and  S_16
REMARK    6  A    between atoms: S_16  and  N_17
REMARK                            x       y       z     vdW  Elec       q    Type
REMARK                         _______ _______ _______ _____ _____    ______ ____
ROOT
ATOM      1  C   UNL     1      -8.820   4.926 133.634  0.00  0.00    +0.000 C 
ATOM      2  C   UNL     1      -7.300   4.701 133.634  0.00  0.00    +0.000 C 
ATOM      3  C   UNL     1      -6.398   4.996 132.426  0.00  0.00    +0.000 C 
ATOM      4  C   UNL     1      -5.444   6.079 132.888  0.00  0.00    +0.000 C 
ATOM      5  S   UNL     1      -7.068   5.536 130.872  0.00  0.00    +0.000 S 
ATOM      6  O   UNL     1      -6.581   6.861 130.540  0.00  0.00    +0.000 OA
ATOM      7  O   UNL     1      -7.072   4.443 129.923  0.00  0.00    +0.000 OA
ATOM      8  C   UNL     1      -8.716   5.831 131.274  0.00  0.00    +0.000 A 
ATOM      9  C   UNL     1      -9.392   5.663 132.453  0.00  0.00    +0.000 A 
ATOM     10  C   UNL     1     -10.740   6.148 132.294  0.00  0.00    +0.000 A 
ATOM     11  C   UNL     1     -11.016   6.477 130.984  0.00  0.00    +0.000 A 
ATOM     12  S   UNL     1      -9.639   6.422 130.001  0.00  0.00    +0.000 S 
ENDROOT
BRANCH  11  13
ATOM     13  S   UNL     1     -12.453   7.011 130.128  0.00  0.00    +0.000 S 
ATOM     14  O   UNL     1     -12.608   6.099 129.012  0.00  0.00    +0.000 OA
ATOM     15  O   UNL     1     -13.438   7.199 131.153  0.00  0.00    +0.000 OA
BRANCH  13  16
ATOM     16  N   UNL     1     -11.990   8.517 129.528  0.00  0.00    +0.000 NA
ATOM     17  H   UNL     1     -11.701   8.437 128.549  0.00  0.00    +0.000 HD
ATOM     18  H   UNL     1     -11.260   8.923 130.114  0.00  0.00    +0.000 HD
ENDBRANCH  13  16
ENDBRANCH  11  13
BRANCH   1  19
ATOM     19  N   UNL     1      -9.428   3.591 133.790  0.00  0.00    +0.000 NA
ATOM     20  H   UNL     1      -9.376   3.268 134.754  0.00  0.00    +0.000 HD
BRANCH  19  22
ATOM     21  C   UNL     1      -9.857   1.934 132.031  0.00  0.00    +0.000 C 
ATOM     22  C   UNL     1      -8.853   2.551 132.954  0.00  0.00    +0.000 C 
ENDBRANCH  19  22
ENDBRANCH   1  19
TORSDOF 4
ENDMDL
MODEL 3
REMARK VINA RESULT:      -6.2      3.457      6.583
REMARK  Name = Dorzolamide
REMARK  6 active torsions:
REMARK  status: ('A' for Active; 'I' for Inactive)
REMARK    1  A    between atoms: C_1  and  C_2
REMARK    2  A    between atoms: C_2  and  N_3
REMARK    3  A    between atoms: N_3  and  C_4
REMARK    4  A    between atoms: C_6  and  C_7
REMARK    5  A    between atoms: C_14  and  S_16
REMARK    6  A    between atoms: S_16  and  N_17
REMARK                            x       y       z     vdW  Elec       q    Type
REMARK                         _______ _______ _______ _____ _____    ______ ____
ROOT
ATOM      1  C   UNL     1      -5.772  -1.156 126.358  0.00  0.00    +0.000 C 
ATOM      2  C   UNL     1      -5.580  -2.585 125.826  0.00  0.00    +0.000 C 
ATOM      3  C   UNL     1      -6.057  -3.045 124.441  0.00  0.00    +0.000 C 
ATOM      4  C   UNL     1      -4.800  -3.442 123.691  0.00  0.00    +0.000 C 
ATOM      5  S   UNL     1      -6.974  -1.970 123.364  0.00  0.00    +0.000 S 
ATOM      6  O   UNL     1      -6.236  -1.724 122.140  0.00  0.00    +0.000 OA
ATOM      7  O   UNL     1      -8.376  -2.330 123.374  0.00  0.00    +0.000 OA
ATOM      8  C   UNL     1      -6.858  -0.460 124.182  0.00  0.00    +0.000 A 
ATOM      9  C   UNL     1      -6.268  -0.132 125.374  0.00  0.00    +0.000 A 
ATOM     10  C   UNL     1      -6.367   1.293 125.569  0.00  0.00    +0.000 A 
ATOM     11  C   UNL     1      -7.158   1.890 124.610  0.00  0.00    +0.000 A 
ATOM     12  S   UNL     1      -7.596   0.817 123.376  0.00  0.00    +0.000 S 
ENDROOT
BRANCH  11  13
ATOM     13  S   UNL     1      -7.747   3.523 124.346  0.00  0.00    +0.000 S 
ATOM     14  O   UNL     1      -8.891   3.675 125.223  0.00  0.00    +0.000 OA
ATOM     15  O   UNL     1      -6.574   4.346 124.407  0.00  0.00    +0.000 OA
BRANCH  13  16
ATOM     16  N   UNL     1      -8.297   3.465 122.753  0.00  0.00    +0.000 NA
ATOM     17  H   UNL     1      -7.693   2.861 122.189  0.00  0.00    +0.000 HD
ATOM     18  H   UNL     1      -8.367   4.408 122.369  0.00  0.00    +0.000 HD
ENDBRANCH  13  16
ENDBRANCH  11  13
BRANCH   1  19
ATOM     19  N   UNL     1      -6.670  -1.274 127.522  0.00  0.00    +0.000 NA
ATOM     20  H   UNL     1      -6.181  -1.650 128.334  0.00  0.00    +0.000 HD
BRANCH  19  22
ATOM     21  C   UNL     1      -8.162  -2.968 128.485  0.00  0.00    +0.000 C 
ATOM     22  C   UNL     1      -7.849  -2.096 127.310  0.00  0.00    +0.000 C 
ENDBRANCH  19  22
ENDBRANCH   1  19
TORSDOF 4
ENDMDL
MODEL 4
REMARK VINA RESULT:      -6.1      3.616      6.092
REMARK  Name = Dorzolamide
REMARK  6 active torsions:
REMARK  status: ('A' for Active; 'I' for Inactive)
REMARK    1  A    between atoms: C_1  and  C_2
REMARK    2  A    between atoms: C_2  and  N_3
REMARK    3  A    between atoms: N_3  and  C_4
REMARK    4  A    between atoms: C_6  and  C_7
REMARK    5  A    between atoms: C_14  and  S_16
REMARK    6  A    between atoms: S_16  and  N_17
REMARK                            x       y       z     vdW  Elec       q    Type
REMARK                         _______ _______ _______ _____ _____    ______ ____
ROOT
ATOM      1  C   UNL     1      -9.475  -1.635 125.506  0.00  0.00    +0.000 C 
ATOM      2  C   UNL     1      -8.998  -2.818 126.363  0.00  0.00    +0.000 C 
ATOM      3  C   UNL     1      -7.750  -2.769 127.258  0.00  0.00    +0.000 C 
ATOM      4  C   UNL     1      -8.258  -2.971 128.672  0.00  0.00    +0.000 C 
ATOM      5  S   UNL     1      -6.686  -1.347 127.297  0.00  0.00    +0.000 S 
ATOM      6  O   UNL     1      -6.673  -0.758 128.622  0.00  0.00    +0.000 OA
ATOM      7  O   UNL     1      -5.477  -1.607 126.544  0.00  0.00    +0.000 OA
ATOM      8  C   UNL     1      -7.586  -0.199 126.383  0.00  0.00    +0.000 A 
ATOM      9  C   UNL     1      -8.787  -0.316 125.736  0.00  0.00    +0.000 A 
ATOM     10  C   UNL     1      -9.156   0.968 125.196  0.00  0.00    +0.000 A 
ATOM     11  C   UNL     1      -8.141   1.892 125.330  0.00  0.00    +0.000 A 
ATOM     12  S   UNL     1      -6.861   1.313 126.273  0.00  0.00    +0.000 S 
ENDROOT
BRANCH  11  13
ATOM     13  S   UNL     1      -7.915   3.554 124.808  0.00  0.00    +0.000 S 
ATOM     14  O   UNL     1      -8.906   4.330 125.528  0.00  0.00    +0.000 OA
ATOM     15  O   UNL     1      -6.501   3.774 124.899  0.00  0.00    +0.000 OA
BRANCH  13  16
ATOM     16  N   UNL     1      -8.360   3.495 123.183  0.00  0.00    +0.000 NA
ATOM     17  H   UNL     1      -7.535   3.350 122.593  0.00  0.00    +0.000 HD
ATOM     18  H   UNL     1      -8.874   4.338 122.926  0.00  0.00    +0.000 HD
ENDBRANCH  13  16
ENDBRANCH  11  13
BRANCH   1  19
ATOM     19  N   UNL     1      -9.357  -2.076 124.104  0.00  0.00    +0.000 NA
ATOM     20  H   UNL     1     -10.141  -2.668 123.832  0.00  0.00    +0.000 HD
BRANCH  19  22
ATOM     21  C   UNL     1      -7.186  -1.985 122.966  0.00  0.00    +0.000 C 
ATOM     22  C   UNL     1      -8.138  -2.798 123.785  0.00  0.00    +0.000 C 
ENDBRANCH  19  22
ENDBRANCH   1  19
TORSDOF 4
ENDMDL
MODEL 5
REMARK VINA RESULT:      -6.0      4.617      6.465
REMARK  Name = Dorzolamide
REMARK  6 active torsions:
REMARK  status: ('A' for Active; 'I' for Inactive)
REMARK    1  A    between atoms: C_1  and  C_2
REMARK    2  A    between atoms: C_2  and  N_3
REMARK    3  A    between atoms: N_3  and  C_4
REMARK    4  A    between atoms: C_6  and  C_7
REMARK    5  A    between atoms: C_14  and  S_16
REMARK    6  A    between atoms: S_16  and  N_17
REMARK                            x       y       z     vdW  Elec       q    Type
REMARK                         _______ _______ _______ _____ _____    ______ ____
ROOT
ATOM      1  C   UNL     1      -5.948  -1.639 124.343  0.00  0.00    +0.000 C 
ATOM      2  C   UNL     1      -6.941  -0.888 123.442  0.00  0.00    +0.000 C 
ATOM      3  C   UNL     1      -8.304  -0.372 123.928  0.00  0.00    +0.000 C 
ATOM      4  C   UNL     1      -8.244   1.135 123.778  0.00  0.00    +0.000 C 
ATOM      5  S   UNL     1      -8.892  -0.696 125.573  0.00  0.00    +0.000 S 
ATOM      6  O   UNL     1      -9.065   0.542 126.306  0.00  0.00    +0.000 OA
ATOM      7  O   UNL     1      -9.897  -1.738 125.547  0.00  0.00    +0.000 OA
ATOM      8  C   UNL     1      -7.503  -1.386 126.321  0.00  0.00    +0.000 A 
ATOM      9  C   UNL     1      -6.264  -1.674 125.813  0.00  0.00    +0.000 A 
ATOM     10  C   UNL     1      -5.421  -2.156 126.878  0.00  0.00    +0.000 A 
ATOM     11  C   UNL     1      -6.129  -2.351 128.046  0.00  0.00    +0.000 A 
ATOM     12  S   UNL     1      -7.714  -1.766 127.944  0.00  0.00    +0.000 S 
ENDROOT
BRANCH  11  13
ATOM     13  S   UNL     1      -5.733  -2.998 129.629  0.00  0.00    +0.000 S 
ATOM     14  O   UNL     1      -5.619  -1.848 130.506  0.00  0.00    +0.000 OA
ATOM     15  O   UNL     1      -6.665  -4.069 129.828  0.00  0.00    +0.000 OA
BRANCH  13  16
ATOM     16  N   UNL     1      -4.194  -3.644 129.391  0.00  0.00    +0.000 NA
ATOM     17  H   UNL     1      -3.684  -3.684 130.278  0.00  0.00    +0.000 HD
ATOM     18  H   UNL     1      -3.693  -3.112 128.680  0.00  0.00    +0.000 HD
ENDBRANCH  13  16
ENDBRANCH  11  13
BRANCH   1  19
ATOM     19  N   UNL     1      -5.834  -2.996 123.776  0.00  0.00    +0.000 NA
ATOM     20  H   UNL     1      -6.201  -3.699 124.416  0.00  0.00    +0.000 HD
BRANCH  19  22
ATOM     21  C   UNL     1      -4.287  -4.882 123.511  0.00  0.00    +0.000 C 
ATOM     22  C   UNL     1      -4.487  -3.402 123.414  0.00  0.00    +0.000 C 
ENDBRANCH  19  22
ENDBRANCH   1  19
TORSDOF 4
ENDMDL
MODEL 6
REMARK VINA RESULT:      -5.9      3.425      6.406
REMARK  Name = Dorzolamide
REMARK  6 active torsions:
REMARK  status: ('A' for Active; 'I' for Inactive)
REMARK    1  A    between atoms: C_1  and  C_2
REMARK    2  A    between atoms: C_2  and  N_3
REMARK    3  A    between atoms: N_3  and  C_4
REMARK    4  A    between atoms: C_6  and  C_7
REMARK    5  A    between atoms: C_14  and  S_16
REMARK    6  A    between atoms: S_16  and  N_17
REMARK                            x       y       z     vdW  Elec       q    Type
REMARK                         _______ _______ _______ _____ _____    ______ ____
ROOT
ATOM      1  C   UNL     1      -5.298  -0.404 125.817  0.00  0.00    +0.000 C 
ATOM      2  C   UNL     1      -5.681  -1.758 125.199  0.00  0.00    +0.000 C 
ATOM      3  C   UNL     1      -7.021  -2.020 124.494  0.00  0.00    +0.000 C 
ATOM      4  C   UNL     1      -6.666  -2.358 123.060  0.00  0.00    +0.000 C 
ATOM      5  S   UNL     1      -8.297  -0.785 124.426  0.00  0.00    +0.000 S 
ATOM      6  O   UNL     1      -8.567  -0.408 123.052  0.00  0.00    +0.000 OA
ATOM      7  O   UNL     1      -9.346  -1.097 125.373  0.00  0.00    +0.000 OA
ATOM      8  C   UNL     1      -7.486   0.602 125.044  0.00  0.00    +0.000 A 
ATOM      9  C   UNL     1      -6.211   0.754 125.521  0.00  0.00    +0.000 A 
ATOM     10  C   UNL     1      -5.990   2.144 125.832  0.00  0.00    +0.000 A 
ATOM     11  C   UNL     1      -7.148   2.885 125.727  0.00  0.00    +0.000 A 
ATOM     12  S   UNL     1      -8.425   1.996 125.061  0.00  0.00    +0.000 S 
ENDROOT
BRANCH  11  13
ATOM     13  S   UNL     1      -7.571   4.557 126.057  0.00  0.00    +0.000 S 
ATOM     14  O   UNL     1      -6.425   5.342 125.641  0.00  0.00    +0.000 OA
ATOM     15  O   UNL     1      -8.889   4.713 125.515  0.00  0.00    +0.000 OA
BRANCH  13  16
ATOM     16  N   UNL     1      -7.660   4.592 127.740  0.00  0.00    +0.000 NA
ATOM     17  H   UNL     1      -6.773   4.914 128.137  0.00  0.00    +0.000 HD
ATOM     18  H   UNL     1      -7.934   3.677 128.099  0.00  0.00    +0.000 HD
ENDBRANCH  13  16
ENDBRANCH  11  13
BRANCH   1  19
ATOM     19  N   UNL     1      -5.170  -0.642 127.267  0.00  0.00    +0.000 NA
ATOM     20  H   UNL     1      -4.227  -0.442 127.596  0.00  0.00    +0.000 HD
BRANCH  19  22
ATOM     21  C   UNL     1      -4.549  -2.512 128.729  0.00  0.00    +0.000 C 
ATOM     22  C   UNL     1      -5.502  -1.988 127.702  0.00  0.00    +0.000 C 
ENDBRANCH  19  22
ENDBRANCH   1  19
TORSDOF 4
ENDMDL
MODEL 7
REMARK VINA RESULT:      -5.7      3.743      6.967
REMARK  Name = Dorzolamide
REMARK  6 active torsions:
REMARK  status: ('A' for Active; 'I' for Inactive)
REMARK    1  A    between atoms: C_1  and  C_2
REMARK    2  A    between atoms: C_2  and  N_3
REMARK    3  A    between atoms: N_3  and  C_4
REMARK    4  A    between atoms: C_6  and  C_7
REMARK    5  A    between atoms: C_14  and  S_16
REMARK    6  A    between atoms: S_16  and  N_17
REMARK                            x       y       z     vdW  Elec       q    Type
REMARK                         _______ _______ _______ _____ _____    ______ ____
ROOT
ATOM      1  C   UNL     1      -6.542  -2.266 125.997  0.00  0.00    +0.000 C 
ATOM      2  C   UNL     1      -7.733  -2.972 125.331  0.00  0.00    +0.000 C 
ATOM      3  C   UNL     1      -8.861  -2.227 124.603  0.00  0.00    +0.000 C 
ATOM      4  C   UNL     1      -8.792  -2.694 123.162  0.00  0.00    +0.000 C 
ATOM      5  S   UNL     1      -8.931  -0.452 124.558  0.00  0.00    +0.000 S 
ATOM      6  O   UNL     1      -8.823   0.028 123.194  0.00  0.00    +0.000 OA
ATOM      7  O   UNL     1      -9.934   0.032 125.482  0.00  0.00    +0.000 OA
ATOM      8  C   UNL     1      -7.407  -0.016 125.231  0.00  0.00    +0.000 A 
ATOM      9  C   UNL     1      -6.395  -0.793 125.728  0.00  0.00    +0.000 A 
ATOM     10  C   UNL     1      -5.285   0.055 126.086  0.00  0.00    +0.000 A 
ATOM     11  C   UNL     1      -5.609   1.392 125.991  0.00  0.00    +0.000 A 
ATOM     12  S   UNL     1      -7.126   1.640 125.282  0.00  0.00    +0.000 S 
ENDROOT
BRANCH  11  13
ATOM     13  S   UNL     1      -4.773   2.888 126.370  0.00  0.00    +0.000 S 
ATOM     14  O   UNL     1      -4.828   3.687 125.162  0.00  0.00    +0.000 OA
ATOM     15  O   UNL     1      -5.319   3.301 127.631  0.00  0.00    +0.000 OA
BRANCH  13  16
ATOM     16  N   UNL     1      -3.183   2.377 126.601  0.00  0.00    +0.000 NA
ATOM     17  H   UNL     1      -3.081   1.932 127.518  0.00  0.00    +0.000 HD
ATOM     18  H   UNL     1      -2.538   3.158 126.477  0.00  0.00    +0.000 HD
ENDBRANCH  13  16
ENDBRANCH  11  13
BRANCH   1  19
ATOM     19  N   UNL     1      -6.658  -2.549 127.441  0.00  0.00    +0.000 NA
ATOM     20  H   UNL     1      -6.313  -3.480 127.667  0.00  0.00    +0.000 HD
BRANCH  19  22
ATOM     21  C   UNL     1      -8.202  -3.296 129.195  0.00  0.00    +0.000 C 
ATOM     22  C   UNL     1      -8.002  -2.443 127.982  0.00  0.00    +0.000 C 
ENDBRANCH  19  22
ENDBRANCH   1  19
TORSDOF 4
ENDMDL
MODEL 8
REMARK VINA RESULT:      -5.7      8.334     10.135
REMARK  Name = Dorzolamide
REMARK  6 active torsions:
REMARK  status: ('A' for Active; 'I' for Inactive)
REMARK    1  A    between atoms: C_1  and  C_2
REMARK    2  A    between atoms: C_2  and  N_3
REMARK    3  A    between atoms: N_3  and  C_4
REMARK    4  A    between atoms: C_6  and  C_7
REMARK    5  A    between atoms: C_14  and  S_16
REMARK    6  A    between atoms: S_16  and  N_17
REMARK                            x       y       z     vdW  Elec       q    Type
REMARK                         _______ _______ _______ _____ _____    ______ ____
ROOT
ATOM      1  C   UNL     1      -7.964   5.516 133.005  0.00  0.00    +0.000 C 
ATOM      2  C   UNL     1      -7.106   4.251 133.169  0.00  0.00    +0.000 C 
ATOM      3  C   UNL     1      -7.437   2.909 132.500  0.00  0.00    +0.000 C 
ATOM      4  C   UNL     1      -6.275   2.622 131.571  0.00  0.00    +0.000 C 
ATOM      5  S   UNL     1      -8.919   2.681 131.547  0.00  0.00    +0.000 S 
ATOM      6  O   UNL     1      -8.595   2.372 130.168  0.00  0.00    +0.000 OA
ATOM      7  O   UNL     1      -9.893   1.930 132.309  0.00  0.00    +0.000 OA
ATOM      8  C   UNL     1      -9.526   4.289 131.439  0.00  0.00    +0.000 A 
ATOM      9  C   UNL     1      -9.055   5.460 131.971  0.00  0.00    +0.000 A 
ATOM     10  C   UNL     1      -9.877   6.549 131.506  0.00  0.00    +0.000 A 
ATOM     11  C   UNL     1     -10.981   6.101 130.813  0.00  0.00    +0.000 A 
ATOM     12  S   UNL     1     -10.932   4.433 130.529  0.00  0.00    +0.000 S 
ENDROOT
BRANCH  11  13
ATOM     13  S   UNL     1     -12.383   6.881 130.098  0.00  0.00    +0.000 S 
ATOM     14  O   UNL     1     -12.733   6.077 128.943  0.00  0.00    +0.000 OA
ATOM     15  O   UNL     1     -13.265   7.126 131.202  0.00  0.00    +0.000 OA
BRANCH  13  16
ATOM     16  N   UNL     1     -11.756   8.349 129.559  0.00  0.00    +0.000 NA
ATOM     17  H   UNL     1     -11.171   8.774 130.283  0.00  0.00    +0.000 HD
ATOM     18  H   UNL     1     -12.510   8.968 129.260  0.00  0.00    +0.000 HD
ENDBRANCH  13  16
ENDBRANCH  11  13
BRANCH   1  19
ATOM     19  N   UNL     1      -8.498   5.821 134.346  0.00  0.00    +0.000 NA
ATOM     20  H   UNL     1      -8.704   6.813 134.448  0.00  0.00    +0.000 HD
BRANCH  19  22
ATOM     21  C   UNL     1      -7.743   6.382 136.612  0.00  0.00    +0.000 C 
ATOM     22  C   UNL     1      -7.636   5.442 135.452  0.00  0.00    +0.000 C 
ENDBRANCH  19  22
ENDBRANCH   1  19
TORSDOF 4
ENDMDL
MODEL 9
REMARK VINA RESULT:      -5.7      5.881      7.384
REMARK  Name = Dorzolamide
REMARK  6 active torsions:
REMARK  status: ('A' for Active; 'I' for Inactive)
REMARK    1  A    between atoms: C_1  and  C_2
REMARK    2  A    between atoms: C_2  and  N_3
REMARK    3  A    between atoms: N_3  and  C_4
REMARK    4  A    between atoms: C_6  and  C_7
REMARK    5  A    between atoms: C_14  and  S_16
REMARK    6  A    between atoms: S_16  and  N_17
REMARK                            x       y       z     vdW  Elec       q    Type
REMARK                         _______ _______ _______ _____ _____    ______ ____
ROOT
ATOM      1  C   UNL     1      -7.665  -3.240 130.014  0.00  0.00    +0.000 C 
ATOM      2  C   UNL     1      -7.487  -2.281 131.201  0.00  0.00    +0.000 C 
ATOM      3  C   UNL     1      -7.316  -0.762 131.047  0.00  0.00    +0.000 C 
ATOM      4  C   UNL     1      -8.511  -0.146 131.746  0.00  0.00    +0.000 C 
ATOM      5  S   UNL     1      -7.209   0.007 129.448  0.00  0.00    +0.000 S 
ATOM      6  O   UNL     1      -8.316   0.922 129.249  0.00  0.00    +0.000 OA
ATOM      7  O   UNL     1      -5.836   0.363 129.156  0.00  0.00    +0.000 OA
ATOM      8  C   UNL     1      -7.603  -1.297 128.396  0.00  0.00    +0.000 A 
ATOM      9  C   UNL     1      -7.885  -2.610 128.665  0.00  0.00    +0.000 A 
ATOM     10  C   UNL     1      -8.246  -3.273 127.438  0.00  0.00    +0.000 A 
ATOM     11  C   UNL     1      -8.045  -2.465 126.339  0.00  0.00    +0.000 A 
ATOM     12  S   UNL     1      -7.645  -0.878 126.769  0.00  0.00    +0.000 S 
ENDROOT
BRANCH  11  13
ATOM     13  S   UNL     1      -8.184  -2.695 124.603  0.00  0.00    +0.000 S 
ATOM     14  O   UNL     1      -7.938  -1.394 124.014  0.00  0.00    +0.000 OA
ATOM     15  O   UNL     1      -7.398  -3.863 124.327  0.00  0.00    +0.000 OA
BRANCH  13  16
ATOM     16  N   UNL     1      -9.816  -3.071 124.408  0.00  0.00    +0.000 NA
ATOM     17  H   UNL     1     -10.399  -2.393 124.905  0.00  0.00    +0.000 HD
ATOM     18  H   UNL     1      -9.996  -4.030 124.709  0.00  0.00    +0.000 HD
ENDBRANCH  13  16
ENDBRANCH  11  13
BRANCH   1  19
ATOM     19  N   UNL     1      -6.480  -4.118 130.019  0.00  0.00    +0.000 NA
ATOM     20  H   UNL     1      -6.592  -4.892 130.671  0.00  0.00    +0.000 HD
BRANCH  19  22
ATOM     21  C   UNL     1      -4.330  -3.309 129.155  0.00  0.00    +0.000 C 
ATOM     22  C   UNL     1      -5.227  -3.458 130.344  0.00  0.00    +0.000 C 
ENDBRANCH  19  22
ENDBRANCH   1  19
TORSDOF 4
ENDMDL
