MODEL 1
REMARK VINA RESULT:      -7.3      0.000      0.000
REMARK  Name = Dosulepin
REMARK  5 active torsions:
REMARK  status: ('A' for Active; 'I' for Inactive)
REMARK    1  A    between atoms: C_1  and  N_2
REMARK    2  A    between atoms: N_2  and  C_3
REMARK    3  A    between atoms: N_2  and  C_4
REMARK    4  A    between atoms: C_4  and  C_5
REMARK    5  A    between atoms: C_5  and  C_6
REMARK                            x       y       z     vdW  Elec       q    Type
REMARK                         _______ _______ _______ _____ _____    ______ ____
ROOT
ATOM      1  C   UNL     1      -6.240   1.931 124.933  0.00  0.00    +0.000 C 
ATOM      2  C   UNL     1      -6.828   1.396 123.829  0.00  0.00    +0.000 C 
ATOM      3  C   UNL     1      -7.097   2.300 122.685  0.00  0.00    +0.000 A 
ATOM      4  C   UNL     1      -6.061   2.812 121.892  0.00  0.00    +0.000 A 
ATOM      5  C   UNL     1      -6.346   3.665 120.826  0.00  0.00    +0.000 A 
ATOM      6  C   UNL     1      -7.668   3.970 120.514  0.00  0.00    +0.000 A 
ATOM      7  C   UNL     1      -8.704   3.453 121.286  0.00  0.00    +0.000 A 
ATOM      8  C   UNL     1      -8.426   2.648 122.397  0.00  0.00    +0.000 A 
ATOM      9  C   UNL     1      -9.546   2.105 123.231  0.00  0.00    +0.000 C 
ATOM     10  S   UNL     1      -9.933   0.420 122.736  0.00  0.00    +0.000 S 
ATOM     11  C   UNL     1      -8.516  -0.500 123.350  0.00  0.00    +0.000 A 
ATOM     12  C   UNL     1      -8.772  -1.883 123.313  0.00  0.00    +0.000 A 
ATOM     13  C   UNL     1      -7.821  -2.810 123.718  0.00  0.00    +0.000 A 
ATOM     14  C   UNL     1      -6.585  -2.368 124.165  0.00  0.00    +0.000 A 
ATOM     15  C   UNL     1      -6.307  -1.001 124.215  0.00  0.00    +0.000 A 
ATOM     16  C   UNL     1      -7.260  -0.036 123.821  0.00  0.00    +0.000 A 
ENDROOT
BRANCH   1  17
ATOM     17  C   UNL     1      -5.785   3.369 125.027  0.00  0.00    +0.000 C 
BRANCH  17  18
ATOM     18  C   UNL     1      -6.720   4.313 125.797  0.00  0.00    +0.000 C 
BRANCH  18  20
ATOM     19  C   UNL     1      -6.476   3.995 128.172  0.00  0.00    +0.000 C 
ATOM     20  N   UNL     1      -6.091   4.831 127.033  0.00  0.00    +0.000 NA
ATOM     21  C   UNL     1      -4.629   4.875 126.936  0.00  0.00    +0.000 C 
ENDBRANCH  18  20
ENDBRANCH  17  18
ENDBRANCH   1  17
TORSDOF 3
ENDMDL
MODEL 2
REMARK VINA RESULT:      -7.0      7.816     10.367
REMARK  Name = Dosulepin
REMARK  5 active torsions:
REMARK  status: ('A' for Active; 'I' for Inactive)
REMARK    1  A    between atoms: C_1  and  N_2
REMARK    2  A    between atoms: N_2  and  C_3
REMARK    3  A    between atoms: N_2  and  C_4
REMARK    4  A    between atoms: C_4  and  C_5
REMARK    5  A    between atoms: C_5  and  C_6
REMARK                            x       y       z     vdW  Elec       q    Type
REMARK                         _______ _______ _______ _____ _____    ______ ____
ROOT
ATOM      1  C   UNL     1      -8.530   7.032 130.863  0.00  0.00    +0.000 C 
ATOM      2  C   UNL     1      -7.750   6.081 131.445  0.00  0.00    +0.000 C 
ATOM      3  C   UNL     1      -8.380   4.779 131.770  0.00  0.00    +0.000 A 
ATOM      4  C   UNL     1      -8.752   3.870 130.769  0.00  0.00    +0.000 A 
ATOM      5  C   UNL     1      -9.348   2.656 131.106  0.00  0.00    +0.000 A 
ATOM      6  C   UNL     1      -9.529   2.318 132.445  0.00  0.00    +0.000 A 
ATOM      7  C   UNL     1      -9.148   3.207 133.446  0.00  0.00    +0.000 A 
ATOM      8  C   UNL     1      -8.608   4.455 133.116  0.00  0.00    +0.000 A 
ATOM      9  C   UNL     1      -8.212   5.412 134.200  0.00  0.00    +0.000 C 
ATOM     10  S   UNL     1      -6.447   5.294 134.522  0.00  0.00    +0.000 S 
ATOM     11  C   UNL     1      -5.732   6.053 133.058  0.00  0.00    +0.000 A 
ATOM     12  C   UNL     1      -4.364   6.316 133.256  0.00  0.00    +0.000 A 
ATOM     13  C   UNL     1      -3.581   6.884 132.261  0.00  0.00    +0.000 A 
ATOM     14  C   UNL     1      -4.155   7.198 131.038  0.00  0.00    +0.000 A 
ATOM     15  C   UNL     1      -5.512   6.952 130.817  0.00  0.00    +0.000 A 
ATOM     16  C   UNL     1      -6.333   6.385 131.816  0.00  0.00    +0.000 A 
ENDROOT
BRANCH   1  17
ATOM     17  C   UNL     1      -9.971   6.810 130.469  0.00  0.00    +0.000 C 
BRANCH  17  18
ATOM     18  C   UNL     1     -10.481   7.665 129.301  0.00  0.00    +0.000 C 
BRANCH  18  20
ATOM     19  C   UNL     1     -12.582   6.718 128.603  0.00  0.00    +0.000 C 
ATOM     20  N   UNL     1     -11.162   6.850 128.271  0.00  0.00    +0.000 NA
ATOM     21  C   UNL     1     -11.030   7.427 126.929  0.00  0.00    +0.000 C 
ENDBRANCH  18  20
ENDBRANCH  17  18
ENDBRANCH   1  17
TORSDOF 3
ENDMDL
MODEL 3
REMARK VINA RESULT:      -6.8      4.157      6.219
REMARK  Name = Dosulepin
REMARK  5 active torsions:
REMARK  status: ('A' for Active; 'I' for Inactive)
REMARK    1  A    between atoms: C_1  and  N_2
REMARK    2  A    between atoms: N_2  and  C_3
REMARK    3  A    between atoms: N_2  and  C_4
REMARK    4  A    between atoms: C_4  and  C_5
REMARK    5  A    between atoms: C_5  and  C_6
REMARK                            x       y       z     vdW  Elec       q    Type
REMARK                         _______ _______ _______ _____ _____    ______ ____
ROOT
ATOM      1  C   UNL     1      -5.186  -0.498 127.311  0.00  0.00    +0.000 C 
ATOM      2  C   UNL     1      -5.622  -1.784 127.399  0.00  0.00    +0.000 C 
ATOM      3  C   UNL     1      -6.368  -2.338 126.243  0.00  0.00    +0.000 A 
ATOM      4  C   UNL     1      -5.734  -2.629 125.027  0.00  0.00    +0.000 A 
ATOM      5  C   UNL     1      -6.464  -3.144 123.958  0.00  0.00    +0.000 A 
ATOM      6  C   UNL     1      -7.821  -3.420 124.110  0.00  0.00    +0.000 A 
ATOM      7  C   UNL     1      -8.455  -3.149 125.319  0.00  0.00    +0.000 A 
ATOM      8  C   UNL     1      -7.745  -2.572 126.378  0.00  0.00    +0.000 A 
ATOM      9  C   UNL     1      -8.439  -2.272 127.673  0.00  0.00    +0.000 C 
ATOM     10  S   UNL     1      -8.149  -3.593 128.857  0.00  0.00    +0.000 S 
ATOM     11  C   UNL     1      -6.419  -3.360 129.285  0.00  0.00    +0.000 A 
ATOM     12  C   UNL     1      -6.083  -4.121 130.420  0.00  0.00    +0.000 A 
ATOM     13  C   UNL     1      -4.795  -4.127 130.937  0.00  0.00    +0.000 A 
ATOM     14  C   UNL     1      -3.810  -3.368 130.322  0.00  0.00    +0.000 A 
ATOM     15  C   UNL     1      -4.118  -2.601 129.197  0.00  0.00    +0.000 A 
ATOM     16  C   UNL     1      -5.422  -2.568 128.657  0.00  0.00    +0.000 A 
ENDROOT
BRANCH   1  17
ATOM     17  C   UNL     1      -5.358   0.364 126.083  0.00  0.00    +0.000 C 
BRANCH  17  18
ATOM     18  C   UNL     1      -6.244   1.605 126.261  0.00  0.00    +0.000 C 
BRANCH  18  20
ATOM     19  C   UNL     1      -7.193   0.684 124.247  0.00  0.00    +0.000 C 
ATOM     20  N   UNL     1      -7.443   1.560 125.393  0.00  0.00    +0.000 NA
ATOM     21  C   UNL     1      -8.632   1.091 126.112  0.00  0.00    +0.000 C 
ENDBRANCH  18  20
ENDBRANCH  17  18
ENDBRANCH   1  17
TORSDOF 3
ENDMDL
MODEL 4
REMARK VINA RESULT:      -6.6      3.749      5.925
REMARK  Name = Dosulepin
REMARK  5 active torsions:
REMARK  status: ('A' for Active; 'I' for Inactive)
REMARK    1  A    between atoms: C_1  and  N_2
REMARK    2  A    between atoms: N_2  and  C_3
REMARK    3  A    between atoms: N_2  and  C_4
REMARK    4  A    between atoms: C_4  and  C_5
REMARK    5  A    between atoms: C_5  and  C_6
REMARK                            x       y       z     vdW  Elec       q    Type
REMARK                         _______ _______ _______ _____ _____    ______ ____
ROOT
ATOM      1  C   UNL     1      -7.803   0.482 126.611  0.00  0.00    +0.000 C 
ATOM      2  C   UNL     1      -7.406  -0.782 126.920  0.00  0.00    +0.000 C 
ATOM      3  C   UNL     1      -6.947  -1.650 125.808  0.00  0.00    +0.000 A 
ATOM      4  C   UNL     1      -5.731  -1.422 125.149  0.00  0.00    +0.000 A 
ATOM      5  C   UNL     1      -5.330  -2.254 124.104  0.00  0.00    +0.000 A 
ATOM      6  C   UNL     1      -6.114  -3.346 123.744  0.00  0.00    +0.000 A 
ATOM      7  C   UNL     1      -7.316  -3.589 124.404  0.00  0.00    +0.000 A 
ATOM      8  C   UNL     1      -7.758  -2.724 125.411  0.00  0.00    +0.000 A 
ATOM      9  C   UNL     1      -9.059  -2.986 126.108  0.00  0.00    +0.000 C 
ATOM     10  S   UNL     1      -8.773  -3.842 127.663  0.00  0.00    +0.000 S 
ATOM     11  C   UNL     1      -8.040  -2.558 128.685  0.00  0.00    +0.000 A 
ATOM     12  C   UNL     1      -8.012  -2.956 130.034  0.00  0.00    +0.000 A 
ATOM     13  C   UNL     1      -7.473  -2.143 131.022  0.00  0.00    +0.000 A 
ATOM     14  C   UNL     1      -6.945  -0.908 130.676  0.00  0.00    +0.000 A 
ATOM     15  C   UNL     1      -6.964  -0.487 129.345  0.00  0.00    +0.000 A 
ATOM     16  C   UNL     1      -7.516  -1.289 128.322  0.00  0.00    +0.000 A 
ENDROOT
BRANCH   1  17
ATOM     17  C   UNL     1      -7.735   1.067 125.219  0.00  0.00    +0.000 C 
BRANCH  17  18
ATOM     18  C   UNL     1      -8.736   2.191 124.921  0.00  0.00    +0.000 C 
BRANCH  18  20
ATOM     19  C   UNL     1      -8.696   2.726 122.572  0.00  0.00    +0.000 C 
ATOM     20  N   UNL     1      -9.416   2.000 123.620  0.00  0.00    +0.000 NA
ATOM     21  C   UNL     1      -9.516   0.584 123.249  0.00  0.00    +0.000 C 
ENDBRANCH  18  20
ENDBRANCH  17  18
ENDBRANCH   1  17
TORSDOF 3
ENDMDL
MODEL 5
REMARK VINA RESULT:      -6.6      2.060      2.885
REMARK  Name = Dosulepin
REMARK  5 active torsions:
REMARK  status: ('A' for Active; 'I' for Inactive)
REMARK    1  A    between atoms: C_1  and  N_2
REMARK    2  A    between atoms: N_2  and  C_3
REMARK    3  A    between atoms: N_2  and  C_4
REMARK    4  A    between atoms: C_4  and  C_5
REMARK    5  A    between atoms: C_5  and  C_6
REMARK                            x       y       z     vdW  Elec       q    Type
REMARK                         _______ _______ _______ _____ _____    ______ ____
ROOT
ATOM      1  C   UNL     1      -5.334   0.413 125.890  0.00  0.00    +0.000 C 
ATOM      2  C   UNL     1      -6.246  -0.154 125.054  0.00  0.00    +0.000 C 
ATOM      3  C   UNL     1      -7.301   0.723 124.491  0.00  0.00    +0.000 A 
ATOM      4  C   UNL     1      -7.011   1.696 123.524  0.00  0.00    +0.000 A 
ATOM      5  C   UNL     1      -8.024   2.509 123.017  0.00  0.00    +0.000 A 
ATOM      6  C   UNL     1      -9.340   2.321 123.433  0.00  0.00    +0.000 A 
ATOM      7  C   UNL     1      -9.639   1.346 124.380  0.00  0.00    +0.000 A 
ATOM      8  C   UNL     1      -8.620   0.569 124.943  0.00  0.00    +0.000 A 
ATOM      9  C   UNL     1      -8.949  -0.471 125.972  0.00  0.00    +0.000 C 
ATOM     10  S   UNL     1      -9.076  -2.091 125.203  0.00  0.00    +0.000 S 
ATOM     11  C   UNL     1      -7.364  -2.470 124.808  0.00  0.00    +0.000 A 
ATOM     12  C   UNL     1      -7.225  -3.826 124.462  0.00  0.00    +0.000 A 
ATOM     13  C   UNL     1      -5.998  -4.362 124.095  0.00  0.00    +0.000 A 
ATOM     14  C   UNL     1      -4.879  -3.543 124.063  0.00  0.00    +0.000 A 
ATOM     15  C   UNL     1      -4.988  -2.194 124.406  0.00  0.00    +0.000 A 
ATOM     16  C   UNL     1      -6.222  -1.626 124.794  0.00  0.00    +0.000 A 
ENDROOT
BRANCH   1  17
ATOM     17  C   UNL     1      -5.296   1.888 126.215  0.00  0.00    +0.000 C 
BRANCH  17  18
ATOM     18  C   UNL     1      -4.159   2.336 127.143  0.00  0.00    +0.000 C 
BRANCH  18  20
ATOM     19  C   UNL     1      -3.600   4.679 127.147  0.00  0.00    +0.000 C 
ATOM     20  N   UNL     1      -3.317   3.384 126.525  0.00  0.00    +0.000 NA
ATOM     21  C   UNL     1      -1.885   3.090 126.648  0.00  0.00    +0.000 C 
ENDBRANCH  18  20
ENDBRANCH  17  18
ENDBRANCH   1  17
TORSDOF 3
ENDMDL
MODEL 6
REMARK VINA RESULT:      -6.6      2.152      2.840
REMARK  Name = Dosulepin
REMARK  5 active torsions:
REMARK  status: ('A' for Active; 'I' for Inactive)
REMARK    1  A    between atoms: C_1  and  N_2
REMARK    2  A    between atoms: N_2  and  C_3
REMARK    3  A    between atoms: N_2  and  C_4
REMARK    4  A    between atoms: C_4  and  C_5
REMARK    5  A    between atoms: C_5  and  C_6
REMARK                            x       y       z     vdW  Elec       q    Type
REMARK                         _______ _______ _______ _____ _____    ______ ____
ROOT
ATOM      1  C   UNL     1      -8.556   0.666 126.911  0.00  0.00    +0.000 C 
ATOM      2  C   UNL     1      -8.252   0.386 125.615  0.00  0.00    +0.000 C 
ATOM      3  C   UNL     1      -7.755   1.497 124.768  0.00  0.00    +0.000 A 
ATOM      4  C   UNL     1      -6.480   2.050 124.954  0.00  0.00    +0.000 A 
ATOM      5  C   UNL     1      -6.043   3.098 124.145  0.00  0.00    +0.000 A 
ATOM      6  C   UNL     1      -6.853   3.566 123.114  0.00  0.00    +0.000 A 
ATOM      7  C   UNL     1      -8.114   3.012 122.913  0.00  0.00    +0.000 A 
ATOM      8  C   UNL     1      -8.588   2.003 123.759  0.00  0.00    +0.000 A 
ATOM      9  C   UNL     1      -9.952   1.420 123.543  0.00  0.00    +0.000 C 
ATOM     10  S   UNL     1      -9.835  -0.112 122.609  0.00  0.00    +0.000 S 
ATOM     11  C   UNL     1      -9.118  -1.244 123.807  0.00  0.00    +0.000 A 
ATOM     12  C   UNL     1      -9.217  -2.572 123.352  0.00  0.00    +0.000 A 
ATOM     13  C   UNL     1      -8.715  -3.634 124.092  0.00  0.00    +0.000 A 
ATOM     14  C   UNL     1      -8.096  -3.385 125.308  0.00  0.00    +0.000 A 
ATOM     15  C   UNL     1      -7.988  -2.077 125.784  0.00  0.00    +0.000 A 
ATOM     16  C   UNL     1      -8.500  -0.980 125.057  0.00  0.00    +0.000 A 
ENDROOT
BRANCH   1  17
ATOM     17  C   UNL     1      -8.348   2.021 127.548  0.00  0.00    +0.000 C 
BRANCH  17  18
ATOM     18  C   UNL     1      -8.746   2.129 129.026  0.00  0.00    +0.000 C 
BRANCH  18  20
ATOM     19  C   UNL     1     -10.066   3.330 130.644  0.00  0.00    +0.000 C 
ATOM     20  N   UNL     1      -9.437   3.403 129.323  0.00  0.00    +0.000 NA
ATOM     21  C   UNL     1      -8.526   4.552 129.283  0.00  0.00    +0.000 C 
ENDBRANCH  18  20
ENDBRANCH  17  18
ENDBRANCH   1  17
TORSDOF 3
ENDMDL
MODEL 7
REMARK VINA RESULT:      -6.5      6.098      8.659
REMARK  Name = Dosulepin
REMARK  5 active torsions:
REMARK  status: ('A' for Active; 'I' for Inactive)
REMARK    1  A    between atoms: C_1  and  N_2
REMARK    2  A    between atoms: N_2  and  C_3
REMARK    3  A    between atoms: N_2  and  C_4
REMARK    4  A    between atoms: C_4  and  C_5
REMARK    5  A    between atoms: C_5  and  C_6
REMARK                            x       y       z     vdW  Elec       q    Type
REMARK                         _______ _______ _______ _____ _____    ______ ____
ROOT
ATOM      1  C   UNL     1      -6.904  -1.985 131.278  0.00  0.00    +0.000 C 
ATOM      2  C   UNL     1      -7.712  -1.410 130.346  0.00  0.00    +0.000 C 
ATOM      3  C   UNL     1      -7.947  -2.154 129.085  0.00  0.00    +0.000 A 
ATOM      4  C   UNL     1      -8.728  -3.319 129.052  0.00  0.00    +0.000 A 
ATOM      5  C   UNL     1      -8.926  -3.999 127.852  0.00  0.00    +0.000 A 
ATOM      6  C   UNL     1      -8.390  -3.495 126.670  0.00  0.00    +0.000 A 
ATOM      7  C   UNL     1      -7.627  -2.332 126.691  0.00  0.00    +0.000 A 
ATOM      8  C   UNL     1      -7.369  -1.676 127.900  0.00  0.00    +0.000 A 
ATOM      9  C   UNL     1      -6.536  -0.430 127.916  0.00  0.00    +0.000 C 
ATOM     10  S   UNL     1      -7.591   1.026 127.930  0.00  0.00    +0.000 S 
ATOM     11  C   UNL     1      -8.272   0.997 129.594  0.00  0.00    +0.000 A 
ATOM     12  C   UNL     1      -8.898   2.221 129.893  0.00  0.00    +0.000 A 
ATOM     13  C   UNL     1      -9.521   2.441 131.114  0.00  0.00    +0.000 A 
ATOM     14  C   UNL     1      -9.532   1.431 132.065  0.00  0.00    +0.000 A 
ATOM     15  C   UNL     1      -8.913   0.209 131.795  0.00  0.00    +0.000 A 
ATOM     16  C   UNL     1      -8.264  -0.037 130.566  0.00  0.00    +0.000 A 
ENDROOT
BRANCH   1  17
ATOM     17  C   UNL     1      -6.298  -3.361 131.129  0.00  0.00    +0.000 C 
BRANCH  17  18
ATOM     18  C   UNL     1      -4.830  -3.491 131.558  0.00  0.00    +0.000 C 
BRANCH  18  20
ATOM     19  C   UNL     1      -5.720  -5.019 133.193  0.00  0.00    +0.000 C 
ATOM     20  N   UNL     1      -4.698  -4.001 132.941  0.00  0.00    +0.000 NA
ATOM     21  C   UNL     1      -3.372  -4.570 133.199  0.00  0.00    +0.000 C 
ENDBRANCH  18  20
ENDBRANCH  17  18
ENDBRANCH   1  17
TORSDOF 3
ENDMDL
MODEL 8
REMARK VINA RESULT:      -6.3      2.915      5.089
REMARK  Name = Dosulepin
REMARK  5 active torsions:
REMARK  status: ('A' for Active; 'I' for Inactive)
REMARK    1  A    between atoms: C_1  and  N_2
REMARK    2  A    between atoms: N_2  and  C_3
REMARK    3  A    between atoms: N_2  and  C_4
REMARK    4  A    between atoms: C_4  and  C_5
REMARK    5  A    between atoms: C_5  and  C_6
REMARK                            x       y       z     vdW  Elec       q    Type
REMARK                         _______ _______ _______ _____ _____    ______ ____
ROOT
ATOM      1  C   UNL     1      -6.144   0.569 125.435  0.00  0.00    +0.000 C 
ATOM      2  C   UNL     1      -7.217  -0.046 126.002  0.00  0.00    +0.000 C 
ATOM      3  C   UNL     1      -7.630   0.398 127.355  0.00  0.00    +0.000 A 
ATOM      4  C   UNL     1      -8.226   1.649 127.570  0.00  0.00    +0.000 A 
ATOM      5  C   UNL     1      -8.598   2.040 128.855  0.00  0.00    +0.000 A 
ATOM      6  C   UNL     1      -8.425   1.166 129.925  0.00  0.00    +0.000 A 
ATOM      7  C   UNL     1      -7.849  -0.084 129.719  0.00  0.00    +0.000 A 
ATOM      8  C   UNL     1      -7.413  -0.461 128.443  0.00  0.00    +0.000 A 
ATOM      9  C   UNL     1      -6.783  -1.804 128.231  0.00  0.00    +0.000 C 
ATOM     10  S   UNL     1      -8.000  -2.975 127.614  0.00  0.00    +0.000 S 
ATOM     11  C   UNL     1      -8.268  -2.406 125.930  0.00  0.00    +0.000 A 
ATOM     12  C   UNL     1      -8.974  -3.371 125.188  0.00  0.00    +0.000 A 
ATOM     13  C   UNL     1      -9.323  -3.157 123.862  0.00  0.00    +0.000 A 
ATOM     14  C   UNL     1      -8.973  -1.964 123.248  0.00  0.00    +0.000 A 
ATOM     15  C   UNL     1      -8.268  -0.991 123.960  0.00  0.00    +0.000 A 
ATOM     16  C   UNL     1      -7.891  -1.187 125.307  0.00  0.00    +0.000 A 
ENDROOT
BRANCH   1  17
ATOM     17  C   UNL     1      -5.401   1.719 126.075  0.00  0.00    +0.000 C 
BRANCH  17  18
ATOM     18  C   UNL     1      -5.480   3.058 125.330  0.00  0.00    +0.000 C 
BRANCH  18  20
ATOM     19  C   UNL     1      -7.670   3.913 124.806  0.00  0.00    +0.000 C 
ATOM     20  N   UNL     1      -6.570   3.074 124.328  0.00  0.00    +0.000 NA
ATOM     21  C   UNL     1      -6.117   3.564 123.022  0.00  0.00    +0.000 C 
ENDBRANCH  18  20
ENDBRANCH  17  18
ENDBRANCH   1  17
TORSDOF 3
ENDMDL
MODEL 9
REMARK VINA RESULT:      -6.1      3.426      4.676
REMARK  Name = Dosulepin
REMARK  5 active torsions:
REMARK  status: ('A' for Active; 'I' for Inactive)
REMARK    1  A    between atoms: C_1  and  N_2
REMARK    2  A    between atoms: N_2  and  C_3
REMARK    3  A    between atoms: N_2  and  C_4
REMARK    4  A    between atoms: C_4  and  C_5
REMARK    5  A    between atoms: C_5  and  C_6
REMARK                            x       y       z     vdW  Elec       q    Type
REMARK                         _______ _______ _______ _____ _____    ______ ____
ROOT
ATOM      1  C   UNL     1      -7.994  -0.736 127.749  0.00  0.00    +0.000 C 
ATOM      2  C   UNL     1      -7.649  -0.494 126.455  0.00  0.00    +0.000 C 
ATOM      3  C   UNL     1      -6.776   0.672 126.181  0.00  0.00    +0.000 A 
ATOM      4  C   UNL     1      -5.423   0.681 126.550  0.00  0.00    +0.000 A 
ATOM      5  C   UNL     1      -4.628   1.795 126.283  0.00  0.00    +0.000 A 
ATOM      6  C   UNL     1      -5.164   2.886 125.603  0.00  0.00    +0.000 A 
ATOM      7  C   UNL     1      -6.502   2.879 125.220  0.00  0.00    +0.000 A 
ATOM      8  C   UNL     1      -7.325   1.792 125.539  0.00  0.00    +0.000 A 
ATOM      9  C   UNL     1      -8.768   1.798 125.134  0.00  0.00    +0.000 C 
ATOM     10  S   UNL     1      -8.991   0.875 123.607  0.00  0.00    +0.000 S 
ATOM     11  C   UNL     1      -8.747  -0.824 124.140  0.00  0.00    +0.000 A 
ATOM     12  C   UNL     1      -9.168  -1.721 123.141  0.00  0.00    +0.000 A 
ATOM     13  C   UNL     1      -9.064  -3.095 123.305  0.00  0.00    +0.000 A 
ATOM     14  C   UNL     1      -8.528  -3.603 124.479  0.00  0.00    +0.000 A 
ATOM     15  C   UNL     1      -8.107  -2.735 125.488  0.00  0.00    +0.000 A 
ATOM     16  C   UNL     1      -8.212  -1.333 125.352  0.00  0.00    +0.000 A 
ENDROOT
BRANCH   1  17
ATOM     17  C   UNL     1      -7.480   0.071 128.919  0.00  0.00    +0.000 C 
BRANCH  17  18
ATOM     18  C   UNL     1      -6.809  -0.736 130.039  0.00  0.00    +0.000 C 
BRANCH  18  20
ATOM     19  C   UNL     1      -7.420  -2.926 130.834  0.00  0.00    +0.000 C 
ATOM     20  N   UNL     1      -7.791  -1.510 130.831  0.00  0.00    +0.000 NA
ATOM     21  C   UNL     1      -7.891  -1.031 132.214  0.00  0.00    +0.000 C 
ENDBRANCH  18  20
ENDBRANCH  17  18
ENDBRANCH   1  17
TORSDOF 3
ENDMDL
