MODEL 1
REMARK VINA RESULT:      -8.8      0.000      0.000
REMARK  Name = Doxazosin
REMARK  5 active torsions:
REMARK  status: ('A' for Active; 'I' for Inactive)
REMARK    1  A    between atoms: C_1  and  O_2
REMARK    2  A    between atoms: O_2  and  C_3
REMARK    3  A    between atoms: C_4  and  O_5
REMARK    4  A    between atoms: O_5  and  C_6
REMARK    5  A    between atoms: C_22  and  C_24
REMARK                            x       y       z     vdW  Elec       q    Type
REMARK                         _______ _______ _______ _____ _____    ______ ____
ROOT
ATOM      1  C   UNL     1     -10.973   7.804 127.895  0.00  0.00    +0.000 A 
ATOM      2  C   UNL     1     -11.684   8.362 128.962  0.00  0.00    +0.000 A 
ATOM      3  C   UNL     1     -11.572   7.752 130.209  0.00  0.00    +0.000 A 
ATOM      4  C   UNL     1     -10.760   6.600 130.412  0.00  0.00    +0.000 A 
ATOM      5  C   UNL     1     -10.605   5.940 131.633  0.00  0.00    +0.000 A 
ATOM      6  N   UNL     1     -11.346   6.307 132.752  0.00  0.00    +0.000 N 
ATOM      7  N   UNL     1      -9.807   4.865 131.776  0.00  0.00    +0.000 NA
ATOM      8  C   UNL     1      -9.075   4.456 130.716  0.00  0.00    +0.000 A 
ATOM      9  N   UNL     1      -9.185   5.018 129.508  0.00  0.00    +0.000 NA
ATOM     10  C   UNL     1     -10.030   6.057 129.354  0.00  0.00    +0.000 A 
ATOM     11  C   UNL     1     -10.189   6.651 128.103  0.00  0.00    +0.000 A 
ATOM     12  N   UNL     1      -8.269   3.360 130.870  0.00  0.00    +0.000 N 
ATOM     13  C   UNL     1      -6.841   3.191 130.549  0.00  0.00    +0.000 C 
ATOM     14  C   UNL     1      -6.018   2.625 131.780  0.00  0.00    +0.000 C 
ATOM     15  N   UNL     1      -6.685   1.450 132.329  0.00  0.00    +0.000 N 
ATOM     16  C   UNL     1      -8.035   1.790 132.602  0.00  0.00    +0.000 C 
ATOM     17  C   UNL     1      -8.886   2.191 131.418  0.00  0.00    +0.000 C 
ATOM     18  C   UNL     1      -6.122   0.189 132.585  0.00  0.00    +0.000 C 
ATOM     19  O   UNL     1      -4.949  -0.021 132.295  0.00  0.00    +0.000 OA
ATOM     20  H   UNL     1     -11.801   7.204 132.814  0.00  0.00    +0.000 HD
ATOM     21  H   UNL     1     -11.089   5.845 133.613  0.00  0.00    +0.000 HD
ENDROOT
BRANCH  18  22
ATOM     22  C   UNL     1      -6.974  -1.016 133.292  0.00  0.00    +0.000 C 
ATOM     23  C   UNL     1      -6.295  -1.985 134.276  0.00  0.00    +0.000 C 
ATOM     24  O   UNL     1      -5.546  -3.049 133.670  0.00  0.00    +0.000 OA
ATOM     25  C   UNL     1      -6.162  -3.556 132.526  0.00  0.00    +0.000 A 
ATOM     26  C   UNL     1      -5.300  -4.331 131.722  0.00  0.00    +0.000 A 
ATOM     27  C   UNL     1      -5.540  -4.447 130.343  0.00  0.00    +0.000 A 
ATOM     28  C   UNL     1      -6.675  -3.860 129.774  0.00  0.00    +0.000 A 
ATOM     29  C   UNL     1      -7.543  -3.097 130.563  0.00  0.00    +0.000 A 
ATOM     30  C   UNL     1      -7.268  -2.903 131.924  0.00  0.00    +0.000 A 
ATOM     31  O   UNL     1      -7.861  -1.772 132.453  0.00  0.00    +0.000 OA
ENDBRANCH  18  22
BRANCH   1  33
ATOM     32  C   UNL     1     -11.955   7.559 125.747  0.00  0.00    +0.000 C 
ATOM     33  O   UNL     1     -11.029   8.239 126.592  0.00  0.00    +0.000 OA
ENDBRANCH   1  33
BRANCH   2  34
ATOM     34  O   UNL     1     -12.487   9.441 128.719  0.00  0.00    +0.000 OA
ATOM     35  C   UNL     1     -13.108  10.104 129.812  0.00  0.00    +0.000 C 
ENDBRANCH   2  34
TORSDOF 3
ENDMDL
MODEL 2
REMARK VINA RESULT:      -8.6      5.803      7.956
REMARK  Name = Doxazosin
REMARK  5 active torsions:
REMARK  status: ('A' for Active; 'I' for Inactive)
REMARK    1  A    between atoms: C_1  and  O_2
REMARK    2  A    between atoms: O_2  and  C_3
REMARK    3  A    between atoms: C_4  and  O_5
REMARK    4  A    between atoms: O_5  and  C_6
REMARK    5  A    between atoms: C_22  and  C_24
REMARK                            x       y       z     vdW  Elec       q    Type
REMARK                         _______ _______ _______ _____ _____    ______ ____
ROOT
ATOM      1  C   UNL     1      -3.777   5.932 131.071  0.00  0.00    +0.000 A 
ATOM      2  C   UNL     1      -2.556   6.124 130.418  0.00  0.00    +0.000 A 
ATOM      3  C   UNL     1      -2.369   5.495 129.189  0.00  0.00    +0.000 A 
ATOM      4  C   UNL     1      -3.379   4.683 128.598  0.00  0.00    +0.000 A 
ATOM      5  C   UNL     1      -3.257   4.025 127.373  0.00  0.00    +0.000 A 
ATOM      6  N   UNL     1      -2.056   4.023 126.671  0.00  0.00    +0.000 N 
ATOM      7  N   UNL     1      -4.252   3.285 126.849  0.00  0.00    +0.000 NA
ATOM      8  C   UNL     1      -5.437   3.240 127.498  0.00  0.00    +0.000 A 
ATOM      9  N   UNL     1      -5.627   3.822 128.687  0.00  0.00    +0.000 NA
ATOM     10  C   UNL     1      -4.608   4.512 129.238  0.00  0.00    +0.000 A 
ATOM     11  C   UNL     1      -4.762   5.110 130.487  0.00  0.00    +0.000 A 
ATOM     12  N   UNL     1      -6.442   2.483 126.959  0.00  0.00    +0.000 N 
ATOM     13  C   UNL     1      -7.842   2.846 126.673  0.00  0.00    +0.000 C 
ATOM     14  C   UNL     1      -8.250   2.506 125.180  0.00  0.00    +0.000 C 
ATOM     15  N   UNL     1      -7.875   1.132 124.859  0.00  0.00    +0.000 N 
ATOM     16  C   UNL     1      -6.502   0.961 125.171  0.00  0.00    +0.000 C 
ATOM     17  C   UNL     1      -6.108   1.134 126.621  0.00  0.00    +0.000 C 
ATOM     18  C   UNL     1      -8.691   0.130 124.312  0.00  0.00    +0.000 C 
ATOM     19  O   UNL     1      -9.875   0.362 124.096  0.00  0.00    +0.000 OA
ATOM     20  H   UNL     1      -1.333   4.699 126.858  0.00  0.00    +0.000 HD
ATOM     21  H   UNL     1      -2.094   3.614 125.748  0.00  0.00    +0.000 HD
ENDROOT
BRANCH  18  22
ATOM     22  C   UNL     1      -8.107  -1.348 123.919  0.00  0.00    +0.000 C 
ATOM     23  C   UNL     1      -9.063  -2.520 123.634  0.00  0.00    +0.000 C 
ATOM     24  O   UNL     1      -9.584  -3.182 124.796  0.00  0.00    +0.000 OA
ATOM     25  C   UNL     1      -8.639  -3.301 125.816  0.00  0.00    +0.000 A 
ATOM     26  C   UNL     1      -9.204  -3.609 127.071  0.00  0.00    +0.000 A 
ATOM     27  C   UNL     1      -8.542  -3.235 128.251  0.00  0.00    +0.000 A 
ATOM     28  C   UNL     1      -7.285  -2.625 128.190  0.00  0.00    +0.000 A 
ATOM     29  C   UNL     1      -6.709  -2.322 126.952  0.00  0.00    +0.000 A 
ATOM     30  C   UNL     1      -7.399  -2.614 125.766  0.00  0.00    +0.000 A 
ATOM     31  O   UNL     1      -7.001  -1.843 124.690  0.00  0.00    +0.000 OA
ENDBRANCH  18  22
BRANCH   1  33
ATOM     32  C   UNL     1      -5.293   5.915 132.900  0.00  0.00    +0.000 C 
ATOM     33  O   UNL     1      -4.094   6.422 132.316  0.00  0.00    +0.000 OA
ENDBRANCH   1  33
BRANCH   2  34
ATOM     34  O   UNL     1      -1.594   6.873 131.035  0.00  0.00    +0.000 OA
ATOM     35  C   UNL     1      -0.772   6.268 132.024  0.00  0.00    +0.000 C 
ENDBRANCH   2  34
TORSDOF 3
ENDMDL
MODEL 3
REMARK VINA RESULT:      -8.3      6.818     10.081
REMARK  Name = Doxazosin
REMARK  5 active torsions:
REMARK  status: ('A' for Active; 'I' for Inactive)
REMARK    1  A    between atoms: C_1  and  O_2
REMARK    2  A    between atoms: O_2  and  C_3
REMARK    3  A    between atoms: C_4  and  O_5
REMARK    4  A    between atoms: O_5  and  C_6
REMARK    5  A    between atoms: C_22  and  C_24
REMARK                            x       y       z     vdW  Elec       q    Type
REMARK                         _______ _______ _______ _____ _____    ______ ____
ROOT
ATOM      1  C   UNL     1      -6.316  -2.231 124.281  0.00  0.00    +0.000 A 
ATOM      2  C   UNL     1      -7.473  -1.718 123.687  0.00  0.00    +0.000 A 
ATOM      3  C   UNL     1      -7.827  -0.403 123.980  0.00  0.00    +0.000 A 
ATOM      4  C   UNL     1      -7.045   0.410 124.850  0.00  0.00    +0.000 A 
ATOM      5  C   UNL     1      -7.343   1.733 125.186  0.00  0.00    +0.000 A 
ATOM      6  N   UNL     1      -8.527   2.335 124.770  0.00  0.00    +0.000 N 
ATOM      7  N   UNL     1      -6.558   2.465 125.999  0.00  0.00    +0.000 NA
ATOM      8  C   UNL     1      -5.403   1.923 126.445  0.00  0.00    +0.000 A 
ATOM      9  N   UNL     1      -5.058   0.657 126.188  0.00  0.00    +0.000 NA
ATOM     10  C   UNL     1      -5.877  -0.093 125.423  0.00  0.00    +0.000 A 
ATOM     11  C   UNL     1      -5.561  -1.424 125.157  0.00  0.00    +0.000 A 
ATOM     12  N   UNL     1      -4.613   2.674 127.272  0.00  0.00    +0.000 N 
ATOM     13  C   UNL     1      -3.174   2.977 127.177  0.00  0.00    +0.000 C 
ATOM     14  C   UNL     1      -2.887   4.534 127.271  0.00  0.00    +0.000 C 
ATOM     15  N   UNL     1      -3.578   5.101 128.425  0.00  0.00    +0.000 N 
ATOM     16  C   UNL     1      -4.947   4.735 128.349  0.00  0.00    +0.000 C 
ATOM     17  C   UNL     1      -5.258   3.256 128.409  0.00  0.00    +0.000 C 
ATOM     18  C   UNL     1      -3.029   5.896 129.443  0.00  0.00    +0.000 C 
ATOM     19  O   UNL     1      -1.828   6.143 129.438  0.00  0.00    +0.000 OA
ATOM     20  H   UNL     1      -9.069   1.963 124.006  0.00  0.00    +0.000 HD
ATOM     21  H   UNL     1      -8.604   3.322 124.970  0.00  0.00    +0.000 HD
ENDROOT
BRANCH  18  22
ATOM     22  C   UNL     1      -3.949   6.541 130.634  0.00  0.00    +0.000 C 
ATOM     23  C   UNL     1      -4.159   8.063 130.727  0.00  0.00    +0.000 C 
ATOM     24  O   UNL     1      -3.086   8.793 131.341  0.00  0.00    +0.000 OA
ATOM     25  C   UNL     1      -2.522   8.112 132.420  0.00  0.00    +0.000 A 
ATOM     26  C   UNL     1      -1.263   8.620 132.807  0.00  0.00    +0.000 A 
ATOM     27  C   UNL     1      -0.335   7.784 133.448  0.00  0.00    +0.000 A 
ATOM     28  C   UNL     1      -0.679   6.468 133.773  0.00  0.00    +0.000 A 
ATOM     29  C   UNL     1      -1.928   5.955 133.404  0.00  0.00    +0.000 A 
ATOM     30  C   UNL     1      -2.831   6.754 132.689  0.00  0.00    +0.000 A 
ATOM     31  O   UNL     1      -3.756   6.029 131.961  0.00  0.00    +0.000 OA
ENDBRANCH  18  22
BRANCH   1  33
ATOM     32  C   UNL     1      -4.631  -3.691 123.462  0.00  0.00    +0.000 C 
ATOM     33  O   UNL     1      -5.868  -3.525 124.153  0.00  0.00    +0.000 OA
ENDBRANCH   1  33
BRANCH   2  34
ATOM     34  O   UNL     1      -8.221  -2.541 122.893  0.00  0.00    +0.000 OA
ATOM     35  C   UNL     1      -9.345  -3.209 123.450  0.00  0.00    +0.000 C 
ENDBRANCH   2  34
TORSDOF 3
ENDMDL
MODEL 4
REMARK VINA RESULT:      -8.2      5.316      8.041
REMARK  Name = Doxazosin
REMARK  5 active torsions:
REMARK  status: ('A' for Active; 'I' for Inactive)
REMARK    1  A    between atoms: C_1  and  O_2
REMARK    2  A    between atoms: O_2  and  C_3
REMARK    3  A    between atoms: C_4  and  O_5
REMARK    4  A    between atoms: O_5  and  C_6
REMARK    5  A    between atoms: C_22  and  C_24
REMARK                            x       y       z     vdW  Elec       q    Type
REMARK                         _______ _______ _______ _____ _____    ______ ____
ROOT
ATOM      1  C   UNL     1      -2.304   6.035 133.187  0.00  0.00    +0.000 A 
ATOM      2  C   UNL     1      -1.459   6.763 132.342  0.00  0.00    +0.000 A 
ATOM      3  C   UNL     1      -1.627   6.614 130.967  0.00  0.00    +0.000 A 
ATOM      4  C   UNL     1      -2.625   5.757 130.420  0.00  0.00    +0.000 A 
ATOM      5  C   UNL     1      -2.845   5.562 129.055  0.00  0.00    +0.000 A 
ATOM      6  N   UNL     1      -2.003   6.122 128.100  0.00  0.00    +0.000 N 
ATOM      7  N   UNL     1      -3.817   4.754 128.589  0.00  0.00    +0.000 NA
ATOM      8  C   UNL     1      -4.655   4.172 129.476  0.00  0.00    +0.000 A 
ATOM      9  N   UNL     1      -4.496   4.290 130.798  0.00  0.00    +0.000 NA
ATOM     10  C   UNL     1      -3.484   5.050 131.262  0.00  0.00    +0.000 A 
ATOM     11  C   UNL     1      -3.274   5.174 132.634  0.00  0.00    +0.000 A 
ATOM     12  N   UNL     1      -5.638   3.351 128.993  0.00  0.00    +0.000 N 
ATOM     13  C   UNL     1      -7.086   3.355 129.269  0.00  0.00    +0.000 C 
ATOM     14  C   UNL     1      -7.945   3.373 127.937  0.00  0.00    +0.000 C 
ATOM     15  N   UNL     1      -7.478   2.332 127.027  0.00  0.00    +0.000 N 
ATOM     16  C   UNL     1      -6.079   2.486 126.854  0.00  0.00    +0.000 C 
ATOM     17  C   UNL     1      -5.220   2.325 128.088  0.00  0.00    +0.000 C 
ATOM     18  C   UNL     1      -8.249   1.346 126.392  0.00  0.00    +0.000 C 
ATOM     19  O   UNL     1      -9.451   1.275 126.620  0.00  0.00    +0.000 OA
ATOM     20  H   UNL     1      -1.391   6.892 128.321  0.00  0.00    +0.000 HD
ATOM     21  H   UNL     1      -2.303   6.015 127.141  0.00  0.00    +0.000 HD
ENDROOT
BRANCH  18  22
ATOM     22  C   UNL     1      -7.599   0.293 125.319  0.00  0.00    +0.000 C 
ATOM     23  C   UNL     1      -8.469  -0.349 124.224  0.00  0.00    +0.000 C 
ATOM     24  O   UNL     1      -9.259  -1.470 124.646  0.00  0.00    +0.000 OA
ATOM     25  C   UNL     1      -8.585  -2.290 125.553  0.00  0.00    +0.000 A 
ATOM     26  C   UNL     1      -9.437  -3.173 126.249  0.00  0.00    +0.000 A 
ATOM     27  C   UNL     1      -9.073  -3.645 127.521  0.00  0.00    +0.000 A 
ATOM     28  C   UNL     1      -7.833  -3.303 128.070  0.00  0.00    +0.000 A 
ATOM     29  C   UNL     1      -6.975  -2.435 127.386  0.00  0.00    +0.000 A 
ATOM     30  C   UNL     1      -7.364  -1.890 126.154  0.00  0.00    +0.000 A 
ATOM     31  O   UNL     1      -6.715  -0.711 125.840  0.00  0.00    +0.000 OA
ENDBRANCH  18  22
BRANCH   1  33
ATOM     32  C   UNL     1      -3.464   5.883 135.253  0.00  0.00    +0.000 C 
ATOM     33  O   UNL     1      -2.225   6.015 134.559  0.00  0.00    +0.000 OA
ENDBRANCH   1  33
BRANCH   2  34
ATOM     34  O   UNL     1      -0.486   7.541 132.903  0.00  0.00    +0.000 OA
ATOM     35  C   UNL     1      -0.764   8.906 133.182  0.00  0.00    +0.000 C 
ENDBRANCH   2  34
TORSDOF 3
ENDMDL
MODEL 5
REMARK VINA RESULT:      -8.0      4.895      7.284
REMARK  Name = Doxazosin
REMARK  5 active torsions:
REMARK  status: ('A' for Active; 'I' for Inactive)
REMARK    1  A    between atoms: C_1  and  O_2
REMARK    2  A    between atoms: O_2  and  C_3
REMARK    3  A    between atoms: C_4  and  O_5
REMARK    4  A    between atoms: O_5  and  C_6
REMARK    5  A    between atoms: C_22  and  C_24
REMARK                            x       y       z     vdW  Elec       q    Type
REMARK                         _______ _______ _______ _____ _____    ______ ____
ROOT
ATOM      1  C   UNL     1      -5.810   5.040 136.585  0.00  0.00    +0.000 A 
ATOM      2  C   UNL     1      -6.910   5.903 136.603  0.00  0.00    +0.000 A 
ATOM      3  C   UNL     1      -7.830   5.808 135.561  0.00  0.00    +0.000 A 
ATOM      4  C   UNL     1      -7.674   4.865 134.505  0.00  0.00    +0.000 A 
ATOM      5  C   UNL     1      -8.556   4.717 133.433  0.00  0.00    +0.000 A 
ATOM      6  N   UNL     1      -9.626   5.589 133.252  0.00  0.00    +0.000 N 
ATOM      7  N   UNL     1      -8.374   3.794 132.470  0.00  0.00    +0.000 NA
ATOM      8  C   UNL     1      -7.340   2.931 132.587  0.00  0.00    +0.000 A 
ATOM      9  N   UNL     1      -6.438   3.021 133.571  0.00  0.00    +0.000 NA
ATOM     10  C   UNL     1      -6.590   3.986 134.500  0.00  0.00    +0.000 A 
ATOM     11  C   UNL     1      -5.655   4.125 135.524  0.00  0.00    +0.000 A 
ATOM     12  N   UNL     1      -7.160   1.998 131.603  0.00  0.00    +0.000 N 
ATOM     13  C   UNL     1      -6.982   0.539 131.712  0.00  0.00    +0.000 C 
ATOM     14  C   UNL     1      -7.994  -0.254 130.784  0.00  0.00    +0.000 C 
ATOM     15  N   UNL     1      -7.959   0.287 129.429  0.00  0.00    +0.000 N 
ATOM     16  C   UNL     1      -8.168   1.688 129.504  0.00  0.00    +0.000 C 
ATOM     17  C   UNL     1      -7.133   2.490 130.259  0.00  0.00    +0.000 C 
ATOM     18  C   UNL     1      -7.778  -0.421 128.231  0.00  0.00    +0.000 C 
ATOM     19  O   UNL     1      -7.581  -1.631 128.265  0.00  0.00    +0.000 OA
ATOM     20  H   UNL     1      -9.971   6.165 134.003  0.00  0.00    +0.000 HD
ATOM     21  H   UNL     1     -10.268   5.339 132.513  0.00  0.00    +0.000 HD
ENDROOT
BRANCH  18  22
ATOM     22  C   UNL     1      -7.853   0.311 126.768  0.00  0.00    +0.000 C 
ATOM     23  C   UNL     1      -9.202   0.501 126.053  0.00  0.00    +0.000 C 
ATOM     24  O   UNL     1      -9.692  -0.653 125.353  0.00  0.00    +0.000 OA
ATOM     25  C   UNL     1      -8.676  -1.368 124.719  0.00  0.00    +0.000 A 
ATOM     26  C   UNL     1      -9.061  -2.671 124.339  0.00  0.00    +0.000 A 
ATOM     27  C   UNL     1      -8.094  -3.682 124.215  0.00  0.00    +0.000 A 
ATOM     28  C   UNL     1      -6.739  -3.386 124.392  0.00  0.00    +0.000 A 
ATOM     29  C   UNL     1      -6.343  -2.095 124.760  0.00  0.00    +0.000 A 
ATOM     30  C   UNL     1      -7.306  -1.098 124.970  0.00  0.00    +0.000 A 
ATOM     31  O   UNL     1      -6.873  -0.074 125.792  0.00  0.00    +0.000 OA
ENDBRANCH  18  22
BRANCH   1  33
ATOM     32  C   UNL     1      -4.881   4.114 138.565  0.00  0.00    +0.000 C 
ATOM     33  O   UNL     1      -4.780   5.053 137.496  0.00  0.00    +0.000 OA
ENDBRANCH   1  33
BRANCH   2  34
ATOM     34  O   UNL     1      -7.002   6.825 137.608  0.00  0.00    +0.000 OA
ATOM     35  C   UNL     1      -7.878   6.575 138.700  0.00  0.00    +0.000 C 
ENDBRANCH   2  34
TORSDOF 3
ENDMDL
MODEL 6
REMARK VINA RESULT:      -7.9      2.515     10.854
REMARK  Name = Doxazosin
REMARK  5 active torsions:
REMARK  status: ('A' for Active; 'I' for Inactive)
REMARK    1  A    between atoms: C_1  and  O_2
REMARK    2  A    between atoms: O_2  and  C_3
REMARK    3  A    between atoms: C_4  and  O_5
REMARK    4  A    between atoms: O_5  and  C_6
REMARK    5  A    between atoms: C_22  and  C_24
REMARK                            x       y       z     vdW  Elec       q    Type
REMARK                         _______ _______ _______ _____ _____    ______ ____
ROOT
ATOM      1  C   UNL     1      -3.144  -0.995 133.848  0.00  0.00    +0.000 A 
ATOM      2  C   UNL     1      -3.387  -1.991 132.897  0.00  0.00    +0.000 A 
ATOM      3  C   UNL     1      -4.412  -1.779 131.978  0.00  0.00    +0.000 A 
ATOM      4  C   UNL     1      -5.196  -0.590 131.988  0.00  0.00    +0.000 A 
ATOM      5  C   UNL     1      -6.236  -0.314 131.098  0.00  0.00    +0.000 A 
ATOM      6  N   UNL     1      -6.672  -1.265 130.180  0.00  0.00    +0.000 N 
ATOM      7  N   UNL     1      -6.934   0.837 131.137  0.00  0.00    +0.000 NA
ATOM      8  C   UNL     1      -6.563   1.789 132.022  0.00  0.00    +0.000 A 
ATOM      9  N   UNL     1      -5.593   1.594 132.922  0.00  0.00    +0.000 NA
ATOM     10  C   UNL     1      -4.938   0.416 132.920  0.00  0.00    +0.000 A 
ATOM     11  C   UNL     1      -3.939   0.169 133.861  0.00  0.00    +0.000 A 
ATOM     12  N   UNL     1      -7.278   2.955 132.056  0.00  0.00    +0.000 N 
ATOM     13  C   UNL     1      -6.807   4.350 132.002  0.00  0.00    +0.000 C 
ATOM     14  C   UNL     1      -7.554   5.187 130.882  0.00  0.00    +0.000 C 
ATOM     15  N   UNL     1      -8.998   5.013 131.007  0.00  0.00    +0.000 N 
ATOM     16  C   UNL     1      -9.279   3.622 131.021  0.00  0.00    +0.000 C 
ATOM     17  C   UNL     1      -8.699   2.824 132.167  0.00  0.00    +0.000 C 
ATOM     18  C   UNL     1      -9.976   6.017 131.079  0.00  0.00    +0.000 C 
ATOM     19  O   UNL     1      -9.637   7.195 131.083  0.00  0.00    +0.000 OA
ATOM     20  H   UNL     1      -6.102  -2.055 129.927  0.00  0.00    +0.000 HD
ATOM     21  H   UNL     1      -7.354  -0.939 129.509  0.00  0.00    +0.000 HD
ENDROOT
BRANCH  18  22
ATOM     22  C   UNL     1     -11.575   5.670 131.127  0.00  0.00    +0.000 C 
ATOM     23  C   UNL     1     -12.272   5.010 129.925  0.00  0.00    +0.000 C 
ATOM     24  O   UNL     1     -12.632   5.901 128.859  0.00  0.00    +0.000 OA
ATOM     25  C   UNL     1     -13.090   7.135 129.323  0.00  0.00    +0.000 A 
ATOM     26  C   UNL     1     -13.105   8.136 128.329  0.00  0.00    +0.000 A 
ATOM     27  C   UNL     1     -12.993   9.488 128.691  0.00  0.00    +0.000 A 
ATOM     28  C   UNL     1     -12.942   9.854 130.040  0.00  0.00    +0.000 A 
ATOM     29  C   UNL     1     -12.935   8.871 131.036  0.00  0.00    +0.000 A 
ATOM     30  C   UNL     1     -12.961   7.514 130.684  0.00  0.00    +0.000 A 
ATOM     31  O   UNL     1     -12.449   6.679 131.659  0.00  0.00    +0.000 OA
ENDBRANCH  18  22
BRANCH   1  33
ATOM     32  C   UNL     1      -2.703  -1.592 136.103  0.00  0.00    +0.000 C 
ATOM     33  O   UNL     1      -2.221  -1.078 134.863  0.00  0.00    +0.000 OA
ENDBRANCH   1  33
BRANCH   2  34
ATOM     34  O   UNL     1      -2.644  -3.137 132.947  0.00  0.00    +0.000 OA
ATOM     35  C   UNL     1      -3.300  -4.380 133.159  0.00  0.00    +0.000 C 
ENDBRANCH   2  34
TORSDOF 3
ENDMDL
MODEL 7
REMARK VINA RESULT:      -7.9      2.596     10.916
REMARK  Name = Doxazosin
REMARK  5 active torsions:
REMARK  status: ('A' for Active; 'I' for Inactive)
REMARK    1  A    between atoms: C_1  and  O_2
REMARK    2  A    between atoms: O_2  and  C_3
REMARK    3  A    between atoms: C_4  and  O_5
REMARK    4  A    between atoms: O_5  and  C_6
REMARK    5  A    between atoms: C_22  and  C_24
REMARK                            x       y       z     vdW  Elec       q    Type
REMARK                         _______ _______ _______ _____ _____    ______ ____
ROOT
ATOM      1  C   UNL     1      -3.206  -3.001 133.623  0.00  0.00    +0.000 A 
ATOM      2  C   UNL     1      -4.198  -3.872 134.086  0.00  0.00    +0.000 A 
ATOM      3  C   UNL     1      -5.527  -3.489 133.926  0.00  0.00    +0.000 A 
ATOM      4  C   UNL     1      -5.885  -2.257 133.307  0.00  0.00    +0.000 A 
ATOM      5  C   UNL     1      -7.195  -1.813 133.115  0.00  0.00    +0.000 A 
ATOM      6  N   UNL     1      -8.279  -2.514 133.635  0.00  0.00    +0.000 N 
ATOM      7  N   UNL     1      -7.480  -0.647 132.505  0.00  0.00    +0.000 NA
ATOM      8  C   UNL     1      -6.463   0.082 131.995  0.00  0.00    +0.000 A 
ATOM      9  N   UNL     1      -5.181  -0.262 132.157  0.00  0.00    +0.000 NA
ATOM     10  C   UNL     1      -4.897  -1.399 132.822  0.00  0.00    +0.000 A 
ATOM     11  C   UNL     1      -3.571  -1.775 133.031  0.00  0.00    +0.000 A 
ATOM     12  N   UNL     1      -6.762   1.267 131.378  0.00  0.00    +0.000 N 
ATOM     13  C   UNL     1      -6.354   1.767 130.053  0.00  0.00    +0.000 C 
ATOM     14  C   UNL     1      -7.595   2.249 129.192  0.00  0.00    +0.000 C 
ATOM     15  N   UNL     1      -8.428   3.152 129.979  0.00  0.00    +0.000 N 
ATOM     16  C   UNL     1      -8.747   2.511 131.204  0.00  0.00    +0.000 C 
ATOM     17  C   UNL     1      -7.588   2.175 132.114  0.00  0.00    +0.000 C 
ATOM     18  C   UNL     1      -8.881   4.430 129.615  0.00  0.00    +0.000 C 
ATOM     19  O   UNL     1      -8.536   4.914 128.543  0.00  0.00    +0.000 OA
ATOM     20  H   UNL     1      -8.199  -3.478 133.915  0.00  0.00    +0.000 HD
ATOM     21  H   UNL     1      -9.189  -2.176 133.355  0.00  0.00    +0.000 HD
ENDROOT
BRANCH  18  22
ATOM     22  C   UNL     1      -9.891   5.297 130.567  0.00  0.00    +0.000 C 
ATOM     23  C   UNL     1     -11.357   4.866 130.756  0.00  0.00    +0.000 C 
ATOM     24  O   UNL     1     -12.247   5.241 129.695  0.00  0.00    +0.000 OA
ATOM     25  C   UNL     1     -11.968   6.508 129.181  0.00  0.00    +0.000 A 
ATOM     26  C   UNL     1     -12.572   6.751 127.930  0.00  0.00    +0.000 A 
ATOM     27  C   UNL     1     -11.997   7.672 127.039  0.00  0.00    +0.000 A 
ATOM     28  C   UNL     1     -10.869   8.406 127.416  0.00  0.00    +0.000 A 
ATOM     29  C   UNL     1     -10.265   8.182 128.658  0.00  0.00    +0.000 A 
ATOM     30  C   UNL     1     -10.780   7.204 129.522  0.00  0.00    +0.000 A 
ATOM     31  O   UNL     1      -9.855   6.726 130.431  0.00  0.00    +0.000 OA
ENDBRANCH  18  22
BRANCH   1  33
ATOM     32  C   UNL     1      -1.193  -2.329 134.688  0.00  0.00    +0.000 C 
ATOM     33  O   UNL     1      -1.852  -3.196 133.767  0.00  0.00    +0.000 OA
ENDBRANCH   1  33
BRANCH   2  34
ATOM     34  O   UNL     1      -3.815  -5.024 134.714  0.00  0.00    +0.000 OA
ATOM     35  C   UNL     1      -3.572  -6.190 133.937  0.00  0.00    +0.000 C 
ENDBRANCH   2  34
TORSDOF 3
ENDMDL
MODEL 8
REMARK VINA RESULT:      -7.8      7.188      9.802
REMARK  Name = Doxazosin
REMARK  5 active torsions:
REMARK  status: ('A' for Active; 'I' for Inactive)
REMARK    1  A    between atoms: C_1  and  O_2
REMARK    2  A    between atoms: O_2  and  C_3
REMARK    3  A    between atoms: C_4  and  O_5
REMARK    4  A    between atoms: O_5  and  C_6
REMARK    5  A    between atoms: C_22  and  C_24
REMARK                            x       y       z     vdW  Elec       q    Type
REMARK                         _______ _______ _______ _____ _____    ______ ____
ROOT
ATOM      1  C   UNL     1      -0.399  11.552 133.707  0.00  0.00    +0.000 A 
ATOM      2  C   UNL     1       0.539  10.739 134.352  0.00  0.00    +0.000 A 
ATOM      3  C   UNL     1       0.341   9.361 134.315  0.00  0.00    +0.000 A 
ATOM      4  C   UNL     1      -0.772   8.779 133.642  0.00  0.00    +0.000 A 
ATOM      5  C   UNL     1      -1.030   7.409 133.567  0.00  0.00    +0.000 A 
ATOM      6  N   UNL     1      -0.253   6.489 134.265  0.00  0.00    +0.000 N 
ATOM      7  N   UNL     1      -2.087   6.909 132.900  0.00  0.00    +0.000 NA
ATOM      8  C   UNL     1      -2.884   7.761 132.218  0.00  0.00    +0.000 A 
ATOM      9  N   UNL     1      -2.719   9.087 132.258  0.00  0.00    +0.000 NA
ATOM     10  C   UNL     1      -1.695   9.588 132.977  0.00  0.00    +0.000 A 
ATOM     11  C   UNL     1      -1.508  10.967 133.062  0.00  0.00    +0.000 A 
ATOM     12  N   UNL     1      -3.957   7.244 131.544  0.00  0.00    +0.000 N 
ATOM     13  C   UNL     1      -4.373   7.441 130.144  0.00  0.00    +0.000 C 
ATOM     14  C   UNL     1      -4.612   6.064 129.395  0.00  0.00    +0.000 C 
ATOM     15  N   UNL     1      -5.477   5.204 130.196  0.00  0.00    +0.000 N 
ATOM     16  C   UNL     1      -4.924   5.103 131.498  0.00  0.00    +0.000 C 
ATOM     17  C   UNL     1      -4.823   6.385 132.293  0.00  0.00    +0.000 C 
ATOM     18  C   UNL     1      -6.648   4.549 129.783  0.00  0.00    +0.000 C 
ATOM     19  O   UNL     1      -7.065   4.713 128.641  0.00  0.00    +0.000 OA
ATOM     20  H   UNL     1       0.662   6.726 134.613  0.00  0.00    +0.000 HD
ATOM     21  H   UNL     1      -0.448   5.518 134.065  0.00  0.00    +0.000 HD
ENDROOT
BRANCH  18  22
ATOM     22  C   UNL     1      -7.472   3.536 130.771  0.00  0.00    +0.000 C 
ATOM     23  C   UNL     1      -8.443   2.492 130.192  0.00  0.00    +0.000 C 
ATOM     24  O   UNL     1      -9.742   2.992 129.840  0.00  0.00    +0.000 OA
ATOM     25  C   UNL     1     -10.216   3.940 130.747  0.00  0.00    +0.000 A 
ATOM     26  C   UNL     1     -11.297   4.700 130.250  0.00  0.00    +0.000 A 
ATOM     27  C   UNL     1     -11.532   5.993 130.743  0.00  0.00    +0.000 A 
ATOM     28  C   UNL     1     -10.745   6.506 131.779  0.00  0.00    +0.000 A 
ATOM     29  C   UNL     1      -9.676   5.759 132.287  0.00  0.00    +0.000 A 
ATOM     30  C   UNL     1      -9.379   4.501 131.745  0.00  0.00    +0.000 A 
ATOM     31  O   UNL     1      -8.069   4.107 131.945  0.00  0.00    +0.000 OA
ENDBRANCH  18  22
BRANCH   1  33
ATOM     32  C   UNL     1      -1.277  13.556 134.632  0.00  0.00    +0.000 C 
ATOM     33  O   UNL     1      -0.389  12.927 133.710  0.00  0.00    +0.000 OA
ENDBRANCH   1  33
BRANCH   2  34
ATOM     34  O   UNL     1       1.568  11.336 135.024  0.00  0.00    +0.000 OA
ATOM     35  C   UNL     1       1.867  10.917 136.349  0.00  0.00    +0.000 C 
ENDBRANCH   2  34
TORSDOF 3
ENDMDL
MODEL 9
REMARK VINA RESULT:      -7.8      5.646      7.928
REMARK  Name = Doxazosin
REMARK  5 active torsions:
REMARK  status: ('A' for Active; 'I' for Inactive)
REMARK    1  A    between atoms: C_1  and  O_2
REMARK    2  A    between atoms: O_2  and  C_3
REMARK    3  A    between atoms: C_4  and  O_5
REMARK    4  A    between atoms: O_5  and  C_6
REMARK    5  A    between atoms: C_22  and  C_24
REMARK                            x       y       z     vdW  Elec       q    Type
REMARK                         _______ _______ _______ _____ _____    ______ ____
ROOT
ATOM      1  C   UNL     1      -2.527   7.617 133.923  0.00  0.00    +0.000 A 
ATOM      2  C   UNL     1      -2.278   8.772 133.174  0.00  0.00    +0.000 A 
ATOM      3  C   UNL     1      -2.781   8.828 131.876  0.00  0.00    +0.000 A 
ATOM      4  C   UNL     1      -3.533   7.757 131.315  0.00  0.00    +0.000 A 
ATOM      5  C   UNL     1      -4.065   7.748 130.023  0.00  0.00    +0.000 A 
ATOM      6  N   UNL     1      -3.792   8.773 129.123  0.00  0.00    +0.000 N 
ATOM      7  N   UNL     1      -4.787   6.716 129.547  0.00  0.00    +0.000 NA
ATOM      8  C   UNL     1      -5.068   5.685 130.376  0.00  0.00    +0.000 A 
ATOM      9  N   UNL     1      -4.577   5.608 131.617  0.00  0.00    +0.000 NA
ATOM     10  C   UNL     1      -3.804   6.615 132.070  0.00  0.00    +0.000 A 
ATOM     11  C   UNL     1      -3.254   6.555 133.349  0.00  0.00    +0.000 A 
ATOM     12  N   UNL     1      -5.801   4.640 129.883  0.00  0.00    +0.000 N 
ATOM     13  C   UNL     1      -7.008   3.997 130.430  0.00  0.00    +0.000 C 
ATOM     14  C   UNL     1      -8.173   3.910 129.358  0.00  0.00    +0.000 C 
ATOM     15  N   UNL     1      -7.665   3.344 128.113  0.00  0.00    +0.000 N 
ATOM     16  C   UNL     1      -6.525   4.088 127.717  0.00  0.00    +0.000 C 
ATOM     17  C   UNL     1      -5.340   4.065 128.655  0.00  0.00    +0.000 C 
ATOM     18  C   UNL     1      -8.196   2.266 127.386  0.00  0.00    +0.000 C 
ATOM     19  O   UNL     1      -9.174   1.666 127.818  0.00  0.00    +0.000 OA
ATOM     20  H   UNL     1      -3.450   9.669 129.430  0.00  0.00    +0.000 HD
ATOM     21  H   UNL     1      -4.305   8.734 128.253  0.00  0.00    +0.000 HD
ENDROOT
BRANCH  18  22
ATOM     22  C   UNL     1      -7.569   1.795 125.949  0.00  0.00    +0.000 C 
ATOM     23  C   UNL     1      -8.479   1.590 124.724  0.00  0.00    +0.000 C 
ATOM     24  O   UNL     1      -9.176   0.336 124.682  0.00  0.00    +0.000 OA
ATOM     25  C   UNL     1      -8.398  -0.727 125.143  0.00  0.00    +0.000 A 
ATOM     26  C   UNL     1      -9.151  -1.880 125.450  0.00  0.00    +0.000 A 
ATOM     27  C   UNL     1      -8.673  -2.799 126.399  0.00  0.00    +0.000 A 
ATOM     28  C   UNL     1      -7.417  -2.616 126.986  0.00  0.00    +0.000 A 
ATOM     29  C   UNL     1      -6.657  -1.481 126.683  0.00  0.00    +0.000 A 
ATOM     30  C   UNL     1      -7.160  -0.514 125.801  0.00  0.00    +0.000 A 
ATOM     31  O   UNL     1      -6.598   0.737 125.972  0.00  0.00    +0.000 OA
ENDBRANCH  18  22
BRANCH   1  33
ATOM     32  C   UNL     1      -3.022   7.087 136.184  0.00  0.00    +0.000 C 
ATOM     33  O   UNL     1      -2.044   7.375 135.186  0.00  0.00    +0.000 OA
ENDBRANCH   1  33
BRANCH   2  34
ATOM     34  O   UNL     1      -1.516   9.760 133.730  0.00  0.00    +0.000 OA
ATOM     35  C   UNL     1      -0.139   9.850 133.390  0.00  0.00    +0.000 C 
ENDBRANCH   2  34
TORSDOF 3
ENDMDL
