MODEL 1
REMARK VINA RESULT:      -8.1      0.000      0.000
REMARK  Name = Doxapram
REMARK  7 active torsions:
REMARK  status: ('A' for Active; 'I' for Inactive)
REMARK    1  A    between atoms: C_1  and  C_2
REMARK    2  A    between atoms: C_2  and  N_3
REMARK    3  A    between atoms: C_5  and  C_6
REMARK    4  A    between atoms: C_6  and  C_7
REMARK    5  A    between atoms: C_7  and  N_8
REMARK    6  A    between atoms: C_14  and  C_17
REMARK    7  A    between atoms: C_14  and  C_23
REMARK                            x       y       z     vdW  Elec       q    Type
REMARK                         _______ _______ _______ _____ _____    ______ ____
ROOT
ATOM      1  N   UNL     1      -9.154   0.738 125.013  0.00  0.00    +0.000 N 
ATOM      2  C   UNL     1      -8.472   1.351 126.122  0.00  0.00    +0.000 C 
ATOM      3  C   UNL     1      -7.149   0.581 126.165  0.00  0.00    +0.000 C 
ATOM      4  C   UNL     1      -7.526  -0.866 125.649  0.00  0.00    +0.000 C 
ATOM      5  C   UNL     1      -8.676  -0.524 124.708  0.00  0.00    +0.000 C 
ATOM      6  O   UNL     1      -9.107  -1.248 123.805  0.00  0.00    +0.000 OA
ENDROOT
BRANCH   4   7
ATOM      7  C   UNL     1      -8.070  -1.714 126.823  0.00  0.00    +0.000 A 
ATOM      8  C   UNL     1      -7.696  -1.520 128.166  0.00  0.00    +0.000 A 
ATOM      9  C   UNL     1      -7.915  -2.514 129.112  0.00  0.00    +0.000 A 
ATOM     10  C   UNL     1      -8.584  -3.675 128.749  0.00  0.00    +0.000 A 
ATOM     11  C   UNL     1      -9.034  -3.850 127.444  0.00  0.00    +0.000 A 
ATOM     12  C   UNL     1      -8.816  -2.860 126.497  0.00  0.00    +0.000 A 
ENDBRANCH   4   7
BRANCH   4  13
ATOM     13  C   UNL     1      -6.416  -1.635 124.849  0.00  0.00    +0.000 A 
ATOM     14  C   UNL     1      -6.336  -1.556 123.443  0.00  0.00    +0.000 A 
ATOM     15  C   UNL     1      -5.598  -2.466 122.692  0.00  0.00    +0.000 A 
ATOM     16  C   UNL     1      -4.920  -3.496 123.324  0.00  0.00    +0.000 A 
ATOM     17  C   UNL     1      -4.914  -3.560 124.713  0.00  0.00    +0.000 A 
ATOM     18  C   UNL     1      -5.574  -2.584 125.473  0.00  0.00    +0.000 A 
ENDBRANCH   4  13
BRANCH   1  20
ATOM     19  C   UNL     1      -9.701   1.981 122.993  0.00  0.00    +0.000 C 
ATOM     20  C   UNL     1     -10.233   1.346 124.272  0.00  0.00    +0.000 C 
ENDBRANCH   1  20
BRANCH   3  21
ATOM     21  C   UNL     1      -6.113   1.332 125.359  0.00  0.00    +0.000 C 
BRANCH  21  22
ATOM     22  C   UNL     1      -4.967   1.808 126.257  0.00  0.00    +0.000 C 
BRANCH  22  23
ATOM     23  N   UNL     1      -5.054   3.246 126.544  0.00  0.00    +0.000 NA
ATOM     24  C   UNL     1      -3.845   3.911 126.009  0.00  0.00    +0.000 C 
ATOM     25  C   UNL     1      -2.571   3.367 126.680  0.00  0.00    +0.000 C 
ATOM     26  O   UNL     1      -2.653   3.451 128.118  0.00  0.00    +0.000 OA
ATOM     27  C   UNL     1      -3.845   2.836 128.631  0.00  0.00    +0.000 C 
ATOM     28  C   UNL     1      -5.095   3.463 127.997  0.00  0.00    +0.000 C 
ENDBRANCH  22  23
ENDBRANCH  21  22
ENDBRANCH   3  21
TORSDOF 6
ENDMDL
MODEL 2
REMARK VINA RESULT:      -8.1      0.887      1.643
REMARK  Name = Doxapram
REMARK  7 active torsions:
REMARK  status: ('A' for Active; 'I' for Inactive)
REMARK    1  A    between atoms: C_1  and  C_2
REMARK    2  A    between atoms: C_2  and  N_3
REMARK    3  A    between atoms: C_5  and  C_6
REMARK    4  A    between atoms: C_6  and  C_7
REMARK    5  A    between atoms: C_7  and  N_8
REMARK    6  A    between atoms: C_14  and  C_17
REMARK    7  A    between atoms: C_14  and  C_23
REMARK                            x       y       z     vdW  Elec       q    Type
REMARK                         _______ _______ _______ _____ _____    ______ ____
ROOT
ATOM      1  N   UNL     1      -9.102   0.595 125.140  0.00  0.00    +0.000 N 
ATOM      2  C   UNL     1      -8.234   1.122 126.159  0.00  0.00    +0.000 C 
ATOM      3  C   UNL     1      -7.026   0.184 126.083  0.00  0.00    +0.000 C 
ATOM      4  C   UNL     1      -7.639  -1.205 125.639  0.00  0.00    +0.000 C 
ATOM      5  C   UNL     1      -8.827  -0.721 124.814  0.00  0.00    +0.000 C 
ATOM      6  O   UNL     1      -9.441  -1.389 123.976  0.00  0.00    +0.000 OA
ENDROOT
BRANCH   4   7
ATOM      7  C   UNL     1      -8.164  -1.964 126.881  0.00  0.00    +0.000 A 
ATOM      8  C   UNL     1      -7.748  -1.692 128.198  0.00  0.00    +0.000 A 
ATOM      9  C   UNL     1      -7.956  -2.618 129.211  0.00  0.00    +0.000 A 
ATOM     10  C   UNL     1      -8.656  -3.787 128.944  0.00  0.00    +0.000 A 
ATOM     11  C   UNL     1      -9.146  -4.037 127.666  0.00  0.00    +0.000 A 
ATOM     12  C   UNL     1      -8.938  -3.115 126.651  0.00  0.00    +0.000 A 
ENDBRANCH   4   7
BRANCH   4  13
ATOM     13  C   UNL     1      -6.729  -2.119 124.746  0.00  0.00    +0.000 A 
ATOM     14  C   UNL     1      -5.734  -2.942 125.312  0.00  0.00    +0.000 A 
ATOM     15  C   UNL     1      -4.709  -3.495 124.550  0.00  0.00    +0.000 A 
ATOM     16  C   UNL     1      -4.641  -3.235 123.190  0.00  0.00    +0.000 A 
ATOM     17  C   UNL     1      -5.647  -2.492 122.585  0.00  0.00    +0.000 A 
ATOM     18  C   UNL     1      -6.733  -2.019 123.335  0.00  0.00    +0.000 A 
ENDBRANCH   4  13
BRANCH   1  20
ATOM     19  C   UNL     1      -9.679   1.917 123.178  0.00  0.00    +0.000 C 
ATOM     20  C   UNL     1     -10.164   1.334 124.500  0.00  0.00    +0.000 C 
ENDBRANCH   1  20
BRANCH   3  21
ATOM     21  C   UNL     1      -5.991   0.786 125.159  0.00  0.00    +0.000 C 
BRANCH  21  22
ATOM     22  C   UNL     1      -5.802   2.278 125.454  0.00  0.00    +0.000 C 
BRANCH  22  23
ATOM     23  N   UNL     1      -4.602   2.530 126.262  0.00  0.00    +0.000 NA
ATOM     24  C   UNL     1      -4.972   2.469 127.694  0.00  0.00    +0.000 C 
ATOM     25  C   UNL     1      -6.017   3.545 128.042  0.00  0.00    +0.000 C 
ATOM     26  O   UNL     1      -5.576   4.859 127.645  0.00  0.00    +0.000 OA
ATOM     27  C   UNL     1      -5.184   4.907 126.264  0.00  0.00    +0.000 C 
ATOM     28  C   UNL     1      -4.083   3.875 125.977  0.00  0.00    +0.000 C 
ENDBRANCH  22  23
ENDBRANCH  21  22
ENDBRANCH   3  21
TORSDOF 6
ENDMDL
MODEL 3
REMARK VINA RESULT:      -7.4      2.251      3.369
REMARK  Name = Doxapram
REMARK  7 active torsions:
REMARK  status: ('A' for Active; 'I' for Inactive)
REMARK    1  A    between atoms: C_1  and  C_2
REMARK    2  A    between atoms: C_2  and  N_3
REMARK    3  A    between atoms: C_5  and  C_6
REMARK    4  A    between atoms: C_6  and  C_7
REMARK    5  A    between atoms: C_7  and  N_8
REMARK    6  A    between atoms: C_14  and  C_17
REMARK    7  A    between atoms: C_14  and  C_23
REMARK                            x       y       z     vdW  Elec       q    Type
REMARK                         _______ _______ _______ _____ _____    ______ ____
ROOT
ATOM      1  N   UNL     1      -7.688   0.739 127.656  0.00  0.00    +0.000 N 
ATOM      2  C   UNL     1      -6.319   0.964 128.039  0.00  0.00    +0.000 C 
ATOM      3  C   UNL     1      -5.546   0.138 127.007  0.00  0.00    +0.000 C 
ATOM      4  C   UNL     1      -6.508  -1.072 126.677  0.00  0.00    +0.000 C 
ATOM      5  C   UNL     1      -7.862  -0.406 126.899  0.00  0.00    +0.000 C 
ATOM      6  O   UNL     1      -8.944  -0.811 126.461  0.00  0.00    +0.000 OA
ENDROOT
BRANCH   4   7
ATOM      7  C   UNL     1      -6.319  -2.191 127.729  0.00  0.00    +0.000 A 
ATOM      8  C   UNL     1      -7.385  -2.853 128.367  0.00  0.00    +0.000 A 
ATOM      9  C   UNL     1      -7.175  -3.567 129.540  0.00  0.00    +0.000 A 
ATOM     10  C   UNL     1      -5.887  -3.701 130.043  0.00  0.00    +0.000 A 
ATOM     11  C   UNL     1      -4.809  -3.123 129.381  0.00  0.00    +0.000 A 
ATOM     12  C   UNL     1      -5.016  -2.408 128.210  0.00  0.00    +0.000 A 
ENDBRANCH   4   7
BRANCH   4  13
ATOM     13  C   UNL     1      -6.445  -1.640 125.215  0.00  0.00    +0.000 A 
ATOM     14  C   UNL     1      -5.547  -2.668 124.864  0.00  0.00    +0.000 A 
ATOM     15  C   UNL     1      -5.231  -2.955 123.539  0.00  0.00    +0.000 A 
ATOM     16  C   UNL     1      -5.802  -2.213 122.517  0.00  0.00    +0.000 A 
ATOM     17  C   UNL     1      -6.749  -1.243 122.821  0.00  0.00    +0.000 A 
ATOM     18  C   UNL     1      -7.141  -1.023 124.149  0.00  0.00    +0.000 A 
ENDBRANCH   4  13
BRANCH   1  20
ATOM     19  C   UNL     1      -8.413   2.492 129.182  0.00  0.00    +0.000 C 
ATOM     20  C   UNL     1      -8.793   1.597 128.008  0.00  0.00    +0.000 C 
ENDBRANCH   1  20
BRANCH   3  21
ATOM     21  C   UNL     1      -5.166   1.030 125.845  0.00  0.00    +0.000 C 
BRANCH  21  22
ATOM     22  C   UNL     1      -5.741   2.438 126.031  0.00  0.00    +0.000 C 
BRANCH  22  23
ATOM     23  N   UNL     1      -5.817   3.171 124.760  0.00  0.00    +0.000 NA
ATOM     24  C   UNL     1      -6.208   4.571 125.043  0.00  0.00    +0.000 C 
ATOM     25  C   UNL     1      -7.591   4.635 125.714  0.00  0.00    +0.000 C 
ATOM     26  O   UNL     1      -8.588   3.932 124.943  0.00  0.00    +0.000 OA
ATOM     27  C   UNL     1      -8.190   2.585 124.641  0.00  0.00    +0.000 C 
ATOM     28  C   UNL     1      -6.845   2.570 123.899  0.00  0.00    +0.000 C 
ENDBRANCH  22  23
ENDBRANCH  21  22
ENDBRANCH   3  21
TORSDOF 6
ENDMDL
MODEL 4
REMARK VINA RESULT:      -7.4      1.917      2.748
REMARK  Name = Doxapram
REMARK  7 active torsions:
REMARK  status: ('A' for Active; 'I' for Inactive)
REMARK    1  A    between atoms: C_1  and  C_2
REMARK    2  A    between atoms: C_2  and  N_3
REMARK    3  A    between atoms: C_5  and  C_6
REMARK    4  A    between atoms: C_6  and  C_7
REMARK    5  A    between atoms: C_7  and  N_8
REMARK    6  A    between atoms: C_14  and  C_17
REMARK    7  A    between atoms: C_14  and  C_23
REMARK                            x       y       z     vdW  Elec       q    Type
REMARK                         _______ _______ _______ _____ _____    ______ ____
ROOT
ATOM      1  N   UNL     1      -7.599   0.996 127.903  0.00  0.00    +0.000 N 
ATOM      2  C   UNL     1      -6.308   1.028 128.536  0.00  0.00    +0.000 C 
ATOM      3  C   UNL     1      -5.431   0.264 127.540  0.00  0.00    +0.000 C 
ATOM      4  C   UNL     1      -6.413  -0.790 126.888  0.00  0.00    +0.000 C 
ATOM      5  C   UNL     1      -7.727  -0.021 126.974  0.00  0.00    +0.000 C 
ATOM      6  O   UNL     1      -8.742  -0.254 126.310  0.00  0.00    +0.000 OA
ENDROOT
BRANCH   4   7
ATOM      7  C   UNL     1      -6.505  -2.046 127.787  0.00  0.00    +0.000 A 
ATOM      8  C   UNL     1      -7.712  -2.699 128.097  0.00  0.00    +0.000 A 
ATOM      9  C   UNL     1      -7.789  -3.571 129.176  0.00  0.00    +0.000 A 
ATOM     10  C   UNL     1      -6.644  -3.868 129.904  0.00  0.00    +0.000 A 
ATOM     11  C   UNL     1      -5.423  -3.295 129.562  0.00  0.00    +0.000 A 
ATOM     12  C   UNL     1      -5.345  -2.422 128.486  0.00  0.00    +0.000 A 
ENDBRANCH   4   7
BRANCH   4  13
ATOM     13  C   UNL     1      -6.136  -1.173 125.391  0.00  0.00    +0.000 A 
ATOM     14  C   UNL     1      -6.639  -0.394 124.328  0.00  0.00    +0.000 A 
ATOM     15  C   UNL     1      -6.700  -0.875 123.023  0.00  0.00    +0.000 A 
ATOM     16  C   UNL     1      -6.266  -2.160 122.739  0.00  0.00    +0.000 A 
ATOM     17  C   UNL     1      -5.694  -2.928 123.746  0.00  0.00    +0.000 A 
ATOM     18  C   UNL     1      -5.540  -2.406 125.039  0.00  0.00    +0.000 A 
ENDBRANCH   4  13
BRANCH   1  20
ATOM     19  C   UNL     1      -8.712   2.246 129.671  0.00  0.00    +0.000 C 
ATOM     20  C   UNL     1      -8.678   1.912 128.185  0.00  0.00    +0.000 C 
ENDBRANCH   1  20
BRANCH   3  21
ATOM     21  C   UNL     1      -4.781   1.250 126.596  0.00  0.00    +0.000 C 
BRANCH  21  22
ATOM     22  C   UNL     1      -4.210   2.445 127.366  0.00  0.00    +0.000 C 
BRANCH  22  23
ATOM     23  N   UNL     1      -3.397   3.314 126.506  0.00  0.00    +0.000 NA
ATOM     24  C   UNL     1      -2.709   4.313 127.355  0.00  0.00    +0.000 C 
ATOM     25  C   UNL     1      -3.723   5.195 128.106  0.00  0.00    +0.000 C 
ATOM     26  O   UNL     1      -4.667   5.803 127.201  0.00  0.00    +0.000 OA
ATOM     27  C   UNL     1      -5.308   4.836 126.353  0.00  0.00    +0.000 C 
ATOM     28  C   UNL     1      -4.265   4.033 125.562  0.00  0.00    +0.000 C 
ENDBRANCH  22  23
ENDBRANCH  21  22
ENDBRANCH   3  21
TORSDOF 6
ENDMDL
MODEL 5
REMARK VINA RESULT:      -7.3      2.338      4.887
REMARK  Name = Doxapram
REMARK  7 active torsions:
REMARK  status: ('A' for Active; 'I' for Inactive)
REMARK    1  A    between atoms: C_1  and  C_2
REMARK    2  A    between atoms: C_2  and  N_3
REMARK    3  A    between atoms: C_5  and  C_6
REMARK    4  A    between atoms: C_6  and  C_7
REMARK    5  A    between atoms: C_7  and  N_8
REMARK    6  A    between atoms: C_14  and  C_17
REMARK    7  A    between atoms: C_14  and  C_23
REMARK                            x       y       z     vdW  Elec       q    Type
REMARK                         _______ _______ _______ _____ _____    ______ ____
ROOT
ATOM      1  N   UNL     1      -5.522   1.260 127.219  0.00  0.00    +0.000 N 
ATOM      2  C   UNL     1      -6.399   1.907 126.280  0.00  0.00    +0.000 C 
ATOM      3  C   UNL     1      -7.572   0.925 126.192  0.00  0.00    +0.000 C 
ATOM      4  C   UNL     1      -6.910  -0.492 126.425  0.00  0.00    +0.000 C 
ATOM      5  C   UNL     1      -5.749  -0.099 127.333  0.00  0.00    +0.000 C 
ATOM      6  O   UNL     1      -5.119  -0.867 128.068  0.00  0.00    +0.000 OA
ENDROOT
BRANCH   4   7
ATOM      7  C   UNL     1      -6.345  -1.030 125.089  0.00  0.00    +0.000 A 
ATOM      8  C   UNL     1      -6.826  -0.643 123.824  0.00  0.00    +0.000 A 
ATOM      9  C   UNL     1      -6.552  -1.408 122.698  0.00  0.00    +0.000 A 
ATOM     10  C   UNL     1      -5.724  -2.519 122.805  0.00  0.00    +0.000 A 
ATOM     11  C   UNL     1      -5.172  -2.870 124.032  0.00  0.00    +0.000 A 
ATOM     12  C   UNL     1      -5.446  -2.109 125.159  0.00  0.00    +0.000 A 
ENDBRANCH   4   7
BRANCH   4  13
ATOM     13  C   UNL     1      -7.793  -1.566 127.152  0.00  0.00    +0.000 A 
ATOM     14  C   UNL     1      -7.620  -1.855 128.521  0.00  0.00    +0.000 A 
ATOM     15  C   UNL     1      -8.137  -3.009 129.105  0.00  0.00    +0.000 A 
ATOM     16  C   UNL     1      -8.841  -3.919 128.333  0.00  0.00    +0.000 A 
ATOM     17  C   UNL     1      -9.096  -3.630 126.997  0.00  0.00    +0.000 A 
ATOM     18  C   UNL     1      -8.662  -2.421 126.435  0.00  0.00    +0.000 A 
ENDBRANCH   4  13
BRANCH   1  20
ATOM     19  C   UNL     1      -3.600   2.746 127.058  0.00  0.00    +0.000 C 
ATOM     20  C   UNL     1      -4.495   1.929 127.981  0.00  0.00    +0.000 C 
ENDBRANCH   1  20
BRANCH   3  21
ATOM     21  C   UNL     1      -8.638   1.339 127.182  0.00  0.00    +0.000 C 
BRANCH  21  22
ATOM     22  C   UNL     1      -8.238   2.631 127.903  0.00  0.00    +0.000 C 
BRANCH  22  23
ATOM     23  N   UNL     1      -9.061   2.871 129.095  0.00  0.00    +0.000 NA
ATOM     24  C   UNL     1      -8.802   4.244 129.583  0.00  0.00    +0.000 C 
ATOM     25  C   UNL     1      -7.325   4.422 129.978  0.00  0.00    +0.000 C 
ATOM     26  O   UNL     1      -6.905   3.417 130.923  0.00  0.00    +0.000 OA
ATOM     27  C   UNL     1      -7.190   2.086 130.463  0.00  0.00    +0.000 C 
ATOM     28  C   UNL     1      -8.687   1.926 130.158  0.00  0.00    +0.000 C 
ENDBRANCH  22  23
ENDBRANCH  21  22
ENDBRANCH   3  21
TORSDOF 6
ENDMDL
MODEL 6
REMARK VINA RESULT:      -7.3      6.926     10.423
REMARK  Name = Doxapram
REMARK  7 active torsions:
REMARK  status: ('A' for Active; 'I' for Inactive)
REMARK    1  A    between atoms: C_1  and  C_2
REMARK    2  A    between atoms: C_2  and  N_3
REMARK    3  A    between atoms: C_5  and  C_6
REMARK    4  A    between atoms: C_6  and  C_7
REMARK    5  A    between atoms: C_7  and  N_8
REMARK    6  A    between atoms: C_14  and  C_17
REMARK    7  A    between atoms: C_14  and  C_23
REMARK                            x       y       z     vdW  Elec       q    Type
REMARK                         _______ _______ _______ _____ _____    ______ ____
ROOT
ATOM      1  N   UNL     1      -4.705   4.793 133.549  0.00  0.00    +0.000 N 
ATOM      2  C   UNL     1      -5.372   6.058 133.395  0.00  0.00    +0.000 C 
ATOM      3  C   UNL     1      -4.868   6.536 132.031  0.00  0.00    +0.000 C 
ATOM      4  C   UNL     1      -3.408   5.938 131.926  0.00  0.00    +0.000 C 
ATOM      5  C   UNL     1      -3.577   4.671 132.757  0.00  0.00    +0.000 C 
ATOM      6  O   UNL     1      -2.837   3.682 132.722  0.00  0.00    +0.000 OA
ENDROOT
BRANCH   4   7
ATOM      7  C   UNL     1      -2.405   6.877 132.637  0.00  0.00    +0.000 A 
ATOM      8  C   UNL     1      -2.617   8.258 132.812  0.00  0.00    +0.000 A 
ATOM      9  C   UNL     1      -1.558   9.103 133.114  0.00  0.00    +0.000 A 
ATOM     10  C   UNL     1      -0.292   8.573 133.329  0.00  0.00    +0.000 A 
ATOM     11  C   UNL     1      -0.080   7.201 133.241  0.00  0.00    +0.000 A 
ATOM     12  C   UNL     1      -1.136   6.354 132.938  0.00  0.00    +0.000 A 
ENDBRANCH   4   7
BRANCH   4  13
ATOM     13  C   UNL     1      -2.912   5.549 130.488  0.00  0.00    +0.000 A 
ATOM     14  C   UNL     1      -2.385   6.515 129.606  0.00  0.00    +0.000 A 
ATOM     15  C   UNL     1      -2.254   6.277 128.241  0.00  0.00    +0.000 A 
ATOM     16  C   UNL     1      -2.656   5.062 127.709  0.00  0.00    +0.000 A 
ATOM     17  C   UNL     1      -3.108   4.059 128.558  0.00  0.00    +0.000 A 
ATOM     18  C   UNL     1      -3.145   4.264 129.945  0.00  0.00    +0.000 A 
ENDBRANCH   4  13
BRANCH   1  20
ATOM     19  C   UNL     1      -6.658   3.686 134.489  0.00  0.00    +0.000 C 
ATOM     20  C   UNL     1      -5.136   3.736 134.432  0.00  0.00    +0.000 C 
ENDBRANCH   1  20
BRANCH   3  21
ATOM     21  C   UNL     1      -5.848   6.106 130.963  0.00  0.00    +0.000 C 
BRANCH  21  22
ATOM     22  C   UNL     1      -7.279   6.496 131.350  0.00  0.00    +0.000 C 
BRANCH  22  23
ATOM     23  N   UNL     1      -8.201   6.399 130.211  0.00  0.00    +0.000 NA
ATOM     24  C   UNL     1      -9.505   6.978 130.605  0.00  0.00    +0.000 C 
ATOM     25  C   UNL     1     -10.120   6.205 131.786  0.00  0.00    +0.000 C 
ATOM     26  O   UNL     1     -10.210   4.793 131.505  0.00  0.00    +0.000 OA
ATOM     27  C   UNL     1      -8.950   4.241 131.089  0.00  0.00    +0.000 C 
ATOM     28  C   UNL     1      -8.411   4.987 129.859  0.00  0.00    +0.000 C 
ENDBRANCH  22  23
ENDBRANCH  21  22
ENDBRANCH   3  21
TORSDOF 6
ENDMDL
MODEL 7
REMARK VINA RESULT:      -7.2      1.810      4.477
REMARK  Name = Doxapram
REMARK  7 active torsions:
REMARK  status: ('A' for Active; 'I' for Inactive)
REMARK    1  A    between atoms: C_1  and  C_2
REMARK    2  A    between atoms: C_2  and  N_3
REMARK    3  A    between atoms: C_5  and  C_6
REMARK    4  A    between atoms: C_6  and  C_7
REMARK    5  A    between atoms: C_7  and  N_8
REMARK    6  A    between atoms: C_14  and  C_17
REMARK    7  A    between atoms: C_14  and  C_23
REMARK                            x       y       z     vdW  Elec       q    Type
REMARK                         _______ _______ _______ _____ _____    ______ ____
ROOT
ATOM      1  N   UNL     1      -7.914  -2.515 127.796  0.00  0.00    +0.000 N 
ATOM      2  C   UNL     1      -6.734  -1.692 127.816  0.00  0.00    +0.000 C 
ATOM      3  C   UNL     1      -6.982  -0.729 126.652  0.00  0.00    +0.000 C 
ATOM      4  C   UNL     1      -7.827  -1.577 125.619  0.00  0.00    +0.000 C 
ATOM      5  C   UNL     1      -8.567  -2.506 126.577  0.00  0.00    +0.000 C 
ATOM      6  O   UNL     1      -9.595  -3.139 126.316  0.00  0.00    +0.000 OA
ENDROOT
BRANCH   4   7
ATOM      7  C   UNL     1      -6.878  -2.419 124.734  0.00  0.00    +0.000 A 
ATOM      8  C   UNL     1      -6.981  -3.815 124.584  0.00  0.00    +0.000 A 
ATOM      9  C   UNL     1      -5.913  -4.554 124.092  0.00  0.00    +0.000 A 
ATOM     10  C   UNL     1      -4.763  -3.903 123.664  0.00  0.00    +0.000 A 
ATOM     11  C   UNL     1      -4.674  -2.516 123.727  0.00  0.00    +0.000 A 
ATOM     12  C   UNL     1      -5.739  -1.775 124.220  0.00  0.00    +0.000 A 
ENDBRANCH   4   7
BRANCH   4  13
ATOM     13  C   UNL     1      -8.873  -0.788 124.754  0.00  0.00    +0.000 A 
ATOM     14  C   UNL     1      -9.051  -1.065 123.383  0.00  0.00    +0.000 A 
ATOM     15  C   UNL     1      -9.706  -0.183 122.529  0.00  0.00    +0.000 A 
ATOM     16  C   UNL     1     -10.202   1.015 123.020  0.00  0.00    +0.000 A 
ATOM     17  C   UNL     1     -10.112   1.286 124.380  0.00  0.00    +0.000 A 
ATOM     18  C   UNL     1      -9.541   0.352 125.256  0.00  0.00    +0.000 A 
ENDBRANCH   4  13
BRANCH   1  20
ATOM     19  C   UNL     1      -7.313  -3.412 129.979  0.00  0.00    +0.000 C 
ATOM     20  C   UNL     1      -8.397  -3.288 128.915  0.00  0.00    +0.000 C 
ENDBRANCH   1  20
BRANCH   3  21
ATOM     21  C   UNL     1      -7.635   0.528 127.182  0.00  0.00    +0.000 C 
BRANCH  21  22
ATOM     22  C   UNL     1      -6.601   1.646 127.354  0.00  0.00    +0.000 C 
BRANCH  22  23
ATOM     23  N   UNL     1      -6.052   2.089 126.066  0.00  0.00    +0.000 NA
ATOM     24  C   UNL     1      -4.791   2.823 126.315  0.00  0.00    +0.000 C 
ATOM     25  C   UNL     1      -5.037   4.069 127.184  0.00  0.00    +0.000 C 
ATOM     26  O   UNL     1      -6.061   4.915 126.620  0.00  0.00    +0.000 OA
ATOM     27  C   UNL     1      -7.272   4.192 126.346  0.00  0.00    +0.000 C 
ATOM     28  C   UNL     1      -6.997   3.006 125.411  0.00  0.00    +0.000 C 
ENDBRANCH  22  23
ENDBRANCH  21  22
ENDBRANCH   3  21
TORSDOF 6
ENDMDL
MODEL 8
REMARK VINA RESULT:      -7.1      3.279      5.518
REMARK  Name = Doxapram
REMARK  7 active torsions:
REMARK  status: ('A' for Active; 'I' for Inactive)
REMARK    1  A    between atoms: C_1  and  C_2
REMARK    2  A    between atoms: C_2  and  N_3
REMARK    3  A    between atoms: C_5  and  C_6
REMARK    4  A    between atoms: C_6  and  C_7
REMARK    5  A    between atoms: C_7  and  N_8
REMARK    6  A    between atoms: C_14  and  C_17
REMARK    7  A    between atoms: C_14  and  C_23
REMARK                            x       y       z     vdW  Elec       q    Type
REMARK                         _______ _______ _______ _____ _____    ______ ____
ROOT
ATOM      1  N   UNL     1      -5.922   1.644 127.546  0.00  0.00    +0.000 N 
ATOM      2  C   UNL     1      -7.141   2.309 127.922  0.00  0.00    +0.000 C 
ATOM      3  C   UNL     1      -8.131   1.147 128.038  0.00  0.00    +0.000 C 
ATOM      4  C   UNL     1      -7.626   0.099 126.967  0.00  0.00    +0.000 C 
ATOM      5  C   UNL     1      -6.131   0.397 126.985  0.00  0.00    +0.000 C 
ATOM      6  O   UNL     1      -5.241  -0.357 126.578  0.00  0.00    +0.000 OA
ENDROOT
BRANCH   4   7
ATOM      7  C   UNL     1      -8.196   0.459 125.574  0.00  0.00    +0.000 A 
ATOM      8  C   UNL     1      -7.400   0.643 124.428  0.00  0.00    +0.000 A 
ATOM      9  C   UNL     1      -7.901   1.311 123.318  0.00  0.00    +0.000 A 
ATOM     10  C   UNL     1      -9.227   1.726 123.305  0.00  0.00    +0.000 A 
ATOM     11  C   UNL     1     -10.052   1.480 124.397  0.00  0.00    +0.000 A 
ATOM     12  C   UNL     1      -9.554   0.815 125.507  0.00  0.00    +0.000 A 
ENDBRANCH   4   7
BRANCH   4  13
ATOM     13  C   UNL     1      -7.854  -1.417 127.308  0.00  0.00    +0.000 A 
ATOM     14  C   UNL     1      -8.548  -2.272 126.428  0.00  0.00    +0.000 A 
ATOM     15  C   UNL     1      -9.052  -3.503 126.836  0.00  0.00    +0.000 A 
ATOM     16  C   UNL     1      -8.884  -3.918 128.148  0.00  0.00    +0.000 A 
ATOM     17  C   UNL     1      -8.139  -3.137 129.023  0.00  0.00    +0.000 A 
ATOM     18  C   UNL     1      -7.547  -1.944 128.584  0.00  0.00    +0.000 A 
ENDBRANCH   4  13
BRANCH   1  20
ATOM     19  C   UNL     1      -4.105   1.938 129.139  0.00  0.00    +0.000 C 
ATOM     20  C   UNL     1      -4.598   2.192 127.720  0.00  0.00    +0.000 C 
ENDBRANCH   1  20
BRANCH   3  21
ATOM     21  C   UNL     1      -8.172   0.673 129.474  0.00  0.00    +0.000 C 
BRANCH  21  22
ATOM     22  C   UNL     1      -8.169   1.864 130.438  0.00  0.00    +0.000 C 
BRANCH  22  23
ATOM     23  N   UNL     1      -9.527   2.226 130.866  0.00  0.00    +0.000 NA
ATOM     24  C   UNL     1      -9.738   3.669 130.604  0.00  0.00    +0.000 C 
ATOM     25  C   UNL     1      -8.740   4.527 131.402  0.00  0.00    +0.000 C 
ATOM     26  O   UNL     1      -8.778   4.214 132.809  0.00  0.00    +0.000 OA
ATOM     27  C   UNL     1      -8.609   2.809 133.058  0.00  0.00    +0.000 C 
ATOM     28  C   UNL     1      -9.674   1.994 132.310  0.00  0.00    +0.000 C 
ENDBRANCH  22  23
ENDBRANCH  21  22
ENDBRANCH   3  21
TORSDOF 6
ENDMDL
MODEL 9
REMARK VINA RESULT:      -6.9      4.669      6.831
REMARK  Name = Doxapram
REMARK  7 active torsions:
REMARK  status: ('A' for Active; 'I' for Inactive)
REMARK    1  A    between atoms: C_1  and  C_2
REMARK    2  A    between atoms: C_2  and  N_3
REMARK    3  A    between atoms: C_5  and  C_6
REMARK    4  A    between atoms: C_6  and  C_7
REMARK    5  A    between atoms: C_7  and  N_8
REMARK    6  A    between atoms: C_14  and  C_17
REMARK    7  A    between atoms: C_14  and  C_23
REMARK                            x       y       z     vdW  Elec       q    Type
REMARK                         _______ _______ _______ _____ _____    ______ ____
ROOT
ATOM      1  N   UNL     1      -8.113   0.600 130.601  0.00  0.00    +0.000 N 
ATOM      2  C   UNL     1      -8.673  -0.466 131.388  0.00  0.00    +0.000 C 
ATOM      3  C   UNL     1      -7.626  -1.574 131.240  0.00  0.00    +0.000 C 
ATOM      4  C   UNL     1      -7.024  -1.347 129.796  0.00  0.00    +0.000 C 
ATOM      5  C   UNL     1      -7.187   0.164 129.671  0.00  0.00    +0.000 C 
ATOM      6  O   UNL     1      -6.579   0.890 128.879  0.00  0.00    +0.000 OA
ENDROOT
BRANCH   4   7
ATOM      7  C   UNL     1      -7.920  -2.040 128.742  0.00  0.00    +0.000 A 
ATOM      8  C   UNL     1      -8.545  -3.284 128.943  0.00  0.00    +0.000 A 
ATOM      9  C   UNL     1      -9.021  -4.020 127.866  0.00  0.00    +0.000 A 
ATOM     10  C   UNL     1      -8.956  -3.487 126.585  0.00  0.00    +0.000 A 
ATOM     11  C   UNL     1      -8.415  -2.223 126.375  0.00  0.00    +0.000 A 
ATOM     12  C   UNL     1      -7.938  -1.486 127.450  0.00  0.00    +0.000 A 
ENDBRANCH   4   7
BRANCH   4  13
ATOM     13  C   UNL     1      -5.511  -1.721 129.601  0.00  0.00    +0.000 A 
ATOM     14  C   UNL     1      -5.127  -2.938 129.001  0.00  0.00    +0.000 A 
ATOM     15  C   UNL     1      -3.835  -3.443 129.115  0.00  0.00    +0.000 A 
ATOM     16  C   UNL     1      -2.883  -2.749 129.844  0.00  0.00    +0.000 A 
ATOM     17  C   UNL     1      -3.205  -1.509 130.385  0.00  0.00    +0.000 A 
ATOM     18  C   UNL     1      -4.477  -0.954 130.184  0.00  0.00    +0.000 A 
ENDBRANCH   4  13
BRANCH   1  20
ATOM     19  C   UNL     1      -9.622   2.156 131.710  0.00  0.00    +0.000 C 
ATOM     20  C   UNL     1      -8.460   1.994 130.738  0.00  0.00    +0.000 C 
ENDBRANCH   1  20
BRANCH   3  21
ATOM     21  C   UNL     1      -6.653  -1.491 132.394  0.00  0.00    +0.000 C 
BRANCH  21  22
ATOM     22  C   UNL     1      -6.492  -2.857 133.069  0.00  0.00    +0.000 C 
BRANCH  22  23
ATOM     23  N   UNL     1      -5.236  -3.515 132.684  0.00  0.00    +0.000 NA
ATOM     24  C   UNL     1      -5.441  -4.981 132.707  0.00  0.00    +0.000 C 
ATOM     25  C   UNL     1      -5.821  -5.464 134.118  0.00  0.00    +0.000 C 
ATOM     26  O   UNL     1      -4.862  -5.029 135.103  0.00  0.00    +0.000 OA
ATOM     27  C   UNL     1      -4.638  -3.611 135.055  0.00  0.00    +0.000 C 
ATOM     28  C   UNL     1      -4.182  -3.181 133.652  0.00  0.00    +0.000 C 
ENDBRANCH  22  23
ENDBRANCH  21  22
ENDBRANCH   3  21
TORSDOF 6
ENDMDL
