MODEL 1
REMARK VINA RESULT:      -7.2      0.000      0.000
REMARK  Name = Doxepin
REMARK  5 active torsions:
REMARK  status: ('A' for Active; 'I' for Inactive)
REMARK    1  A    between atoms: C_2  and  C_3
REMARK    2  A    between atoms: C_3  and  C_4
REMARK    3  A    between atoms: C_4  and  N_5
REMARK    4  A    between atoms: N_5  and  C_6
REMARK    5  A    between atoms: N_5  and  C_7
REMARK                            x       y       z     vdW  Elec       q    Type
REMARK                         _______ _______ _______ _____ _____    ______ ____
ROOT
ATOM      1  C   UNL     1      -6.201   2.235 124.810  0.00  0.00    +0.000 C 
ATOM      2  C   UNL     1      -6.825   1.664 123.758  0.00  0.00    +0.000 C 
ATOM      3  C   UNL     1      -7.132   2.526 122.600  0.00  0.00    +0.000 A 
ATOM      4  C   UNL     1      -6.114   3.060 121.804  0.00  0.00    +0.000 A 
ATOM      5  C   UNL     1      -6.436   3.803 120.671  0.00  0.00    +0.000 A 
ATOM      6  C   UNL     1      -7.773   4.017 120.335  0.00  0.00    +0.000 A 
ATOM      7  C   UNL     1      -8.793   3.470 121.118  0.00  0.00    +0.000 A 
ATOM      8  C   UNL     1      -8.477   2.714 122.252  0.00  0.00    +0.000 A 
ATOM      9  C   UNL     1      -9.536   2.047 123.093  0.00  0.00    +0.000 C 
ATOM     10  O   UNL     1      -9.592   0.635 122.875  0.00  0.00    +0.000 OA
ATOM     11  C   UNL     1      -8.576  -0.153 123.358  0.00  0.00    +0.000 A 
ATOM     12  C   UNL     1      -8.897  -1.522 123.361  0.00  0.00    +0.000 A 
ATOM     13  C   UNL     1      -7.984  -2.484 123.799  0.00  0.00    +0.000 A 
ATOM     14  C   UNL     1      -6.714  -2.097 124.185  0.00  0.00    +0.000 A 
ATOM     15  C   UNL     1      -6.363  -0.755 124.111  0.00  0.00    +0.000 A 
ATOM     16  C   UNL     1      -7.294   0.248 123.770  0.00  0.00    +0.000 A 
ENDROOT
BRANCH   1  17
ATOM     17  C   UNL     1      -5.834   1.518 126.084  0.00  0.00    +0.000 C 
BRANCH  17  18
ATOM     18  C   UNL     1      -5.004   2.307 127.095  0.00  0.00    +0.000 C 
BRANCH  18  19
ATOM     19  N   UNL     1      -4.188   3.349 126.433  0.00  0.00    +0.000 NA
ATOM     20  C   UNL     1      -4.466   4.699 126.938  0.00  0.00    +0.000 C 
ATOM     21  C   UNL     1      -2.770   3.045 126.623  0.00  0.00    +0.000 C 
ENDBRANCH  18  19
ENDBRANCH  17  18
ENDBRANCH   1  17
TORSDOF 3
ENDMDL
MODEL 2
REMARK VINA RESULT:      -7.2      7.050      8.398
REMARK  Name = Doxepin
REMARK  5 active torsions:
REMARK  status: ('A' for Active; 'I' for Inactive)
REMARK    1  A    between atoms: C_2  and  C_3
REMARK    2  A    between atoms: C_3  and  C_4
REMARK    3  A    between atoms: C_4  and  N_5
REMARK    4  A    between atoms: N_5  and  C_6
REMARK    5  A    between atoms: N_5  and  C_7
REMARK                            x       y       z     vdW  Elec       q    Type
REMARK                         _______ _______ _______ _____ _____    ______ ____
ROOT
ATOM      1  C   UNL     1      -7.947   7.290 130.696  0.00  0.00    +0.000 C 
ATOM      2  C   UNL     1      -9.011   6.581 130.261  0.00  0.00    +0.000 C 
ATOM      3  C   UNL     1     -10.197   7.339 129.819  0.00  0.00    +0.000 A 
ATOM      4  C   UNL     1     -10.162   8.134 128.670  0.00  0.00    +0.000 A 
ATOM      5  C   UNL     1     -11.319   8.772 128.232  0.00  0.00    +0.000 A 
ATOM      6  C   UNL     1     -12.510   8.621 128.942  0.00  0.00    +0.000 A 
ATOM      7  C   UNL     1     -12.554   7.813 130.080  0.00  0.00    +0.000 A 
ATOM      8  C   UNL     1     -11.397   7.159 130.522  0.00  0.00    +0.000 A 
ATOM      9  C   UNL     1     -11.405   6.225 131.705  0.00  0.00    +0.000 C 
ATOM     10  O   UNL     1     -11.336   4.852 131.311  0.00  0.00    +0.000 OA
ATOM     11  C   UNL     1     -10.154   4.363 130.809  0.00  0.00    +0.000 A 
ATOM     12  C   UNL     1     -10.119   2.958 130.761  0.00  0.00    +0.000 A 
ATOM     13  C   UNL     1      -9.008   2.274 130.263  0.00  0.00    +0.000 A 
ATOM     14  C   UNL     1      -7.938   2.985 129.751  0.00  0.00    +0.000 A 
ATOM     15  C   UNL     1      -7.998   4.373 129.724  0.00  0.00    +0.000 A 
ATOM     16  C   UNL     1      -9.061   5.091 130.310  0.00  0.00    +0.000 A 
ENDROOT
BRANCH   1  17
ATOM     17  C   UNL     1      -6.664   6.687 131.208  0.00  0.00    +0.000 C 
BRANCH  17  18
ATOM     18  C   UNL     1      -5.367   7.341 130.736  0.00  0.00    +0.000 C 
BRANCH  18  19
ATOM     19  N   UNL     1      -4.827   6.668 129.533  0.00  0.00    +0.000 NA
ATOM     20  C   UNL     1      -3.684   7.380 128.946  0.00  0.00    +0.000 C 
ATOM     21  C   UNL     1      -4.421   5.308 129.881  0.00  0.00    +0.000 C 
ENDBRANCH  18  19
ENDBRANCH  17  18
ENDBRANCH   1  17
TORSDOF 3
ENDMDL
MODEL 3
REMARK VINA RESULT:      -7.1      1.707      2.306
REMARK  Name = Doxepin
REMARK  5 active torsions:
REMARK  status: ('A' for Active; 'I' for Inactive)
REMARK    1  A    between atoms: C_2  and  C_3
REMARK    2  A    between atoms: C_3  and  C_4
REMARK    3  A    between atoms: C_4  and  N_5
REMARK    4  A    between atoms: N_5  and  C_6
REMARK    5  A    between atoms: N_5  and  C_7
REMARK                            x       y       z     vdW  Elec       q    Type
REMARK                         _______ _______ _______ _____ _____    ______ ____
ROOT
ATOM      1  C   UNL     1      -6.347   1.824 124.983  0.00  0.00    +0.000 C 
ATOM      2  C   UNL     1      -6.940   1.332 123.875  0.00  0.00    +0.000 C 
ATOM      3  C   UNL     1      -7.224   2.279 122.779  0.00  0.00    +0.000 A 
ATOM      4  C   UNL     1      -6.190   2.878 122.053  0.00  0.00    +0.000 A 
ATOM      5  C   UNL     1      -6.489   3.704 120.972  0.00  0.00    +0.000 A 
ATOM      6  C   UNL     1      -7.818   3.936 120.619  0.00  0.00    +0.000 A 
ATOM      7  C   UNL     1      -8.853   3.326 121.332  0.00  0.00    +0.000 A 
ATOM      8  C   UNL     1      -8.562   2.486 122.413  0.00  0.00    +0.000 A 
ATOM      9  C   UNL     1      -9.637   1.753 123.173  0.00  0.00    +0.000 C 
ATOM     10  O   UNL     1      -9.678   0.361 122.846  0.00  0.00    +0.000 OA
ATOM     11  C   UNL     1      -8.669  -0.457 123.293  0.00  0.00    +0.000 A 
ATOM     12  C   UNL     1      -8.981  -1.824 123.183  0.00  0.00    +0.000 A 
ATOM     13  C   UNL     1      -8.073  -2.812 123.569  0.00  0.00    +0.000 A 
ATOM     14  C   UNL     1      -6.815  -2.450 124.016  0.00  0.00    +0.000 A 
ATOM     15  C   UNL     1      -6.471  -1.104 124.054  0.00  0.00    +0.000 A 
ATOM     16  C   UNL     1      -7.400  -0.083 123.767  0.00  0.00    +0.000 A 
ENDROOT
BRANCH   1  17
ATOM     17  C   UNL     1      -6.007   1.013 126.207  0.00  0.00    +0.000 C 
BRANCH  17  18
ATOM     18  C   UNL     1      -7.141   0.772 127.202  0.00  0.00    +0.000 C 
BRANCH  18  19
ATOM     19  N   UNL     1      -6.999  -0.536 127.881  0.00  0.00    +0.000 NA
ATOM     20  C   UNL     1      -7.969  -1.532 127.410  0.00  0.00    +0.000 C 
ATOM     21  C   UNL     1      -5.645  -1.045 127.670  0.00  0.00    +0.000 C 
ENDBRANCH  18  19
ENDBRANCH  17  18
ENDBRANCH   1  17
TORSDOF 3
ENDMDL
MODEL 4
REMARK VINA RESULT:      -6.7      6.447      8.237
REMARK  Name = Doxepin
REMARK  5 active torsions:
REMARK  status: ('A' for Active; 'I' for Inactive)
REMARK    1  A    between atoms: C_2  and  C_3
REMARK    2  A    between atoms: C_3  and  C_4
REMARK    3  A    between atoms: C_4  and  N_5
REMARK    4  A    between atoms: N_5  and  C_6
REMARK    5  A    between atoms: N_5  and  C_7
REMARK                            x       y       z     vdW  Elec       q    Type
REMARK                         _______ _______ _______ _____ _____    ______ ____
ROOT
ATOM      1  C   UNL     1      -8.155   6.813 131.173  0.00  0.00    +0.000 C 
ATOM      2  C   UNL     1      -8.824   6.120 130.226  0.00  0.00    +0.000 C 
ATOM      3  C   UNL     1     -10.068   6.715 129.701  0.00  0.00    +0.000 A 
ATOM      4  C   UNL     1     -10.044   7.885 128.935  0.00  0.00    +0.000 A 
ATOM      5  C   UNL     1     -11.225   8.377 128.385  0.00  0.00    +0.000 A 
ATOM      6  C   UNL     1     -12.428   7.705 128.601  0.00  0.00    +0.000 A 
ATOM      7  C   UNL     1     -12.453   6.526 129.350  0.00  0.00    +0.000 A 
ATOM      8  C   UNL     1     -11.269   6.019 129.898  0.00  0.00    +0.000 A 
ATOM      9  C   UNL     1     -11.230   4.718 130.658  0.00  0.00    +0.000 C 
ATOM     10  O   UNL     1     -10.649   3.660 129.892  0.00  0.00    +0.000 OA
ATOM     11  C   UNL     1      -9.295   3.675 129.656  0.00  0.00    +0.000 A 
ATOM     12  C   UNL     1      -8.808   2.446 129.177  0.00  0.00    +0.000 A 
ATOM     13  C   UNL     1      -7.459   2.270 128.861  0.00  0.00    +0.000 A 
ATOM     14  C   UNL     1      -6.587   3.338 128.962  0.00  0.00    +0.000 A 
ATOM     15  C   UNL     1      -7.076   4.576 129.360  0.00  0.00    +0.000 A 
ATOM     16  C   UNL     1      -8.409   4.758 129.781  0.00  0.00    +0.000 A 
ENDROOT
BRANCH   1  17
ATOM     17  C   UNL     1      -6.886   6.351 131.840  0.00  0.00    +0.000 C 
BRANCH  17  18
ATOM     18  C   UNL     1      -7.033   5.724 133.226  0.00  0.00    +0.000 C 
BRANCH  18  19
ATOM     19  N   UNL     1      -7.733   4.421 133.160  0.00  0.00    +0.000 NA
ATOM     20  C   UNL     1      -6.829   3.301 132.868  0.00  0.00    +0.000 C 
ATOM     21  C   UNL     1      -8.412   4.173 134.431  0.00  0.00    +0.000 C 
ENDBRANCH  18  19
ENDBRANCH  17  18
ENDBRANCH   1  17
TORSDOF 3
ENDMDL
MODEL 5
REMARK VINA RESULT:      -6.7      2.814      4.636
REMARK  Name = Doxepin
REMARK  5 active torsions:
REMARK  status: ('A' for Active; 'I' for Inactive)
REMARK    1  A    between atoms: C_2  and  C_3
REMARK    2  A    between atoms: C_3  and  C_4
REMARK    3  A    between atoms: C_4  and  N_5
REMARK    4  A    between atoms: N_5  and  C_6
REMARK    5  A    between atoms: N_5  and  C_7
REMARK                            x       y       z     vdW  Elec       q    Type
REMARK                         _______ _______ _______ _____ _____    ______ ____
ROOT
ATOM      1  C   UNL     1      -6.054  -0.113 127.415  0.00  0.00    +0.000 C 
ATOM      2  C   UNL     1      -5.833   0.236 126.129  0.00  0.00    +0.000 C 
ATOM      3  C   UNL     1      -5.585   1.663 125.846  0.00  0.00    +0.000 A 
ATOM      4  C   UNL     1      -4.425   2.299 126.297  0.00  0.00    +0.000 A 
ATOM      5  C   UNL     1      -4.179   3.624 125.945  0.00  0.00    +0.000 A 
ATOM      6  C   UNL     1      -5.092   4.314 125.147  0.00  0.00    +0.000 A 
ATOM      7  C   UNL     1      -6.243   3.676 124.680  0.00  0.00    +0.000 A 
ATOM      8  C   UNL     1      -6.493   2.342 125.021  0.00  0.00    +0.000 A 
ATOM      9  C   UNL     1      -7.685   1.587 124.490  0.00  0.00    +0.000 C 
ATOM     10  O   UNL     1      -7.325   0.656 123.466  0.00  0.00    +0.000 OA
ATOM     11  C   UNL     1      -6.638  -0.481 123.813  0.00  0.00    +0.000 A 
ATOM     12  C   UNL     1      -6.624  -1.447 122.791  0.00  0.00    +0.000 A 
ATOM     13  C   UNL     1      -5.958  -2.665 122.948  0.00  0.00    +0.000 A 
ATOM     14  C   UNL     1      -5.246  -2.912 124.108  0.00  0.00    +0.000 A 
ATOM     15  C   UNL     1      -5.190  -1.931 125.090  0.00  0.00    +0.000 A 
ATOM     16  C   UNL     1      -5.933  -0.736 125.002  0.00  0.00    +0.000 A 
ENDROOT
BRANCH   1  17
ATOM     17  C   UNL     1      -6.350  -1.514 127.886  0.00  0.00    +0.000 C 
BRANCH  17  18
ATOM     18  C   UNL     1      -7.823  -1.879 128.056  0.00  0.00    +0.000 C 
BRANCH  18  19
ATOM     19  N   UNL     1      -8.224  -2.963 127.130  0.00  0.00    +0.000 NA
ATOM     20  C   UNL     1      -8.979  -4.032 127.796  0.00  0.00    +0.000 C 
ATOM     21  C   UNL     1      -9.034  -2.402 126.051  0.00  0.00    +0.000 C 
ENDBRANCH  18  19
ENDBRANCH  17  18
ENDBRANCH   1  17
TORSDOF 3
ENDMDL
MODEL 6
REMARK VINA RESULT:      -6.7      3.908      5.254
REMARK  Name = Doxepin
REMARK  5 active torsions:
REMARK  status: ('A' for Active; 'I' for Inactive)
REMARK    1  A    between atoms: C_2  and  C_3
REMARK    2  A    between atoms: C_3  and  C_4
REMARK    3  A    between atoms: C_4  and  N_5
REMARK    4  A    between atoms: N_5  and  C_6
REMARK    5  A    between atoms: N_5  and  C_7
REMARK                            x       y       z     vdW  Elec       q    Type
REMARK                         _______ _______ _______ _____ _____    ______ ____
ROOT
ATOM      1  C   UNL     1      -8.202   0.633 126.745  0.00  0.00    +0.000 C 
ATOM      2  C   UNL     1      -7.871  -0.662 126.558  0.00  0.00    +0.000 C 
ATOM      3  C   UNL     1      -7.723  -1.131 125.166  0.00  0.00    +0.000 A 
ATOM      4  C   UNL     1      -6.685  -0.669 124.353  0.00  0.00    +0.000 A 
ATOM      5  C   UNL     1      -6.523  -1.190 123.071  0.00  0.00    +0.000 A 
ATOM      6  C   UNL     1      -7.398  -2.169 122.601  0.00  0.00    +0.000 A 
ATOM      7  C   UNL     1      -8.427  -2.645 123.417  0.00  0.00    +0.000 A 
ATOM      8  C   UNL     1      -8.590  -2.134 124.710  0.00  0.00    +0.000 A 
ATOM      9  C   UNL     1      -9.641  -2.660 125.654  0.00  0.00    +0.000 C 
ATOM     10  O   UNL     1      -9.085  -3.492 126.675  0.00  0.00    +0.000 OA
ATOM     11  C   UNL     1      -8.340  -2.913 127.673  0.00  0.00    +0.000 A 
ATOM     12  C   UNL     1      -8.124  -3.771 128.765  0.00  0.00    +0.000 A 
ATOM     13  C   UNL     1      -7.372  -3.368 129.871  0.00  0.00    +0.000 A 
ATOM     14  C   UNL     1      -6.775  -2.121 129.876  0.00  0.00    +0.000 A 
ATOM     15  C   UNL     1      -6.920  -1.296 128.767  0.00  0.00    +0.000 A 
ATOM     16  C   UNL     1      -7.754  -1.635 127.682  0.00  0.00    +0.000 A 
ENDROOT
BRANCH   1  17
ATOM     17  C   UNL     1      -8.420   1.278 128.090  0.00  0.00    +0.000 C 
BRANCH  17  18
ATOM     18  C   UNL     1      -8.064   2.759 128.201  0.00  0.00    +0.000 C 
BRANCH  18  19
ATOM     19  N   UNL     1      -9.039   3.490 129.042  0.00  0.00    +0.000 NA
ATOM     20  C   UNL     1      -9.300   2.823 130.324  0.00  0.00    +0.000 C 
ATOM     21  C   UNL     1      -8.542   4.842 129.294  0.00  0.00    +0.000 C 
ENDBRANCH  18  19
ENDBRANCH  17  18
ENDBRANCH   1  17
TORSDOF 3
ENDMDL
MODEL 7
REMARK VINA RESULT:      -6.7      3.871      6.743
REMARK  Name = Doxepin
REMARK  5 active torsions:
REMARK  status: ('A' for Active; 'I' for Inactive)
REMARK    1  A    between atoms: C_2  and  C_3
REMARK    2  A    between atoms: C_3  and  C_4
REMARK    3  A    between atoms: C_4  and  N_5
REMARK    4  A    between atoms: N_5  and  C_6
REMARK    5  A    between atoms: N_5  and  C_7
REMARK                            x       y       z     vdW  Elec       q    Type
REMARK                         _______ _______ _______ _____ _____    ______ ____
ROOT
ATOM      1  C   UNL     1      -8.345  -0.037 127.618  0.00  0.00    +0.000 C 
ATOM      2  C   UNL     1      -7.887  -1.284 127.378  0.00  0.00    +0.000 C 
ATOM      3  C   UNL     1      -7.221  -1.989 128.490  0.00  0.00    +0.000 A 
ATOM      4  C   UNL     1      -7.932  -2.386 129.626  0.00  0.00    +0.000 A 
ATOM      5  C   UNL     1      -7.294  -3.121 130.622  0.00  0.00    +0.000 A 
ATOM      6  C   UNL     1      -5.946  -3.455 130.487  0.00  0.00    +0.000 A 
ATOM      7  C   UNL     1      -5.237  -3.075 129.345  0.00  0.00    +0.000 A 
ATOM      8  C   UNL     1      -5.873  -2.345 128.335  0.00  0.00    +0.000 A 
ATOM      9  C   UNL     1      -5.172  -1.967 127.055  0.00  0.00    +0.000 C 
ATOM     10  O   UNL     1      -5.596  -2.767 125.948  0.00  0.00    +0.000 OA
ATOM     11  C   UNL     1      -6.853  -2.574 125.430  0.00  0.00    +0.000 A 
ATOM     12  C   UNL     1      -7.029  -3.182 124.174  0.00  0.00    +0.000 A 
ATOM     13  C   UNL     1      -8.247  -3.112 123.495  0.00  0.00    +0.000 A 
ATOM     14  C   UNL     1      -9.328  -2.485 124.088  0.00  0.00    +0.000 A 
ATOM     15  C   UNL     1      -9.184  -1.950 125.362  0.00  0.00    +0.000 A 
ATOM     16  C   UNL     1      -7.942  -1.916 126.028  0.00  0.00    +0.000 A 
ENDROOT
BRANCH   1  17
ATOM     17  C   UNL     1      -9.026   0.840 126.598  0.00  0.00    +0.000 C 
BRANCH  17  18
ATOM     18  C   UNL     1      -8.248   2.067 126.127  0.00  0.00    +0.000 C 
BRANCH  18  19
ATOM     19  N   UNL     1      -8.917   2.727 124.983  0.00  0.00    +0.000 NA
ATOM     20  C   UNL     1      -7.968   3.315 124.028  0.00  0.00    +0.000 C 
ATOM     21  C   UNL     1      -9.758   1.754 124.288  0.00  0.00    +0.000 C 
ENDBRANCH  18  19
ENDBRANCH  17  18
ENDBRANCH   1  17
TORSDOF 3
ENDMDL
MODEL 8
REMARK VINA RESULT:      -6.7      4.764      6.665
REMARK  Name = Doxepin
REMARK  5 active torsions:
REMARK  status: ('A' for Active; 'I' for Inactive)
REMARK    1  A    between atoms: C_2  and  C_3
REMARK    2  A    between atoms: C_3  and  C_4
REMARK    3  A    between atoms: C_4  and  N_5
REMARK    4  A    between atoms: N_5  and  C_6
REMARK    5  A    between atoms: N_5  and  C_7
REMARK                            x       y       z     vdW  Elec       q    Type
REMARK                         _______ _______ _______ _____ _____    ______ ____
ROOT
ATOM      1  C   UNL     1      -7.969  -3.368 128.474  0.00  0.00    +0.000 C 
ATOM      2  C   UNL     1      -7.733  -2.391 127.572  0.00  0.00    +0.000 C 
ATOM      3  C   UNL     1      -8.023  -2.690 126.156  0.00  0.00    +0.000 A 
ATOM      4  C   UNL     1      -9.334  -2.888 125.712  0.00  0.00    +0.000 A 
ATOM      5  C   UNL     1      -9.583  -3.087 124.356  0.00  0.00    +0.000 A 
ATOM      6  C   UNL     1      -8.526  -3.092 123.446  0.00  0.00    +0.000 A 
ATOM      7  C   UNL     1      -7.218  -2.876 123.884  0.00  0.00    +0.000 A 
ATOM      8  C   UNL     1      -6.959  -2.665 125.244  0.00  0.00    +0.000 A 
ATOM      9  C   UNL     1      -5.576  -2.363 125.760  0.00  0.00    +0.000 C 
ATOM     10  O   UNL     1      -5.416  -0.985 126.107  0.00  0.00    +0.000 OA
ATOM     11  C   UNL     1      -6.045  -0.504 127.230  0.00  0.00    +0.000 A 
ATOM     12  C   UNL     1      -5.564   0.754 127.633  0.00  0.00    +0.000 A 
ATOM     13  C   UNL     1      -6.093   1.415 128.743  0.00  0.00    +0.000 A 
ATOM     14  C   UNL     1      -7.153   0.855 129.434  0.00  0.00    +0.000 A 
ATOM     15  C   UNL     1      -7.685  -0.351 128.995  0.00  0.00    +0.000 A 
ATOM     16  C   UNL     1      -7.107  -1.089 127.941  0.00  0.00    +0.000 A 
ENDROOT
BRANCH   1  17
ATOM     17  C   UNL     1      -7.709  -3.252 129.954  0.00  0.00    +0.000 C 
BRANCH  17  18
ATOM     18  C   UNL     1      -6.399  -3.848 130.465  0.00  0.00    +0.000 C 
BRANCH  18  19
ATOM     19  N   UNL     1      -5.300  -2.857 130.427  0.00  0.00    +0.000 NA
ATOM     20  C   UNL     1      -4.585  -2.748 131.705  0.00  0.00    +0.000 C 
ATOM     21  C   UNL     1      -4.353  -3.225 129.376  0.00  0.00    +0.000 C 
ENDBRANCH  18  19
ENDBRANCH  17  18
ENDBRANCH   1  17
TORSDOF 3
ENDMDL
MODEL 9
REMARK VINA RESULT:      -6.4      4.128      6.226
REMARK  Name = Doxepin
REMARK  5 active torsions:
REMARK  status: ('A' for Active; 'I' for Inactive)
REMARK    1  A    between atoms: C_2  and  C_3
REMARK    2  A    between atoms: C_3  and  C_4
REMARK    3  A    between atoms: C_4  and  N_5
REMARK    4  A    between atoms: N_5  and  C_6
REMARK    5  A    between atoms: N_5  and  C_7
REMARK                            x       y       z     vdW  Elec       q    Type
REMARK                         _______ _______ _______ _____ _____    ______ ____
ROOT
ATOM      1  C   UNL     1      -5.674  -0.379 127.576  0.00  0.00    +0.000 C 
ATOM      2  C   UNL     1      -5.898  -1.709 127.627  0.00  0.00    +0.000 C 
ATOM      3  C   UNL     1      -6.619  -2.320 126.493  0.00  0.00    +0.000 A 
ATOM      4  C   UNL     1      -6.042  -2.388 125.221  0.00  0.00    +0.000 A 
ATOM      5  C   UNL     1      -6.712  -3.043 124.190  0.00  0.00    +0.000 A 
ATOM      6  C   UNL     1      -7.957  -3.625 124.427  0.00  0.00    +0.000 A 
ATOM      7  C   UNL     1      -8.528  -3.573 125.701  0.00  0.00    +0.000 A 
ATOM      8  C   UNL     1      -7.857  -2.926 126.745  0.00  0.00    +0.000 A 
ATOM      9  C   UNL     1      -8.398  -2.899 128.152  0.00  0.00    +0.000 C 
ATOM     10  O   UNL     1      -7.694  -3.790 129.021  0.00  0.00    +0.000 OA
ATOM     11  C   UNL     1      -6.413  -3.472 129.403  0.00  0.00    +0.000 A 
ATOM     12  C   UNL     1      -5.956  -4.243 130.486  0.00  0.00    +0.000 A 
ATOM     13  C   UNL     1      -4.671  -4.079 131.006  0.00  0.00    +0.000 A 
ATOM     14  C   UNL     1      -3.801  -3.182 130.414  0.00  0.00    +0.000 A 
ATOM     15  C   UNL     1      -4.219  -2.471 129.296  0.00  0.00    +0.000 A 
ATOM     16  C   UNL     1      -5.541  -2.542 128.811  0.00  0.00    +0.000 A 
ENDROOT
BRANCH   1  17
ATOM     17  C   UNL     1      -4.980   0.417 128.652  0.00  0.00    +0.000 C 
BRANCH  17  18
ATOM     18  C   UNL     1      -4.998   1.936 128.495  0.00  0.00    +0.000 C 
BRANCH  18  19
ATOM     19  N   UNL     1      -4.055   2.385 127.445  0.00  0.00    +0.000 NA
ATOM     20  C   UNL     1      -4.732   2.996 126.293  0.00  0.00    +0.000 C 
ATOM     21  C   UNL     1      -3.117   3.348 128.018  0.00  0.00    +0.000 C 
ENDBRANCH  18  19
ENDBRANCH  17  18
ENDBRANCH   1  17
TORSDOF 3
ENDMDL
