MODEL 1
REMARK VINA RESULT:      -8.3      0.000      0.000
REMARK  Name = Doxercalciferol
REMARK  12 active torsions:
REMARK  status: ('A' for Active; 'I' for Inactive)
REMARK    1  A    between atoms: C_2  and  C_24
REMARK    2  A    between atoms: C_11  and  C_12
REMARK    3  A    between atoms: C_13  and  C_14
REMARK    4  A    between atoms: C_17  and  O_18
REMARK    5  A    between atoms: C_20  and  O_21
REMARK    6  A    between atoms: C_24  and  C_25
REMARK    7  A    between atoms: C_24  and  C_26
REMARK    8  A    between atoms: C_27  and  C_28
REMARK    9  A    between atoms: C_28  and  C_29
REMARK   10  A    between atoms: C_28  and  C_30
REMARK   11  A    between atoms: C_30  and  C_31
REMARK   12  A    between atoms: C_30  and  C_32
REMARK                            x       y       z     vdW  Elec       q    Type
REMARK                         _______ _______ _______ _____ _____    ______ ____
ROOT
ATOM      1  C   UNL     1      -7.088   1.372 124.573  0.00  0.00    +0.000 C 
ATOM      2  C   UNL     1      -6.099   2.202 125.439  0.00  0.00    +0.000 C 
ATOM      3  C   UNL     1      -5.388   1.223 126.396  0.00  0.00    +0.000 C 
ATOM      4  C   UNL     1      -5.718  -0.150 125.816  0.00  0.00    +0.000 C 
ATOM      5  C   UNL     1      -5.625  -1.417 126.620  0.00  0.00    +0.000 C 
ATOM      6  C   UNL     1      -6.086  -2.609 125.800  0.00  0.00    +0.000 C 
ATOM      7  C   UNL     1      -7.431  -2.496 125.132  0.00  0.00    +0.000 C 
ATOM      8  C   UNL     1      -7.528  -1.176 124.409  0.00  0.00    +0.000 C 
ATOM      9  C   UNL     1      -7.181   0.022 125.354  0.00  0.00    +0.000 C 
ATOM     10  C   UNL     1      -8.031   0.112 126.674  0.00  0.00    +0.000 C 
ATOM     11  C   UNL     1      -5.183  -1.517 127.888  0.00  0.00    +0.000 C 
ENDROOT
BRANCH  11  12
ATOM     12  C   UNL     1      -4.977  -2.784 128.568  0.00  0.00    +0.000 C 
ATOM     13  C   UNL     1      -5.681  -3.250 129.628  0.00  0.00    +0.000 C 
ATOM     14  C   UNL     1      -5.241  -4.511 130.337  0.00  0.00    +0.000 C 
ATOM     15  C   UNL     1      -5.101  -4.331 131.859  0.00  0.00    +0.000 C 
ATOM     16  C   UNL     1      -6.323  -3.665 132.490  0.00  0.00    +0.000 C 
ATOM     17  C   UNL     1      -6.672  -2.361 131.792  0.00  0.00    +0.000 C 
ATOM     18  C   UNL     1      -6.816  -2.556 130.279  0.00  0.00    +0.000 C 
ATOM     19  C   UNL     1      -7.833  -2.030 129.570  0.00  0.00    +0.000 C 
BRANCH  15  20
ATOM     20  O   UNL     1      -3.910  -3.609 132.186  0.00  0.00    +0.000 OA
ATOM     21  H   UNL     1      -3.492  -3.294 131.365  0.00  0.00    +0.000 HD
ENDBRANCH  15  20
BRANCH  17  22
ATOM     22  O   UNL     1      -7.847  -1.803 132.376  0.00  0.00    +0.000 OA
ATOM     23  H   UNL     1      -7.992  -2.267 133.215  0.00  0.00    +0.000 HD
ENDBRANCH  17  22
ENDBRANCH  11  12
BRANCH   1  24
ATOM     24  C   UNL     1      -8.416   2.131 124.227  0.00  0.00    +0.000 C 
ATOM     25  C   UNL     1      -8.657   3.344 125.115  0.00  0.00    +0.000 C 
BRANCH  24  26
ATOM     26  C   UNL     1      -8.364   2.750 122.874  0.00  0.00    +0.000 C 
ATOM     27  C   UNL     1      -7.428   3.394 122.211  0.00  0.00    +0.000 C 
BRANCH  27  28
ATOM     28  C   UNL     1      -7.741   4.089 120.885  0.00  0.00    +0.000 C 
ATOM     29  C   UNL     1      -9.069   3.660 120.195  0.00  0.00    +0.000 C 
BRANCH  28  30
ATOM     30  C   UNL     1      -6.584   3.883 119.891  0.00  0.00    +0.000 C 
ATOM     31  C   UNL     1      -6.731   4.831 118.698  0.00  0.00    +0.000 C 
ATOM     32  C   UNL     1      -5.225   4.120 120.553  0.00  0.00    +0.000 C 
ENDBRANCH  28  30
ENDBRANCH  27  28
ENDBRANCH  24  26
ENDBRANCH   1  24
TORSDOF 7
ENDMDL
MODEL 2
REMARK VINA RESULT:      -8.1      4.414      6.990
REMARK  Name = Doxercalciferol
REMARK  12 active torsions:
REMARK  status: ('A' for Active; 'I' for Inactive)
REMARK    1  A    between atoms: C_2  and  C_24
REMARK    2  A    between atoms: C_11  and  C_12
REMARK    3  A    between atoms: C_13  and  C_14
REMARK    4  A    between atoms: C_17  and  O_18
REMARK    5  A    between atoms: C_20  and  O_21
REMARK    6  A    between atoms: C_24  and  C_25
REMARK    7  A    between atoms: C_24  and  C_26
REMARK    8  A    between atoms: C_27  and  C_28
REMARK    9  A    between atoms: C_28  and  C_29
REMARK   10  A    between atoms: C_28  and  C_30
REMARK   11  A    between atoms: C_30  and  C_31
REMARK   12  A    between atoms: C_30  and  C_32
REMARK                            x       y       z     vdW  Elec       q    Type
REMARK                         _______ _______ _______ _____ _____    ______ ____
ROOT
ATOM      1  C   UNL     1      -6.759   2.272 124.190  0.00  0.00    +0.000 C 
ATOM      2  C   UNL     1      -6.791   3.711 123.603  0.00  0.00    +0.000 C 
ATOM      3  C   UNL     1      -5.852   4.584 124.462  0.00  0.00    +0.000 C 
ATOM      4  C   UNL     1      -5.053   3.563 125.268  0.00  0.00    +0.000 C 
ATOM      5  C   UNL     1      -4.332   3.916 126.539  0.00  0.00    +0.000 C 
ATOM      6  C   UNL     1      -3.692   2.685 127.154  0.00  0.00    +0.000 C 
ATOM      7  C   UNL     1      -4.581   1.485 127.357  0.00  0.00    +0.000 C 
ATOM      8  C   UNL     1      -5.357   1.211 126.094  0.00  0.00    +0.000 C 
ATOM      9  C   UNL     1      -6.111   2.489 125.596  0.00  0.00    +0.000 C 
ATOM     10  C   UNL     1      -7.077   3.156 126.642  0.00  0.00    +0.000 C 
ATOM     11  C   UNL     1      -4.235   5.147 127.077  0.00  0.00    +0.000 C 
ENDROOT
BRANCH  11  12
ATOM     12  C   UNL     1      -3.405   5.456 128.229  0.00  0.00    +0.000 C 
ATOM     13  C   UNL     1      -3.815   5.527 129.518  0.00  0.00    +0.000 C 
ATOM     14  C   UNL     1      -2.873   6.026 130.589  0.00  0.00    +0.000 C 
ATOM     15  C   UNL     1      -3.474   7.154 131.446  0.00  0.00    +0.000 C 
ATOM     16  C   UNL     1      -4.873   6.820 131.965  0.00  0.00    +0.000 C 
ATOM     17  C   UNL     1      -5.803   6.403 130.837  0.00  0.00    +0.000 C 
ATOM     18  C   UNL     1      -5.194   5.275 129.998  0.00  0.00    +0.000 C 
ATOM     19  C   UNL     1      -5.896   4.191 129.615  0.00  0.00    +0.000 C 
BRANCH  15  20
ATOM     20  O   UNL     1      -3.485   8.394 130.733  0.00  0.00    +0.000 OA
ATOM     21  H   UNL     1      -4.044   9.032 131.211  0.00  0.00    +0.000 HD
ENDBRANCH  15  20
BRANCH  17  22
ATOM     22  O   UNL     1      -7.076   6.048 131.370  0.00  0.00    +0.000 OA
ATOM     23  H   UNL     1      -7.710   6.087 130.636  0.00  0.00    +0.000 HD
ENDBRANCH  17  22
ENDBRANCH  11  12
BRANCH   1  24
ATOM     24  C   UNL     1      -8.133   1.523 124.105  0.00  0.00    +0.000 C 
ATOM     25  C   UNL     1      -8.973   1.954 122.910  0.00  0.00    +0.000 C 
BRANCH  24  26
ATOM     26  C   UNL     1      -7.957   0.068 123.845  0.00  0.00    +0.000 C 
ATOM     27  C   UNL     1      -6.929  -0.664 123.470  0.00  0.00    +0.000 C 
BRANCH  27  28
ATOM     28  C   UNL     1      -7.109  -2.136 123.097  0.00  0.00    +0.000 C 
ATOM     29  C   UNL     1      -8.569  -2.674 123.154  0.00  0.00    +0.000 C 
BRANCH  28  30
ATOM     30  C   UNL     1      -6.225  -3.022 123.993  0.00  0.00    +0.000 C 
ATOM     31  C   UNL     1      -4.866  -3.263 123.331  0.00  0.00    +0.000 C 
ATOM     32  C   UNL     1      -6.005  -2.389 125.368  0.00  0.00    +0.000 C 
ENDBRANCH  28  30
ENDBRANCH  27  28
ENDBRANCH  24  26
ENDBRANCH   1  24
TORSDOF 7
ENDMDL
MODEL 3
REMARK VINA RESULT:      -8.0      4.924      6.879
REMARK  Name = Doxercalciferol
REMARK  12 active torsions:
REMARK  status: ('A' for Active; 'I' for Inactive)
REMARK    1  A    between atoms: C_2  and  C_24
REMARK    2  A    between atoms: C_11  and  C_12
REMARK    3  A    between atoms: C_13  and  C_14
REMARK    4  A    between atoms: C_17  and  O_18
REMARK    5  A    between atoms: C_20  and  O_21
REMARK    6  A    between atoms: C_24  and  C_25
REMARK    7  A    between atoms: C_24  and  C_26
REMARK    8  A    between atoms: C_27  and  C_28
REMARK    9  A    between atoms: C_28  and  C_29
REMARK   10  A    between atoms: C_28  and  C_30
REMARK   11  A    between atoms: C_30  and  C_31
REMARK   12  A    between atoms: C_30  and  C_32
REMARK                            x       y       z     vdW  Elec       q    Type
REMARK                         _______ _______ _______ _____ _____    ______ ____
ROOT
ATOM      1  C   UNL     1      -9.642   4.498 130.251  0.00  0.00    +0.000 C 
ATOM      2  C   UNL     1      -8.724   4.857 129.048  0.00  0.00    +0.000 C 
ATOM      3  C   UNL     1      -7.780   3.659 128.812  0.00  0.00    +0.000 C 
ATOM      4  C   UNL     1      -8.412   2.538 129.632  0.00  0.00    +0.000 C 
ATOM      5  C   UNL     1      -7.646   1.320 130.071  0.00  0.00    +0.000 C 
ATOM      6  C   UNL     1      -8.514   0.420 130.931  0.00  0.00    +0.000 C 
ATOM      7  C   UNL     1      -9.213   1.064 132.100  0.00  0.00    +0.000 C 
ATOM      8  C   UNL     1      -9.897   2.329 131.646  0.00  0.00    +0.000 C 
ATOM      9  C   UNL     1      -8.906   3.278 130.893  0.00  0.00    +0.000 C 
ATOM     10  C   UNL     1      -7.606   3.668 131.688  0.00  0.00    +0.000 C 
ATOM     11  C   UNL     1      -6.371   1.031 129.750  0.00  0.00    +0.000 C 
ENDROOT
BRANCH  11  12
ATOM     12  C   UNL     1      -5.726  -0.228 130.081  0.00  0.00    +0.000 C 
ATOM     13  C   UNL     1      -5.967  -1.430 129.504  0.00  0.00    +0.000 C 
ATOM     14  C   UNL     1      -5.341  -2.684 130.070  0.00  0.00    +0.000 C 
ATOM     15  C   UNL     1      -6.364  -3.800 130.343  0.00  0.00    +0.000 C 
ATOM     16  C   UNL     1      -7.289  -4.058 129.154  0.00  0.00    +0.000 C 
ATOM     17  C   UNL     1      -7.955  -2.778 128.677  0.00  0.00    +0.000 C 
ATOM     18  C   UNL     1      -6.925  -1.679 128.402  0.00  0.00    +0.000 C 
ATOM     19  C   UNL     1      -6.959  -0.907 127.298  0.00  0.00    +0.000 C 
BRANCH  15  20
ATOM     20  O   UNL     1      -7.126  -3.525 131.523  0.00  0.00    +0.000 OA
ATOM     21  H   UNL     1      -8.050  -3.354 131.273  0.00  0.00    +0.000 HD
ENDBRANCH  15  20
BRANCH  17  22
ATOM     22  O   UNL     1      -8.764  -3.054 127.536  0.00  0.00    +0.000 OA
ATOM     23  H   UNL     1      -8.492  -3.923 127.201  0.00  0.00    +0.000 HD
ENDBRANCH  17  22
ENDBRANCH  11  12
BRANCH   1  24
ATOM     24  C   UNL     1      -9.998   5.722 131.162  0.00  0.00    +0.000 C 
ATOM     25  C   UNL     1      -8.926   6.804 131.153  0.00  0.00    +0.000 C 
BRANCH  24  26
ATOM     26  C   UNL     1     -11.184   6.465 130.655  0.00  0.00    +0.000 C 
ATOM     27  C   UNL     1     -12.056   6.227 129.699  0.00  0.00    +0.000 C 
BRANCH  27  28
ATOM     28  C   UNL     1     -13.073   7.291 129.282  0.00  0.00    +0.000 C 
ATOM     29  C   UNL     1     -13.887   6.979 127.992  0.00  0.00    +0.000 C 
BRANCH  28  30
ATOM     30  C   UNL     1     -12.376   8.652 129.103  0.00  0.00    +0.000 C 
ATOM     31  C   UNL     1     -11.317   8.568 128.001  0.00  0.00    +0.000 C 
ATOM     32  C   UNL     1     -13.376   9.755 128.752  0.00  0.00    +0.000 C 
ENDBRANCH  28  30
ENDBRANCH  27  28
ENDBRANCH  24  26
ENDBRANCH   1  24
TORSDOF 7
ENDMDL
MODEL 4
REMARK VINA RESULT:      -8.0      4.125      7.016
REMARK  Name = Doxercalciferol
REMARK  12 active torsions:
REMARK  status: ('A' for Active; 'I' for Inactive)
REMARK    1  A    between atoms: C_2  and  C_24
REMARK    2  A    between atoms: C_11  and  C_12
REMARK    3  A    between atoms: C_13  and  C_14
REMARK    4  A    between atoms: C_17  and  O_18
REMARK    5  A    between atoms: C_20  and  O_21
REMARK    6  A    between atoms: C_24  and  C_25
REMARK    7  A    between atoms: C_24  and  C_26
REMARK    8  A    between atoms: C_27  and  C_28
REMARK    9  A    between atoms: C_28  and  C_29
REMARK   10  A    between atoms: C_28  and  C_30
REMARK   11  A    between atoms: C_30  and  C_31
REMARK   12  A    between atoms: C_30  and  C_32
REMARK                            x       y       z     vdW  Elec       q    Type
REMARK                         _______ _______ _______ _____ _____    ______ ____
ROOT
ATOM      1  C   UNL     1      -7.637  -1.376 128.353  0.00  0.00    +0.000 C 
ATOM      2  C   UNL     1      -7.107  -1.437 129.813  0.00  0.00    +0.000 C 
ATOM      3  C   UNL     1      -6.130  -0.257 130.001  0.00  0.00    +0.000 C 
ATOM      4  C   UNL     1      -6.402   0.629 128.789  0.00  0.00    +0.000 C 
ATOM      5  C   UNL     1      -5.420   1.656 128.296  0.00  0.00    +0.000 C 
ATOM      6  C   UNL     1      -5.933   2.328 127.035  0.00  0.00    +0.000 C 
ATOM      7  C   UNL     1      -6.372   1.423 125.913  0.00  0.00    +0.000 C 
ATOM      8  C   UNL     1      -7.284   0.352 126.454  0.00  0.00    +0.000 C 
ATOM      9  C   UNL     1      -6.631  -0.400 127.662  0.00  0.00    +0.000 C 
ATOM     10  C   UNL     1      -5.221  -1.037 127.382  0.00  0.00    +0.000 C 
ATOM     11  C   UNL     1      -4.248   1.971 128.878  0.00  0.00    +0.000 C 
ENDROOT
BRANCH  11  12
ATOM     12  C   UNL     1      -3.405   3.071 128.441  0.00  0.00    +0.000 C 
ATOM     13  C   UNL     1      -3.181   4.227 129.112  0.00  0.00    +0.000 C 
ATOM     14  C   UNL     1      -2.415   5.352 128.454  0.00  0.00    +0.000 C 
ATOM     15  C   UNL     1      -3.154   6.700 128.511  0.00  0.00    +0.000 C 
ATOM     16  C   UNL     1      -3.659   7.038 129.914  0.00  0.00    +0.000 C 
ATOM     17  C   UNL     1      -4.491   5.908 130.496  0.00  0.00    +0.000 C 
ATOM     18  C   UNL     1      -3.740   4.573 130.440  0.00  0.00    +0.000 C 
ATOM     19  C   UNL     1      -3.696   3.717 131.479  0.00  0.00    +0.000 C 
BRANCH  15  20
ATOM     20  O   UNL     1      -4.228   6.741 127.567  0.00  0.00    +0.000 OA
ATOM     21  H   UNL     1      -4.861   7.432 127.833  0.00  0.00    +0.000 HD
ENDBRANCH  15  20
BRANCH  17  22
ATOM     22  O   UNL     1      -4.894   6.241 131.823  0.00  0.00    +0.000 OA
ATOM     23  H   UNL     1      -4.345   5.715 132.425  0.00  0.00    +0.000 HD
ENDBRANCH  17  22
ENDBRANCH  11  12
BRANCH   1  24
ATOM     24  C   UNL     1      -7.877  -2.785 127.708  0.00  0.00    +0.000 C 
ATOM     25  C   UNL     1      -8.801  -3.669 128.535  0.00  0.00    +0.000 C 
BRANCH  24  26
ATOM     26  C   UNL     1      -8.621  -2.687 126.422  0.00  0.00    +0.000 C 
ATOM     27  C   UNL     1      -8.261  -2.791 125.161  0.00  0.00    +0.000 C 
BRANCH  27  28
ATOM     28  C   UNL     1      -9.237  -2.448 124.035  0.00  0.00    +0.000 C 
ATOM     29  C   UNL     1      -9.820  -3.661 123.252  0.00  0.00    +0.000 C 
BRANCH  28  30
ATOM     30  C   UNL     1      -8.573  -1.490 123.029  0.00  0.00    +0.000 C 
ATOM     31  C   UNL     1      -9.098  -0.065 123.222  0.00  0.00    +0.000 C 
ATOM     32  C   UNL     1      -7.050  -1.485 123.179  0.00  0.00    +0.000 C 
ENDBRANCH  28  30
ENDBRANCH  27  28
ENDBRANCH  24  26
ENDBRANCH   1  24
TORSDOF 7
ENDMDL
MODEL 5
REMARK VINA RESULT:      -7.9      4.930      7.896
REMARK  Name = Doxercalciferol
REMARK  12 active torsions:
REMARK  status: ('A' for Active; 'I' for Inactive)
REMARK    1  A    between atoms: C_2  and  C_24
REMARK    2  A    between atoms: C_11  and  C_12
REMARK    3  A    between atoms: C_13  and  C_14
REMARK    4  A    between atoms: C_17  and  O_18
REMARK    5  A    between atoms: C_20  and  O_21
REMARK    6  A    between atoms: C_24  and  C_25
REMARK    7  A    between atoms: C_24  and  C_26
REMARK    8  A    between atoms: C_27  and  C_28
REMARK    9  A    between atoms: C_28  and  C_29
REMARK   10  A    between atoms: C_28  and  C_30
REMARK   11  A    between atoms: C_30  and  C_31
REMARK   12  A    between atoms: C_30  and  C_32
REMARK                            x       y       z     vdW  Elec       q    Type
REMARK                         _______ _______ _______ _____ _____    ______ ____
ROOT
ATOM      1  C   UNL     1      -5.450  -0.856 129.501  0.00  0.00    +0.000 C 
ATOM      2  C   UNL     1      -4.239  -0.352 130.337  0.00  0.00    +0.000 C 
ATOM      3  C   UNL     1      -4.521   1.117 130.720  0.00  0.00    +0.000 C 
ATOM      4  C   UNL     1      -6.005   1.289 130.410  0.00  0.00    +0.000 C 
ATOM      5  C   UNL     1      -6.642   2.636 130.204  0.00  0.00    +0.000 C 
ATOM      6  C   UNL     1      -8.107   2.488 129.838  0.00  0.00    +0.000 C 
ATOM      7  C   UNL     1      -8.434   1.560 128.696  0.00  0.00    +0.000 C 
ATOM      8  C   UNL     1      -7.710   0.251 128.885  0.00  0.00    +0.000 C 
ATOM      9  C   UNL     1      -6.177   0.471 129.113  0.00  0.00    +0.000 C 
ATOM     10  C   UNL     1      -5.438   1.295 127.995  0.00  0.00    +0.000 C 
ATOM     11  C   UNL     1      -6.029   3.827 130.334  0.00  0.00    +0.000 C 
ENDROOT
BRANCH  11  12
ATOM     12  C   UNL     1      -6.726   5.100 130.265  0.00  0.00    +0.000 C 
ATOM     13  C   UNL     1      -7.591   5.592 131.184  0.00  0.00    +0.000 C 
ATOM     14  C   UNL     1      -8.370   6.855 130.895  0.00  0.00    +0.000 C 
ATOM     15  C   UNL     1      -9.885   6.694 131.111  0.00  0.00    +0.000 C 
ATOM     16  C   UNL     1     -10.224   6.058 132.459  0.00  0.00    +0.000 C 
ATOM     17  C   UNL     1      -9.477   4.750 132.664  0.00  0.00    +0.000 C 
ATOM     18  C   UNL     1      -7.971   4.927 132.452  0.00  0.00    +0.000 C 
ATOM     19  C   UNL     1      -7.051   4.409 133.289  0.00  0.00    +0.000 C 
BRANCH  15  20
ATOM     20  O   UNL     1     -10.485   5.957 130.042  0.00  0.00    +0.000 OA
ATOM     21  H   UNL     1     -10.324   5.007 130.179  0.00  0.00    +0.000 HD
ENDBRANCH  15  20
BRANCH  17  22
ATOM     22  O   UNL     1      -9.780   4.220 133.952  0.00  0.00    +0.000 OA
ATOM     23  H   UNL     1     -10.747   4.183 134.021  0.00  0.00    +0.000 HD
ENDBRANCH  17  22
ENDBRANCH  11  12
BRANCH   1  24
ATOM     24  C   UNL     1      -5.057  -1.858 128.361  0.00  0.00    +0.000 C 
ATOM     25  C   UNL     1      -4.355  -3.106 128.880  0.00  0.00    +0.000 C 
BRANCH  24  26
ATOM     26  C   UNL     1      -6.256  -2.438 127.695  0.00  0.00    +0.000 C 
ATOM     27  C   UNL     1      -6.819  -2.243 126.523  0.00  0.00    +0.000 C 
BRANCH  27  28
ATOM     28  C   UNL     1      -8.178  -2.863 126.192  0.00  0.00    +0.000 C 
ATOM     29  C   UNL     1      -8.822  -3.720 127.321  0.00  0.00    +0.000 C 
BRANCH  28  30
ATOM     30  C   UNL     1      -8.073  -3.725 124.921  0.00  0.00    +0.000 C 
ATOM     31  C   UNL     1      -9.222  -3.404 123.962  0.00  0.00    +0.000 C 
ATOM     32  C   UNL     1      -6.743  -3.504 124.199  0.00  0.00    +0.000 C 
ENDBRANCH  28  30
ENDBRANCH  27  28
ENDBRANCH  24  26
ENDBRANCH   1  24
TORSDOF 7
ENDMDL
MODEL 6
REMARK VINA RESULT:      -7.9      5.150      8.276
REMARK  Name = Doxercalciferol
REMARK  12 active torsions:
REMARK  status: ('A' for Active; 'I' for Inactive)
REMARK    1  A    between atoms: C_2  and  C_24
REMARK    2  A    between atoms: C_11  and  C_12
REMARK    3  A    between atoms: C_13  and  C_14
REMARK    4  A    between atoms: C_17  and  O_18
REMARK    5  A    between atoms: C_20  and  O_21
REMARK    6  A    between atoms: C_24  and  C_25
REMARK    7  A    between atoms: C_24  and  C_26
REMARK    8  A    between atoms: C_27  and  C_28
REMARK    9  A    between atoms: C_28  and  C_29
REMARK   10  A    between atoms: C_28  and  C_30
REMARK   11  A    between atoms: C_30  and  C_31
REMARK   12  A    between atoms: C_30  and  C_32
REMARK                            x       y       z     vdW  Elec       q    Type
REMARK                         _______ _______ _______ _____ _____    ______ ____
ROOT
ATOM      1  C   UNL     1      -3.989   4.865 128.196  0.00  0.00    +0.000 C 
ATOM      2  C   UNL     1      -4.543   5.217 126.787  0.00  0.00    +0.000 C 
ATOM      3  C   UNL     1      -5.083   3.913 126.162  0.00  0.00    +0.000 C 
ATOM      4  C   UNL     1      -5.151   2.950 127.345  0.00  0.00    +0.000 C 
ATOM      5  C   UNL     1      -5.197   1.457 127.177  0.00  0.00    +0.000 C 
ATOM      6  C   UNL     1      -5.184   0.763 128.526  0.00  0.00    +0.000 C 
ATOM      7  C   UNL     1      -4.092   1.161 129.485  0.00  0.00    +0.000 C 
ATOM      8  C   UNL     1      -4.011   2.664 129.565  0.00  0.00    +0.000 C 
ATOM      9  C   UNL     1      -3.879   3.307 128.143  0.00  0.00    +0.000 C 
ATOM     10  C   UNL     1      -2.677   2.786 127.273  0.00  0.00    +0.000 C 
ATOM     11  C   UNL     1      -5.259   0.796 126.005  0.00  0.00    +0.000 C 
ENDROOT
BRANCH  11  12
ATOM     12  C   UNL     1      -5.447  -0.641 125.904  0.00  0.00    +0.000 C 
ATOM     13  C   UNL     1      -6.362  -1.279 125.135  0.00  0.00    +0.000 C 
ATOM     14  C   UNL     1      -6.554  -2.773 125.262  0.00  0.00    +0.000 C 
ATOM     15  C   UNL     1      -8.022  -3.178 125.483  0.00  0.00    +0.000 C 
ATOM     16  C   UNL     1      -8.973  -2.519 124.484  0.00  0.00    +0.000 C 
ATOM     17  C   UNL     1      -8.796  -1.010 124.455  0.00  0.00    +0.000 C 
ATOM     18  C   UNL     1      -7.332  -0.622 124.227  0.00  0.00    +0.000 C 
ATOM     19  C   UNL     1      -6.958   0.336 123.356  0.00  0.00    +0.000 C 
BRANCH  15  20
ATOM     20  O   UNL     1      -8.436  -2.907 126.825  0.00  0.00    +0.000 OA
ATOM     21  H   UNL     1      -9.014  -2.124 126.830  0.00  0.00    +0.000 HD
ENDBRANCH  15  20
BRANCH  17  22
ATOM     22  O   UNL     1      -9.661  -0.443 123.474  0.00  0.00    +0.000 OA
ATOM     23  H   UNL     1      -9.095  -0.010 122.815  0.00  0.00    +0.000 HD
ENDBRANCH  17  22
ENDBRANCH  11  12
BRANCH   1  24
ATOM     24  C   UNL     1      -2.722   5.693 128.602  0.00  0.00    +0.000 C 
ATOM     25  C   UNL     1      -2.871   7.183 128.329  0.00  0.00    +0.000 C 
BRANCH  24  26
ATOM     26  C   UNL     1      -2.495   5.674 130.074  0.00  0.00    +0.000 C 
ATOM     27  C   UNL     1      -1.738   6.389 130.879  0.00  0.00    +0.000 C 
BRANCH  27  28
ATOM     28  C   UNL     1      -1.573   6.002 132.349  0.00  0.00    +0.000 C 
ATOM     29  C   UNL     1      -1.901   4.521 132.699  0.00  0.00    +0.000 C 
BRANCH  28  30
ATOM     30  C   UNL     1      -2.434   6.917 133.239  0.00  0.00    +0.000 C 
ATOM     31  C   UNL     1      -2.509   8.324 132.643  0.00  0.00    +0.000 C 
ATOM     32  C   UNL     1      -3.852   6.368 133.403  0.00  0.00    +0.000 C 
ENDBRANCH  28  30
ENDBRANCH  27  28
ENDBRANCH  24  26
ENDBRANCH   1  24
TORSDOF 7
ENDMDL
MODEL 7
REMARK VINA RESULT:      -7.9      5.288      7.934
REMARK  Name = Doxercalciferol
REMARK  12 active torsions:
REMARK  status: ('A' for Active; 'I' for Inactive)
REMARK    1  A    between atoms: C_2  and  C_24
REMARK    2  A    between atoms: C_11  and  C_12
REMARK    3  A    between atoms: C_13  and  C_14
REMARK    4  A    between atoms: C_17  and  O_18
REMARK    5  A    between atoms: C_20  and  O_21
REMARK    6  A    between atoms: C_24  and  C_25
REMARK    7  A    between atoms: C_24  and  C_26
REMARK    8  A    between atoms: C_27  and  C_28
REMARK    9  A    between atoms: C_28  and  C_29
REMARK   10  A    between atoms: C_28  and  C_30
REMARK   11  A    between atoms: C_30  and  C_31
REMARK   12  A    between atoms: C_30  and  C_32
REMARK                            x       y       z     vdW  Elec       q    Type
REMARK                         _______ _______ _______ _____ _____    ______ ____
ROOT
ATOM      1  C   UNL     1      -8.081   4.599 131.971  0.00  0.00    +0.000 C 
ATOM      2  C   UNL     1      -9.311   3.734 132.364  0.00  0.00    +0.000 C 
ATOM      3  C   UNL     1      -9.241   2.429 131.542  0.00  0.00    +0.000 C 
ATOM      4  C   UNL     1      -7.818   2.430 130.989  0.00  0.00    +0.000 C 
ATOM      5  C   UNL     1      -7.408   1.610 129.797  0.00  0.00    +0.000 C 
ATOM      6  C   UNL     1      -5.957   1.873 129.437  0.00  0.00    +0.000 C 
ATOM      7  C   UNL     1      -5.549   3.313 129.264  0.00  0.00    +0.000 C 
ATOM      8  C   UNL     1      -6.051   4.126 130.430  0.00  0.00    +0.000 C 
ATOM      9  C   UNL     1      -7.587   3.919 130.654  0.00  0.00    +0.000 C 
ATOM     10  C   UNL     1      -8.499   4.215 129.407  0.00  0.00    +0.000 C 
ATOM     11  C   UNL     1      -8.191   0.742 129.129  0.00  0.00    +0.000 C 
ENDROOT
BRANCH  11  12
ATOM     12  C   UNL     1      -7.702  -0.130 128.075  0.00  0.00    +0.000 C 
ATOM     13  C   UNL     1      -7.835   0.070 126.741  0.00  0.00    +0.000 C 
ATOM     14  C   UNL     1      -7.424  -1.011 125.766  0.00  0.00    +0.000 C 
ATOM     15  C   UNL     1      -8.526  -1.358 124.750  0.00  0.00    +0.000 C 
ATOM     16  C   UNL     1      -9.124  -0.120 124.081  0.00  0.00    +0.000 C 
ATOM     17  C   UNL     1      -9.595   0.897 125.107  0.00  0.00    +0.000 C 
ATOM     18  C   UNL     1      -8.486   1.239 126.107  0.00  0.00    +0.000 C 
ATOM     19  C   UNL     1      -8.205   2.503 126.480  0.00  0.00    +0.000 C 
BRANCH  15  20
ATOM     20  O   UNL     1      -9.554  -2.150 125.354  0.00  0.00    +0.000 OA
ATOM     21  H   UNL     1      -9.953  -2.724 124.677  0.00  0.00    +0.000 HD
ENDBRANCH  15  20
BRANCH  17  22
ATOM     22  O   UNL     1     -10.094   2.055 124.441  0.00  0.00    +0.000 OA
ATOM     23  H   UNL     1      -9.618   2.818 124.807  0.00  0.00    +0.000 HD
ENDBRANCH  17  22
ENDBRANCH  11  12
BRANCH   1  24
ATOM     24  C   UNL     1      -8.370   6.140 131.956  0.00  0.00    +0.000 C 
ATOM     25  C   UNL     1      -7.377   6.925 131.110  0.00  0.00    +0.000 C 
BRANCH  24  26
ATOM     26  C   UNL     1      -9.660   6.456 131.283  0.00  0.00    +0.000 C 
ATOM     27  C   UNL     1      -9.983   7.234 130.273  0.00  0.00    +0.000 C 
BRANCH  27  28
ATOM     28  C   UNL     1     -11.448   7.502 129.927  0.00  0.00    +0.000 C 
ATOM     29  C   UNL     1     -12.259   6.272 129.421  0.00  0.00    +0.000 C 
BRANCH  28  30
ATOM     30  C   UNL     1     -11.550   8.620 128.874  0.00  0.00    +0.000 C 
ATOM     31  C   UNL     1     -10.777   8.236 127.610  0.00  0.00    +0.000 C 
ATOM     32  C   UNL     1     -13.004   8.911 128.500  0.00  0.00    +0.000 C 
ENDBRANCH  28  30
ENDBRANCH  27  28
ENDBRANCH  24  26
ENDBRANCH   1  24
TORSDOF 7
ENDMDL
MODEL 8
REMARK VINA RESULT:      -7.9      4.676      8.061
REMARK  Name = Doxercalciferol
REMARK  12 active torsions:
REMARK  status: ('A' for Active; 'I' for Inactive)
REMARK    1  A    between atoms: C_2  and  C_24
REMARK    2  A    between atoms: C_11  and  C_12
REMARK    3  A    between atoms: C_13  and  C_14
REMARK    4  A    between atoms: C_17  and  O_18
REMARK    5  A    between atoms: C_20  and  O_21
REMARK    6  A    between atoms: C_24  and  C_25
REMARK    7  A    between atoms: C_24  and  C_26
REMARK    8  A    between atoms: C_27  and  C_28
REMARK    9  A    between atoms: C_28  and  C_29
REMARK   10  A    between atoms: C_28  and  C_30
REMARK   11  A    between atoms: C_30  and  C_31
REMARK   12  A    between atoms: C_30  and  C_32
REMARK                            x       y       z     vdW  Elec       q    Type
REMARK                         _______ _______ _______ _____ _____    ______ ____
ROOT
ATOM      1  C   UNL     1      -7.802  -1.207 129.569  0.00  0.00    +0.000 C 
ATOM      2  C   UNL     1      -7.705  -1.133 131.120  0.00  0.00    +0.000 C 
ATOM      3  C   UNL     1      -7.753   0.357 131.516  0.00  0.00    +0.000 C 
ATOM      4  C   UNL     1      -8.229   1.052 130.243  0.00  0.00    +0.000 C 
ATOM      5  C   UNL     1      -8.020   2.519 129.991  0.00  0.00    +0.000 C 
ATOM      6  C   UNL     1      -8.531   2.906 128.615  0.00  0.00    +0.000 C 
ATOM      7  C   UNL     1      -8.037   2.087 127.451  0.00  0.00    +0.000 C 
ATOM      8  C   UNL     1      -8.176   0.620 127.770  0.00  0.00    +0.000 C 
ATOM      9  C   UNL     1      -7.499   0.263 129.135  0.00  0.00    +0.000 C 
ATOM     10  C   UNL     1      -5.983   0.662 129.264  0.00  0.00    +0.000 C 
ATOM     11  C   UNL     1      -7.474   3.399 130.852  0.00  0.00    +0.000 C 
ENDROOT
BRANCH  11  12
ATOM     12  C   UNL     1      -7.429   4.831 130.614  0.00  0.00    +0.000 C 
ATOM     13  C   UNL     1      -8.378   5.734 130.960  0.00  0.00    +0.000 C 
ATOM     14  C   UNL     1      -8.269   7.168 130.495  0.00  0.00    +0.000 C 
ATOM     15  C   UNL     1      -9.545   7.678 129.802  0.00  0.00    +0.000 C 
ATOM     16  C   UNL     1     -10.811   7.386 130.607  0.00  0.00    +0.000 C 
ATOM     17  C   UNL     1     -10.912   5.916 130.978  0.00  0.00    +0.000 C 
ATOM     18  C   UNL     1      -9.639   5.425 131.674  0.00  0.00    +0.000 C 
ATOM     19  C   UNL     1      -9.663   4.662 132.784  0.00  0.00    +0.000 C 
BRANCH  15  20
ATOM     20  O   UNL     1      -9.659   7.149 128.477  0.00  0.00    +0.000 OA
ATOM     21  H   UNL     1      -9.772   6.184 128.527  0.00  0.00    +0.000 HD
ENDBRANCH  15  20
BRANCH  17  22
ATOM     22  O   UNL     1     -12.076   5.700 131.773  0.00  0.00    +0.000 OA
ATOM     23  H   UNL     1     -12.039   4.781 132.083  0.00  0.00    +0.000 HD
ENDBRANCH  17  22
ENDBRANCH  11  12
BRANCH   1  24
ATOM     24  C   UNL     1      -6.956  -2.365 128.937  0.00  0.00    +0.000 C 
ATOM     25  C   UNL     1      -7.219  -3.718 129.586  0.00  0.00    +0.000 C 
BRANCH  24  26
ATOM     26  C   UNL     1      -7.342  -2.626 127.523  0.00  0.00    +0.000 C 
ATOM     27  C   UNL     1      -6.773  -2.356 126.368  0.00  0.00    +0.000 C 
BRANCH  27  28
ATOM     28  C   UNL     1      -7.518  -2.588 125.053  0.00  0.00    +0.000 C 
ATOM     29  C   UNL     1      -8.677  -3.627 125.107  0.00  0.00    +0.000 C 
BRANCH  28  30
ATOM     30  C   UNL     1      -6.531  -3.013 123.951  0.00  0.00    +0.000 C 
ATOM     31  C   UNL     1      -6.481  -1.958 122.843  0.00  0.00    +0.000 C 
ATOM     32  C   UNL     1      -5.121  -3.218 124.508  0.00  0.00    +0.000 C 
ENDBRANCH  28  30
ENDBRANCH  27  28
ENDBRANCH  24  26
ENDBRANCH   1  24
TORSDOF 7
ENDMDL
MODEL 9
REMARK VINA RESULT:      -7.9      5.229      6.839
REMARK  Name = Doxercalciferol
REMARK  12 active torsions:
REMARK  status: ('A' for Active; 'I' for Inactive)
REMARK    1  A    between atoms: C_2  and  C_24
REMARK    2  A    between atoms: C_11  and  C_12
REMARK    3  A    between atoms: C_13  and  C_14
REMARK    4  A    between atoms: C_17  and  O_18
REMARK    5  A    between atoms: C_20  and  O_21
REMARK    6  A    between atoms: C_24  and  C_25
REMARK    7  A    between atoms: C_24  and  C_26
REMARK    8  A    between atoms: C_27  and  C_28
REMARK    9  A    between atoms: C_28  and  C_29
REMARK   10  A    between atoms: C_28  and  C_30
REMARK   11  A    between atoms: C_30  and  C_31
REMARK   12  A    between atoms: C_30  and  C_32
REMARK                            x       y       z     vdW  Elec       q    Type
REMARK                         _______ _______ _______ _____ _____    ______ ____
ROOT
ATOM      1  C   UNL     1      -9.239   4.674 130.087  0.00  0.00    +0.000 C 
ATOM      2  C   UNL     1      -8.131   4.768 129.000  0.00  0.00    +0.000 C 
ATOM      3  C   UNL     1      -7.380   3.420 128.986  0.00  0.00    +0.000 C 
ATOM      4  C   UNL     1      -8.290   2.495 129.789  0.00  0.00    +0.000 C 
ATOM      5  C   UNL     1      -7.801   1.220 130.418  0.00  0.00    +0.000 C 
ATOM      6  C   UNL     1      -8.909   0.553 131.213  0.00  0.00    +0.000 C 
ATOM      7  C   UNL     1      -9.630   1.407 132.224  0.00  0.00    +0.000 C 
ATOM      8  C   UNL     1     -10.028   2.715 131.589  0.00  0.00    +0.000 C 
ATOM      9  C   UNL     1      -8.805   3.420 130.912  0.00  0.00    +0.000 C 
ATOM     10  C   UNL     1      -7.568   3.675 131.849  0.00  0.00    +0.000 C 
ATOM     11  C   UNL     1      -6.563   0.704 130.299  0.00  0.00    +0.000 C 
ENDROOT
BRANCH  11  12
ATOM     12  C   UNL     1      -6.186  -0.603 130.808  0.00  0.00    +0.000 C 
ATOM     13  C   UNL     1      -5.413  -0.851 131.893  0.00  0.00    +0.000 C 
ATOM     14  C   UNL     1      -4.965  -2.261 132.202  0.00  0.00    +0.000 C 
ATOM     15  C   UNL     1      -3.446  -2.381 132.411  0.00  0.00    +0.000 C 
ATOM     16  C   UNL     1      -2.899  -1.336 133.383  0.00  0.00    +0.000 C 
ATOM     17  C   UNL     1      -3.309   0.071 132.980  0.00  0.00    +0.000 C 
ATOM     18  C   UNL     1      -4.825   0.177 132.783  0.00  0.00    +0.000 C 
ATOM     19  C   UNL     1      -5.554   1.197 133.275  0.00  0.00    +0.000 C 
BRANCH  15  20
ATOM     20  O   UNL     1      -2.747  -2.323 131.164  0.00  0.00    +0.000 OA
ATOM     21  H   UNL     1      -3.316  -2.684 130.462  0.00  0.00    +0.000 HD
ENDBRANCH  15  20
BRANCH  17  22
ATOM     22  O   UNL     1      -2.826   1.006 133.941  0.00  0.00    +0.000 OA
ATOM     23  H   UNL     1      -1.886   1.149 133.747  0.00  0.00    +0.000 HD
ENDBRANCH  17  22
ENDBRANCH  11  12
BRANCH   1  24
ATOM     24  C   UNL     1      -9.494   6.021 130.848  0.00  0.00    +0.000 C 
ATOM     25  C   UNL     1      -8.274   6.932 130.873  0.00  0.00    +0.000 C 
BRANCH  24  26
ATOM     26  C   UNL     1     -10.495   6.872 130.148  0.00  0.00    +0.000 C 
ATOM     27  C   UNL     1     -10.410   7.739 129.162  0.00  0.00    +0.000 C 
BRANCH  27  28
ATOM     28  C   UNL     1     -11.606   8.613 128.781  0.00  0.00    +0.000 C 
ATOM     29  C   UNL     1     -12.687   8.799 129.886  0.00  0.00    +0.000 C 
BRANCH  28  30
ATOM     30  C   UNL     1     -12.289   8.056 127.518  0.00  0.00    +0.000 C 
ATOM     31  C   UNL     1     -11.257   7.401 126.597  0.00  0.00    +0.000 C 
ATOM     32  C   UNL     1     -13.368   7.030 127.868  0.00  0.00    +0.000 C 
ENDBRANCH  28  30
ENDBRANCH  27  28
ENDBRANCH  24  26
ENDBRANCH   1  24
TORSDOF 7
ENDMDL
