MODEL 1
REMARK VINA RESULT:      -8.8      0.000      0.000
REMARK  Name = Doxorubicin
REMARK  13 active torsions:
REMARK  status: ('A' for Active; 'I' for Inactive)
REMARK    1  A    between atoms: C_1  and  O_2
REMARK    2  A    between atoms: O_2  and  C_3
REMARK    3  A    between atoms: C_12  and  O_13
REMARK    4  A    between atoms: C_17  and  O_18
REMARK    5  A    between atoms: C_17  and  C_31
REMARK    6  A    between atoms: C_20  and  O_21
REMARK    7  A    between atoms: O_21  and  C_22
REMARK    8  A    between atoms: C_24  and  N_25
REMARK    9  A    between atoms: C_26  and  O_27
REMARK   10  A    between atoms: C_28  and  C_29
REMARK   11  A    between atoms: C_31  and  C_33
REMARK   12  A    between atoms: C_33  and  O_34
REMARK   13  A    between atoms: C_35  and  O_36
REMARK                            x       y       z     vdW  Elec       q    Type
REMARK                         _______ _______ _______ _____ _____    ______ ____
ROOT
ATOM      1  C   UNL     1      -8.356  -1.212 123.758  0.00  0.00    +0.000 A 
ATOM      2  C   UNL     1      -8.165  -2.477 123.184  0.00  0.00    +0.000 A 
ATOM      3  C   UNL     1      -7.758  -3.568 123.959  0.00  0.00    +0.000 A 
ATOM      4  C   UNL     1      -7.549  -3.403 125.320  0.00  0.00    +0.000 A 
ATOM      5  C   UNL     1      -7.790  -2.157 125.909  0.00  0.00    +0.000 A 
ATOM      6  C   UNL     1      -8.232  -1.076 125.142  0.00  0.00    +0.000 A 
ATOM      7  C   UNL     1      -8.665   0.143 125.841  0.00  0.00    +0.000 C 
ATOM      8  O   UNL     1      -9.392   0.981 125.332  0.00  0.00    +0.000 OA
ATOM      9  C   UNL     1      -8.276   0.357 127.231  0.00  0.00    +0.000 A 
ATOM     10  C   UNL     1      -8.451   1.625 127.787  0.00  0.00    +0.000 A 
ATOM     11  C   UNL     1      -8.241   1.817 129.148  0.00  0.00    +0.000 A 
ATOM     12  C   UNL     1      -7.844   0.726 129.957  0.00  0.00    +0.000 A 
ATOM     13  C   UNL     1      -7.625   0.903 131.441  0.00  0.00    +0.000 C 
ATOM     14  C   UNL     1      -8.275   2.166 131.986  0.00  0.00    +0.000 C 
ATOM     15  C   UNL     1      -7.829   3.327 131.091  0.00  0.00    +0.000 C 
ATOM     16  C   UNL     1      -8.481   3.195 129.718  0.00  0.00    +0.000 C 
ATOM     17  C   UNL     1      -7.596  -0.519 129.366  0.00  0.00    +0.000 A 
ATOM     18  C   UNL     1      -7.814  -0.708 128.000  0.00  0.00    +0.000 A 
ATOM     19  C   UNL     1      -7.581  -2.025 127.361  0.00  0.00    +0.000 C 
ATOM     20  O   UNL     1      -7.197  -3.002 127.980  0.00  0.00    +0.000 OA
ENDROOT
BRANCH   1  22
ATOM     21  C   UNL     1     -10.099  -0.319 122.419  0.00  0.00    +0.000 C 
ATOM     22  O   UNL     1      -8.755  -0.219 122.903  0.00  0.00    +0.000 OA
ENDBRANCH   1  22
BRANCH  10  23
ATOM     23  O   UNL     1      -8.808   2.722 127.040  0.00  0.00    +0.000 OA
ATOM     24  H   UNL     1      -8.093   2.915 126.390  0.00  0.00    +0.000 HD
ENDBRANCH  10  23
BRANCH  14  25
ATOM     25  O   UNL     1      -9.692   1.963 132.005  0.00  0.00    +0.000 OA
ATOM     26  H   UNL     1     -10.018   1.721 131.113  0.00  0.00    +0.000 HD
ENDBRANCH  14  25
BRANCH  14  27
ATOM     27  C   UNL     1      -7.857   2.490 133.429  0.00  0.00    +0.000 C 
ATOM     28  O   UNL     1      -7.200   1.702 134.118  0.00  0.00    +0.000 OA
BRANCH  27  29
ATOM     29  C   UNL     1      -8.409   3.772 134.042  0.00  0.00    +0.000 C 
BRANCH  29  30
ATOM     30  O   UNL     1      -9.820   3.814 134.089  0.00  0.00    +0.000 OA
ATOM     31  H   UNL     1     -10.075   3.600 135.006  0.00  0.00    +0.000 HD
ENDBRANCH  29  30
ENDBRANCH  27  29
ENDBRANCH  14  27
BRANCH  17  32
ATOM     32  O   UNL     1      -7.137  -1.566 130.112  0.00  0.00    +0.000 OA
ATOM     33  H   UNL     1      -7.557  -1.650 130.977  0.00  0.00    +0.000 HD
ENDBRANCH  17  32
BRANCH  16  34
ATOM     34  O   UNL     1      -9.902   3.409 129.767  0.00  0.00    +0.000 OA
BRANCH  34  35
ATOM     35  C   UNL     1     -10.234   4.788 129.948  0.00  0.00    +0.000 C 
ATOM     36  C   UNL     1      -9.609   5.664 128.856  0.00  0.00    +0.000 C 
ATOM     37  C   UNL     1      -9.957   7.138 129.001  0.00  0.00    +0.000 C 
ATOM     38  C   UNL     1     -11.484   7.248 129.174  0.00  0.00    +0.000 C 
ATOM     39  C   UNL     1     -11.991   6.351 130.322  0.00  0.00    +0.000 C 
ATOM     40  C   UNL     1     -11.503   6.789 131.714  0.00  0.00    +0.000 C 
ATOM     41  O   UNL     1     -11.647   4.981 130.036  0.00  0.00    +0.000 OA
BRANCH  37  42
ATOM     42  N   UNL     1      -9.134   7.789 130.040  0.00  0.00    +0.000 NA
ATOM     43  H   UNL     1      -8.140   7.784 129.838  0.00  0.00    +0.000 HD
ATOM     44  H   UNL     1      -9.259   7.324 130.937  0.00  0.00    +0.000 HD
ENDBRANCH  37  42
BRANCH  38  45
ATOM     45  O   UNL     1     -11.885   8.607 129.311  0.00  0.00    +0.000 OA
ATOM     46  H   UNL     1     -12.637   8.644 129.919  0.00  0.00    +0.000 HD
ENDBRANCH  38  45
ENDBRANCH  34  35
ENDBRANCH  16  34
TORSDOF 11
ENDMDL
MODEL 2
REMARK VINA RESULT:      -8.5      2.204      3.177
REMARK  Name = Doxorubicin
REMARK  13 active torsions:
REMARK  status: ('A' for Active; 'I' for Inactive)
REMARK    1  A    between atoms: C_1  and  O_2
REMARK    2  A    between atoms: O_2  and  C_3
REMARK    3  A    between atoms: C_12  and  O_13
REMARK    4  A    between atoms: C_17  and  O_18
REMARK    5  A    between atoms: C_17  and  C_31
REMARK    6  A    between atoms: C_20  and  O_21
REMARK    7  A    between atoms: O_21  and  C_22
REMARK    8  A    between atoms: C_24  and  N_25
REMARK    9  A    between atoms: C_26  and  O_27
REMARK   10  A    between atoms: C_28  and  C_29
REMARK   11  A    between atoms: C_31  and  C_33
REMARK   12  A    between atoms: C_33  and  O_34
REMARK   13  A    between atoms: C_35  and  O_36
REMARK                            x       y       z     vdW  Elec       q    Type
REMARK                         _______ _______ _______ _____ _____    ______ ____
ROOT
ATOM      1  C   UNL     1      -8.831  -0.537 123.663  0.00  0.00    +0.000 A 
ATOM      2  C   UNL     1      -9.100  -1.455 122.637  0.00  0.00    +0.000 A 
ATOM      3  C   UNL     1      -9.108  -2.832 122.884  0.00  0.00    +0.000 A 
ATOM      4  C   UNL     1      -8.856  -3.301 124.164  0.00  0.00    +0.000 A 
ATOM      5  C   UNL     1      -8.641  -2.390 125.203  0.00  0.00    +0.000 A 
ATOM      6  C   UNL     1      -8.669  -1.013 124.966  0.00  0.00    +0.000 A 
ATOM      7  C   UNL     1      -8.643  -0.106 126.123  0.00  0.00    +0.000 C 
ATOM      8  O   UNL     1      -9.025   1.052 126.071  0.00  0.00    +0.000 OA
ATOM      9  C   UNL     1      -8.206  -0.603 127.423  0.00  0.00    +0.000 A 
ATOM     10  C   UNL     1      -7.921   0.319 128.430  0.00  0.00    +0.000 A 
ATOM     11  C   UNL     1      -7.660  -0.127 129.721  0.00  0.00    +0.000 A 
ATOM     12  C   UNL     1      -7.677  -1.515 130.000  0.00  0.00    +0.000 A 
ATOM     13  C   UNL     1      -7.411  -2.026 131.396  0.00  0.00    +0.000 C 
ATOM     14  C   UNL     1      -7.573  -0.950 132.458  0.00  0.00    +0.000 C 
ATOM     15  C   UNL     1      -6.742   0.257 132.010  0.00  0.00    +0.000 C 
ATOM     16  C   UNL     1      -7.396   0.904 130.792  0.00  0.00    +0.000 C 
ATOM     17  C   UNL     1      -7.885  -2.427 128.959  0.00  0.00    +0.000 A 
ATOM     18  C   UNL     1      -8.153  -1.974 127.666  0.00  0.00    +0.000 A 
ATOM     19  C   UNL     1      -8.401  -2.924 126.555  0.00  0.00    +0.000 C 
ATOM     20  O   UNL     1      -8.390  -4.133 126.704  0.00  0.00    +0.000 OA
ENDROOT
BRANCH   1  22
ATOM     21  C   UNL     1     -10.056   1.242 122.682  0.00  0.00    +0.000 C 
ATOM     22  O   UNL     1      -8.850   0.785 123.306  0.00  0.00    +0.000 OA
ENDBRANCH   1  22
BRANCH  10  23
ATOM     23  O   UNL     1      -7.865   1.674 128.205  0.00  0.00    +0.000 OA
ATOM     24  H   UNL     1      -8.049   1.848 127.253  0.00  0.00    +0.000 HD
ENDBRANCH  10  23
BRANCH  14  25
ATOM     25  O   UNL     1      -8.970  -0.670 132.598  0.00  0.00    +0.000 OA
ATOM     26  H   UNL     1      -9.506  -1.413 132.252  0.00  0.00    +0.000 HD
ENDBRANCH  14  25
BRANCH  14  27
ATOM     27  C   UNL     1      -7.070  -1.384 133.845  0.00  0.00    +0.000 C 
ATOM     28  O   UNL     1      -6.322  -0.675 134.526  0.00  0.00    +0.000 OA
BRANCH  27  29
ATOM     29  C   UNL     1      -7.413  -2.799 134.298  0.00  0.00    +0.000 C 
BRANCH  29  30
ATOM     30  O   UNL     1      -8.793  -2.999 134.522  0.00  0.00    +0.000 OA
ATOM     31  H   UNL     1      -9.139  -3.465 133.737  0.00  0.00    +0.000 HD
ENDBRANCH  29  30
ENDBRANCH  27  29
ENDBRANCH  14  27
BRANCH  17  32
ATOM     32  O   UNL     1      -7.829  -3.771 129.187  0.00  0.00    +0.000 OA
ATOM     33  H   UNL     1      -7.040  -4.060 129.662  0.00  0.00    +0.000 HD
ENDBRANCH  17  32
BRANCH  16  34
ATOM     34  O   UNL     1      -8.649   1.532 131.115  0.00  0.00    +0.000 OA
BRANCH  34  35
ATOM     35  C   UNL     1      -8.472   2.736 131.865  0.00  0.00    +0.000 C 
ATOM     36  C   UNL     1      -8.662   3.978 130.986  0.00  0.00    +0.000 C 
ATOM     37  C   UNL     1      -8.503   5.282 131.752  0.00  0.00    +0.000 C 
ATOM     38  C   UNL     1      -9.382   5.198 133.015  0.00  0.00    +0.000 C 
ATOM     39  C   UNL     1      -9.076   3.928 133.836  0.00  0.00    +0.000 C 
ATOM     40  C   UNL     1      -7.667   3.912 134.454  0.00  0.00    +0.000 C 
ATOM     41  O   UNL     1      -9.318   2.768 133.015  0.00  0.00    +0.000 OA
BRANCH  37  42
ATOM     42  N   UNL     1      -7.079   5.613 131.969  0.00  0.00    +0.000 NA
ATOM     43  H   UNL     1      -6.565   4.896 132.471  0.00  0.00    +0.000 HD
ATOM     44  H   UNL     1      -6.990   6.474 132.504  0.00  0.00    +0.000 HD
ENDBRANCH  37  42
BRANCH  38  45
ATOM     45  O   UNL     1      -9.285   6.393 133.783  0.00  0.00    +0.000 OA
ATOM     46  H   UNL     1      -9.953   7.016 133.463  0.00  0.00    +0.000 HD
ENDBRANCH  38  45
ENDBRANCH  34  35
ENDBRANCH  16  34
TORSDOF 11
ENDMDL
MODEL 3
REMARK VINA RESULT:      -8.5      2.338      2.906
REMARK  Name = Doxorubicin
REMARK  13 active torsions:
REMARK  status: ('A' for Active; 'I' for Inactive)
REMARK    1  A    between atoms: C_1  and  O_2
REMARK    2  A    between atoms: O_2  and  C_3
REMARK    3  A    between atoms: C_12  and  O_13
REMARK    4  A    between atoms: C_17  and  O_18
REMARK    5  A    between atoms: C_17  and  C_31
REMARK    6  A    between atoms: C_20  and  O_21
REMARK    7  A    between atoms: O_21  and  C_22
REMARK    8  A    between atoms: C_24  and  N_25
REMARK    9  A    between atoms: C_26  and  O_27
REMARK   10  A    between atoms: C_28  and  C_29
REMARK   11  A    between atoms: C_31  and  C_33
REMARK   12  A    between atoms: C_33  and  O_34
REMARK   13  A    between atoms: C_35  and  O_36
REMARK                            x       y       z     vdW  Elec       q    Type
REMARK                         _______ _______ _______ _____ _____    ______ ____
ROOT
ATOM      1  C   UNL     1      -7.435   0.995 124.217  0.00  0.00    +0.000 A 
ATOM      2  C   UNL     1      -6.915  -0.181 123.657  0.00  0.00    +0.000 A 
ATOM      3  C   UNL     1      -6.051  -1.006 124.383  0.00  0.00    +0.000 A 
ATOM      4  C   UNL     1      -5.708  -0.666 125.683  0.00  0.00    +0.000 A 
ATOM      5  C   UNL     1      -6.266   0.476 126.267  0.00  0.00    +0.000 A 
ATOM      6  C   UNL     1      -7.158   1.282 125.555  0.00  0.00    +0.000 A 
ATOM      7  C   UNL     1      -7.868   2.345 126.281  0.00  0.00    +0.000 C 
ATOM      8  O   UNL     1      -8.904   2.850 125.879  0.00  0.00    +0.000 OA
ATOM      9  C   UNL     1      -7.371   2.794 127.578  0.00  0.00    +0.000 A 
ATOM     10  C   UNL     1      -7.879   3.976 128.116  0.00  0.00    +0.000 A 
ATOM     11  C   UNL     1      -7.545   4.342 129.416  0.00  0.00    +0.000 A 
ATOM     12  C   UNL     1      -6.685   3.515 130.178  0.00  0.00    +0.000 A 
ATOM     13  C   UNL     1      -6.317   3.881 131.596  0.00  0.00    +0.000 C 
ATOM     14  C   UNL     1      -7.267   4.901 132.206  0.00  0.00    +0.000 C 
ATOM     15  C   UNL     1      -7.381   6.064 131.215  0.00  0.00    +0.000 C 
ATOM     16  C   UNL     1      -8.149   5.607 129.977  0.00  0.00    +0.000 C 
ATOM     17  C   UNL     1      -6.121   2.377 129.590  0.00  0.00    +0.000 A 
ATOM     18  C   UNL     1      -6.464   2.010 128.288  0.00  0.00    +0.000 A 
ATOM     19  C   UNL     1      -5.897   0.794 127.658  0.00  0.00    +0.000 C 
ATOM     20  O   UNL     1      -5.117   0.055 128.231  0.00  0.00    +0.000 OA
ENDROOT
BRANCH   1  22
ATOM     21  C   UNL     1      -9.470   1.059 122.998  0.00  0.00    +0.000 C 
ATOM     22  O   UNL     1      -8.271   1.724 123.413  0.00  0.00    +0.000 OA
ENDBRANCH   1  22
BRANCH  10  23
ATOM     23  O   UNL     1      -8.696   4.826 127.409  0.00  0.00    +0.000 OA
ATOM     24  H   UNL     1      -8.951   4.393 126.562  0.00  0.00    +0.000 HD
ENDBRANCH  10  23
BRANCH  14  25
ATOM     25  O   UNL     1      -8.511   4.245 132.473  0.00  0.00    +0.000 OA
ATOM     26  H   UNL     1      -9.258   4.873 132.383  0.00  0.00    +0.000 HD
ENDBRANCH  14  25
BRANCH  14  27
ATOM     27  C   UNL     1      -6.772   5.467 133.547  0.00  0.00    +0.000 C 
ATOM     28  O   UNL     1      -5.594   5.790 133.731  0.00  0.00    +0.000 OA
BRANCH  27  29
ATOM     29  C   UNL     1      -7.765   5.484 134.704  0.00  0.00    +0.000 C 
BRANCH  29  30
ATOM     30  O   UNL     1      -8.856   6.357 134.499  0.00  0.00    +0.000 OA
ATOM     31  H   UNL     1      -8.749   7.091 135.133  0.00  0.00    +0.000 HD
ENDBRANCH  29  30
ENDBRANCH  27  29
ENDBRANCH  14  27
BRANCH  17  32
ATOM     32  O   UNL     1      -5.228   1.607 130.278  0.00  0.00    +0.000 OA
ATOM     33  H   UNL     1      -5.613   1.116 131.014  0.00  0.00    +0.000 HD
ENDBRANCH  17  32
BRANCH  16  34
ATOM     34  O   UNL     1      -9.534   5.345 130.261  0.00  0.00    +0.000 OA
BRANCH  34  35
ATOM     35  C   UNL     1     -10.407   6.217 129.540  0.00  0.00    +0.000 C 
ATOM     36  C   UNL     1     -11.684   6.516 130.335  0.00  0.00    +0.000 C 
ATOM     37  C   UNL     1     -12.631   7.460 129.610  0.00  0.00    +0.000 C 
ATOM     38  C   UNL     1     -11.816   8.682 129.143  0.00  0.00    +0.000 C 
ATOM     39  C   UNL     1     -10.579   8.258 128.325  0.00  0.00    +0.000 C 
ATOM     40  C   UNL     1     -10.921   7.597 126.978  0.00  0.00    +0.000 C 
ATOM     41  O   UNL     1      -9.740   7.416 129.140  0.00  0.00    +0.000 OA
BRANCH  37  42
ATOM     42  N   UNL     1     -13.406   6.756 128.569  0.00  0.00    +0.000 NA
ATOM     43  H   UNL     1     -13.662   5.806 128.821  0.00  0.00    +0.000 HD
ATOM     44  H   UNL     1     -12.873   6.701 127.703  0.00  0.00    +0.000 HD
ENDBRANCH  37  42
BRANCH  38  45
ATOM     45  O   UNL     1     -12.644   9.614 128.457  0.00  0.00    +0.000 OA
ATOM     46  H   UNL     1     -13.046  10.203 129.111  0.00  0.00    +0.000 HD
ENDBRANCH  38  45
ENDBRANCH  34  35
ENDBRANCH  16  34
TORSDOF 11
ENDMDL
MODEL 4
REMARK VINA RESULT:      -8.5      3.947      9.229
REMARK  Name = Doxorubicin
REMARK  13 active torsions:
REMARK  status: ('A' for Active; 'I' for Inactive)
REMARK    1  A    between atoms: C_1  and  O_2
REMARK    2  A    between atoms: O_2  and  C_3
REMARK    3  A    between atoms: C_12  and  O_13
REMARK    4  A    between atoms: C_17  and  O_18
REMARK    5  A    between atoms: C_17  and  C_31
REMARK    6  A    between atoms: C_20  and  O_21
REMARK    7  A    between atoms: O_21  and  C_22
REMARK    8  A    between atoms: C_24  and  N_25
REMARK    9  A    between atoms: C_26  and  O_27
REMARK   10  A    between atoms: C_28  and  C_29
REMARK   11  A    between atoms: C_31  and  C_33
REMARK   12  A    between atoms: C_33  and  O_34
REMARK   13  A    between atoms: C_35  and  O_36
REMARK                            x       y       z     vdW  Elec       q    Type
REMARK                         _______ _______ _______ _____ _____    ______ ____
ROOT
ATOM      1  C   UNL     1      -7.535   6.451 138.122  0.00  0.00    +0.000 A 
ATOM      2  C   UNL     1      -6.675   6.277 139.216  0.00  0.00    +0.000 A 
ATOM      3  C   UNL     1      -5.552   5.448 139.127  0.00  0.00    +0.000 A 
ATOM      4  C   UNL     1      -5.277   4.791 137.937  0.00  0.00    +0.000 A 
ATOM      5  C   UNL     1      -6.100   5.003 136.826  0.00  0.00    +0.000 A 
ATOM      6  C   UNL     1      -7.200   5.860 136.902  0.00  0.00    +0.000 A 
ATOM      7  C   UNL     1      -7.903   6.204 135.657  0.00  0.00    +0.000 C 
ATOM      8  O   UNL     1      -8.612   7.191 135.543  0.00  0.00    +0.000 OA
ATOM      9  C   UNL     1      -7.714   5.381 134.468  0.00  0.00    +0.000 A 
ATOM     10  C   UNL     1      -8.589   5.547 133.394  0.00  0.00    +0.000 A 
ATOM     11  C   UNL     1      -8.337   4.895 132.191  0.00  0.00    +0.000 A 
ATOM     12  C   UNL     1      -7.199   4.061 132.071  0.00  0.00    +0.000 A 
ATOM     13  C   UNL     1      -6.894   3.353 130.772  0.00  0.00    +0.000 C 
ATOM     14  C   UNL     1      -7.627   3.959 129.585  0.00  0.00    +0.000 C 
ATOM     15  C   UNL     1      -9.106   4.060 129.969  0.00  0.00    +0.000 C 
ATOM     16  C   UNL     1      -9.284   5.133 131.039  0.00  0.00    +0.000 C 
ATOM     17  C   UNL     1      -6.380   3.844 133.185  0.00  0.00    +0.000 A 
ATOM     18  C   UNL     1      -6.633   4.506 134.388  0.00  0.00    +0.000 A 
ATOM     19  C   UNL     1      -5.763   4.308 135.571  0.00  0.00    +0.000 C 
ATOM     20  O   UNL     1      -4.791   3.574 135.562  0.00  0.00    +0.000 OA
ENDROOT
BRANCH   1  22
ATOM     21  C   UNL     1      -8.275   8.630 138.702  0.00  0.00    +0.000 C 
ATOM     22  O   UNL     1      -8.602   7.287 138.324  0.00  0.00    +0.000 OA
ENDBRANCH   1  22
BRANCH  10  23
ATOM     23  O   UNL     1      -9.721   6.323 133.468  0.00  0.00    +0.000 OA
ATOM     24  H   UNL     1     -10.491   5.746 133.680  0.00  0.00    +0.000 HD
ENDBRANCH  10  23
BRANCH  14  25
ATOM     25  O   UNL     1      -7.020   5.220 129.285  0.00  0.00    +0.000 OA
ATOM     26  H   UNL     1      -7.519   5.951 129.705  0.00  0.00    +0.000 HD
ENDBRANCH  14  25
BRANCH  14  27
ATOM     27  C   UNL     1      -7.524   3.107 128.309  0.00  0.00    +0.000 C 
ATOM     28  O   UNL     1      -7.363   1.883 128.345  0.00  0.00    +0.000 OA
BRANCH  27  29
ATOM     29  C   UNL     1      -7.484   3.850 126.978  0.00  0.00    +0.000 C 
BRANCH  29  30
ATOM     30  O   UNL     1      -8.350   4.965 126.928  0.00  0.00    +0.000 OA
ATOM     31  H   UNL     1      -7.929   5.620 126.339  0.00  0.00    +0.000 HD
ENDBRANCH  29  30
ENDBRANCH  27  29
ENDBRANCH  14  27
BRANCH  17  32
ATOM     32  O   UNL     1      -5.323   2.984 133.116  0.00  0.00    +0.000 OA
ATOM     33  H   UNL     1      -5.476   2.133 133.545  0.00  0.00    +0.000 HD
ENDBRANCH  17  32
BRANCH  16  34
ATOM     34  O   UNL     1      -9.036   6.455 130.533  0.00  0.00    +0.000 OA
BRANCH  34  35
ATOM     35  C   UNL     1     -10.112   6.933 129.721  0.00  0.00    +0.000 C 
ATOM     36  C   UNL     1     -11.407   7.072 130.530  0.00  0.00    +0.000 C 
ATOM     37  C   UNL     1     -12.572   7.599 129.705  0.00  0.00    +0.000 C 
ATOM     38  C   UNL     1     -12.092   8.861 128.963  0.00  0.00    +0.000 C 
ATOM     39  C   UNL     1     -10.804   8.590 128.157  0.00  0.00    +0.000 C 
ATOM     40  C   UNL     1     -10.999   7.612 126.985  0.00  0.00    +0.000 C 
ATOM     41  O   UNL     1      -9.769   8.152 129.059  0.00  0.00    +0.000 OA
BRANCH  37  42
ATOM     42  N   UNL     1     -13.168   6.538 128.870  0.00  0.00    +0.000 NA
ATOM     43  H   UNL     1     -13.255   5.644 129.343  0.00  0.00    +0.000 HD
ATOM     44  H   UNL     1     -12.605   6.380 128.036  0.00  0.00    +0.000 HD
ENDBRANCH  37  42
BRANCH  38  45
ATOM     45  O   UNL     1     -13.138   9.414 128.171  0.00  0.00    +0.000 OA
ATOM     46  H   UNL     1     -12.755   9.736 127.342  0.00  0.00    +0.000 HD
ENDBRANCH  38  45
ENDBRANCH  34  35
ENDBRANCH  16  34
TORSDOF 11
ENDMDL
MODEL 5
REMARK VINA RESULT:      -8.3      3.008      8.340
REMARK  Name = Doxorubicin
REMARK  13 active torsions:
REMARK  status: ('A' for Active; 'I' for Inactive)
REMARK    1  A    between atoms: C_1  and  O_2
REMARK    2  A    between atoms: O_2  and  C_3
REMARK    3  A    between atoms: C_12  and  O_13
REMARK    4  A    between atoms: C_17  and  O_18
REMARK    5  A    between atoms: C_17  and  C_31
REMARK    6  A    between atoms: C_20  and  O_21
REMARK    7  A    between atoms: O_21  and  C_22
REMARK    8  A    between atoms: C_24  and  N_25
REMARK    9  A    between atoms: C_26  and  O_27
REMARK   10  A    between atoms: C_28  and  C_29
REMARK   11  A    between atoms: C_31  and  C_33
REMARK   12  A    between atoms: C_33  and  O_34
REMARK   13  A    between atoms: C_35  and  O_36
REMARK                            x       y       z     vdW  Elec       q    Type
REMARK                         _______ _______ _______ _____ _____    ______ ____
ROOT
ATOM      1  C   UNL     1      -9.931   5.182 130.457  0.00  0.00    +0.000 A 
ATOM      2  C   UNL     1     -10.099   6.225 131.380  0.00  0.00    +0.000 A 
ATOM      3  C   UNL     1      -9.682   6.088 132.708  0.00  0.00    +0.000 A 
ATOM      4  C   UNL     1      -9.085   4.907 133.121  0.00  0.00    +0.000 A 
ATOM      5  C   UNL     1      -8.865   3.883 132.193  0.00  0.00    +0.000 A 
ATOM      6  C   UNL     1      -9.246   4.033 130.858  0.00  0.00    +0.000 A 
ATOM      7  C   UNL     1      -8.807   3.017 129.890  0.00  0.00    +0.000 C 
ATOM      8  O   UNL     1      -8.757   3.219 128.687  0.00  0.00    +0.000 OA
ATOM      9  C   UNL     1      -8.342   1.717 130.364  0.00  0.00    +0.000 A 
ATOM     10  C   UNL     1      -8.199   0.681 129.442  0.00  0.00    +0.000 A 
ATOM     11  C   UNL     1      -7.608  -0.515 129.834  0.00  0.00    +0.000 A 
ATOM     12  C   UNL     1      -7.164  -0.673 131.169  0.00  0.00    +0.000 A 
ATOM     13  C   UNL     1      -6.505  -1.956 131.617  0.00  0.00    +0.000 C 
ATOM     14  C   UNL     1      -6.001  -2.797 130.455  0.00  0.00    +0.000 C 
ATOM     15  C   UNL     1      -7.160  -2.942 129.464  0.00  0.00    +0.000 C 
ATOM     16  C   UNL     1      -7.433  -1.598 128.795  0.00  0.00    +0.000 C 
ATOM     17  C   UNL     1      -7.391   0.348 132.098  0.00  0.00    +0.000 A 
ATOM     18  C   UNL     1      -7.979   1.549 131.699  0.00  0.00    +0.000 A 
ATOM     19  C   UNL     1      -8.205   2.653 132.663  0.00  0.00    +0.000 C 
ATOM     20  O   UNL     1      -7.892   2.578 133.838  0.00  0.00    +0.000 OA
ENDROOT
BRANCH   1  22
ATOM     21  C   UNL     1     -10.517   6.810 128.834  0.00  0.00    +0.000 C 
ATOM     22  O   UNL     1     -10.375   5.428 129.185  0.00  0.00    +0.000 OA
ENDBRANCH   1  22
BRANCH  10  23
ATOM     23  O   UNL     1      -8.637   0.774 128.143  0.00  0.00    +0.000 OA
ATOM     24  H   UNL     1      -8.588   1.715 127.855  0.00  0.00    +0.000 HD
ENDBRANCH  10  23
BRANCH  14  25
ATOM     25  O   UNL     1      -4.848  -2.149 129.905  0.00  0.00    +0.000 OA
ATOM     26  H   UNL     1      -4.726  -2.402 128.966  0.00  0.00    +0.000 HD
ENDBRANCH  14  25
BRANCH  14  27
ATOM     27  C   UNL     1      -5.554  -4.208 130.874  0.00  0.00    +0.000 C 
ATOM     28  O   UNL     1      -6.013  -5.227 130.348  0.00  0.00    +0.000 OA
BRANCH  27  29
ATOM     29  C   UNL     1      -4.620  -4.314 132.074  0.00  0.00    +0.000 C 
BRANCH  29  30
ATOM     30  O   UNL     1      -3.370  -3.687 131.873  0.00  0.00    +0.000 OA
ATOM     31  H   UNL     1      -3.493  -2.743 132.092  0.00  0.00    +0.000 HD
ENDBRANCH  29  30
ENDBRANCH  27  29
ENDBRANCH  14  27
BRANCH  17  32
ATOM     32  O   UNL     1      -7.043   0.189 133.408  0.00  0.00    +0.000 OA
ATOM     33  H   UNL     1      -7.666   0.579 134.034  0.00  0.00    +0.000 HD
ENDBRANCH  17  32
BRANCH  16  34
ATOM     34  O   UNL     1      -6.365  -1.198 127.919  0.00  0.00    +0.000 OA
BRANCH  34  35
ATOM     35  C   UNL     1      -6.503  -1.756 126.611  0.00  0.00    +0.000 C 
ATOM     36  C   UNL     1      -7.950  -1.668 126.112  0.00  0.00    +0.000 C 
ATOM     37  C   UNL     1      -8.134  -2.232 124.711  0.00  0.00    +0.000 C 
ATOM     38  C   UNL     1      -7.059  -1.605 123.803  0.00  0.00    +0.000 C 
ATOM     39  C   UNL     1      -5.644  -1.787 124.390  0.00  0.00    +0.000 C 
ATOM     40  C   UNL     1      -5.174  -3.252 124.435  0.00  0.00    +0.000 C 
ATOM     41  O   UNL     1      -5.588  -1.163 125.687  0.00  0.00    +0.000 OA
BRANCH  37  42
ATOM     42  N   UNL     1      -8.195  -3.708 124.726  0.00  0.00    +0.000 NA
ATOM     43  H   UNL     1      -7.480  -4.141 125.302  0.00  0.00    +0.000 HD
ATOM     44  H   UNL     1      -8.084  -4.080 123.784  0.00  0.00    +0.000 HD
ENDBRANCH  37  42
BRANCH  38  45
ATOM     45  O   UNL     1      -7.174  -2.087 122.469  0.00  0.00    +0.000 OA
ATOM     46  H   UNL     1      -6.321  -2.460 122.204  0.00  0.00    +0.000 HD
ENDBRANCH  38  45
ENDBRANCH  34  35
ENDBRANCH  16  34
TORSDOF 11
ENDMDL
MODEL 6
REMARK VINA RESULT:      -8.2      1.594      2.120
REMARK  Name = Doxorubicin
REMARK  13 active torsions:
REMARK  status: ('A' for Active; 'I' for Inactive)
REMARK    1  A    between atoms: C_1  and  O_2
REMARK    2  A    between atoms: O_2  and  C_3
REMARK    3  A    between atoms: C_12  and  O_13
REMARK    4  A    between atoms: C_17  and  O_18
REMARK    5  A    between atoms: C_17  and  C_31
REMARK    6  A    between atoms: C_20  and  O_21
REMARK    7  A    between atoms: O_21  and  C_22
REMARK    8  A    between atoms: C_24  and  N_25
REMARK    9  A    between atoms: C_26  and  O_27
REMARK   10  A    between atoms: C_28  and  C_29
REMARK   11  A    between atoms: C_31  and  C_33
REMARK   12  A    between atoms: C_33  and  O_34
REMARK   13  A    between atoms: C_35  and  O_36
REMARK                            x       y       z     vdW  Elec       q    Type
REMARK                         _______ _______ _______ _____ _____    ______ ____
ROOT
ATOM      1  C   UNL     1      -9.194  -0.059 123.708  0.00  0.00    +0.000 A 
ATOM      2  C   UNL     1      -9.169  -1.097 122.766  0.00  0.00    +0.000 A 
ATOM      3  C   UNL     1      -8.606  -2.339 123.075  0.00  0.00    +0.000 A 
ATOM      4  C   UNL     1      -8.070  -2.555 124.335  0.00  0.00    +0.000 A 
ATOM      5  C   UNL     1      -8.140  -1.542 125.298  0.00  0.00    +0.000 A 
ATOM      6  C   UNL     1      -8.736  -0.314 125.002  0.00  0.00    +0.000 A 
ATOM      7  C   UNL     1      -8.966   0.632 126.105  0.00  0.00    +0.000 C 
ATOM      8  O   UNL     1      -9.780   1.539 126.046  0.00  0.00    +0.000 OA
ATOM      9  C   UNL     1      -8.248   0.464 127.364  0.00  0.00    +0.000 A 
ATOM     10  C   UNL     1      -8.262   1.511 128.286  0.00  0.00    +0.000 A 
ATOM     11  C   UNL     1      -7.725   1.321 129.555  0.00  0.00    +0.000 A 
ATOM     12  C   UNL     1      -7.163   0.068 129.897  0.00  0.00    +0.000 A 
ATOM     13  C   UNL     1      -6.587  -0.171 131.273  0.00  0.00    +0.000 C 
ATOM     14  C   UNL     1      -7.064   0.849 132.296  0.00  0.00    +0.000 C 
ATOM     15  C   UNL     1      -6.828   2.238 131.695  0.00  0.00    +0.000 C 
ATOM     16  C   UNL     1      -7.797   2.466 130.537  0.00  0.00    +0.000 C 
ATOM     17  C   UNL     1      -7.086  -0.942 128.931  0.00  0.00    +0.000 A 
ATOM     18  C   UNL     1      -7.631  -0.749 127.661  0.00  0.00    +0.000 A 
ATOM     19  C   UNL     1      -7.583  -1.816 126.633  0.00  0.00    +0.000 C 
ATOM     20  O   UNL     1      -7.076  -2.906 126.835  0.00  0.00    +0.000 OA
ENDROOT
BRANCH   1  22
ATOM     21  C   UNL     1      -8.878   2.080 122.730  0.00  0.00    +0.000 C 
ATOM     22  O   UNL     1      -9.772   1.113 123.295  0.00  0.00    +0.000 OA
ENDBRANCH   1  22
BRANCH  10  23
ATOM     23  O   UNL     1      -8.771   2.754 127.994  0.00  0.00    +0.000 OA
ATOM     24  H   UNL     1      -8.060   3.427 128.109  0.00  0.00    +0.000 HD
ENDBRANCH  10  23
BRANCH  14  25
ATOM     25  O   UNL     1      -8.437   0.572 132.591  0.00  0.00    +0.000 OA
ATOM     26  H   UNL     1      -8.510  -0.164 133.234  0.00  0.00    +0.000 HD
ENDBRANCH  14  25
BRANCH  14  27
ATOM     27  C   UNL     1      -6.303   0.773 133.630  0.00  0.00    +0.000 C 
ATOM     28  O   UNL     1      -5.885   1.781 134.209  0.00  0.00    +0.000 OA
BRANCH  27  29
ATOM     29  C   UNL     1      -5.951  -0.616 134.152  0.00  0.00    +0.000 C 
BRANCH  29  30
ATOM     30  O   UNL     1      -7.082  -1.407 134.456  0.00  0.00    +0.000 OA
ATOM     31  H   UNL     1      -7.405  -1.769 133.609  0.00  0.00    +0.000 HD
ENDBRANCH  29  30
ENDBRANCH  27  29
ENDBRANCH  14  27
BRANCH  17  32
ATOM     32  O   UNL     1      -6.478  -2.131 129.213  0.00  0.00    +0.000 OA
ATOM     33  H   UNL     1      -7.085  -2.833 129.478  0.00  0.00    +0.000 HD
ENDBRANCH  17  32
BRANCH  16  34
ATOM     34  O   UNL     1      -9.159   2.580 130.981  0.00  0.00    +0.000 OA
BRANCH  34  35
ATOM     35  C   UNL     1      -9.656   3.915 130.859  0.00  0.00    +0.000 C 
ATOM     36  C   UNL     1     -11.092   3.933 130.323  0.00  0.00    +0.000 C 
ATOM     37  C   UNL     1     -11.666   5.337 130.199  0.00  0.00    +0.000 C 
ATOM     38  C   UNL     1     -11.428   6.064 131.537  0.00  0.00    +0.000 C 
ATOM     39  C   UNL     1      -9.944   6.010 131.955  0.00  0.00    +0.000 C 
ATOM     40  C   UNL     1      -9.005   6.794 131.020  0.00  0.00    +0.000 C 
ATOM     41  O   UNL     1      -9.542   4.632 132.090  0.00  0.00    +0.000 OA
BRANCH  37  42
ATOM     42  N   UNL     1     -11.170   6.020 128.988  0.00  0.00    +0.000 NA
ATOM     43  H   UNL     1     -11.807   5.970 128.199  0.00  0.00    +0.000 HD
ATOM     44  H   UNL     1     -10.288   5.612 128.684  0.00  0.00    +0.000 HD
ENDBRANCH  37  42
BRANCH  38  45
ATOM     45  O   UNL     1     -11.946   7.389 131.495  0.00  0.00    +0.000 OA
ATOM     46  H   UNL     1     -11.605   7.825 130.702  0.00  0.00    +0.000 HD
ENDBRANCH  38  45
ENDBRANCH  34  35
ENDBRANCH  16  34
TORSDOF 11
ENDMDL
MODEL 7
REMARK VINA RESULT:      -8.0      3.155      6.518
REMARK  Name = Doxorubicin
REMARK  13 active torsions:
REMARK  status: ('A' for Active; 'I' for Inactive)
REMARK    1  A    between atoms: C_1  and  O_2
REMARK    2  A    between atoms: O_2  and  C_3
REMARK    3  A    between atoms: C_12  and  O_13
REMARK    4  A    between atoms: C_17  and  O_18
REMARK    5  A    between atoms: C_17  and  C_31
REMARK    6  A    between atoms: C_20  and  O_21
REMARK    7  A    between atoms: O_21  and  C_22
REMARK    8  A    between atoms: C_24  and  N_25
REMARK    9  A    between atoms: C_26  and  O_27
REMARK   10  A    between atoms: C_28  and  C_29
REMARK   11  A    between atoms: C_31  and  C_33
REMARK   12  A    between atoms: C_33  and  O_34
REMARK   13  A    between atoms: C_35  and  O_36
REMARK                            x       y       z     vdW  Elec       q    Type
REMARK                         _______ _______ _______ _____ _____    ______ ____
ROOT
ATOM      1  C   UNL     1      -7.134  -3.285 134.280  0.00  0.00    +0.000 A 
ATOM      2  C   UNL     1      -6.548  -4.494 134.680  0.00  0.00    +0.000 A 
ATOM      3  C   UNL     1      -5.851  -5.295 133.769  0.00  0.00    +0.000 A 
ATOM      4  C   UNL     1      -5.728  -4.886 132.450  0.00  0.00    +0.000 A 
ATOM      5  C   UNL     1      -6.263  -3.655 132.057  0.00  0.00    +0.000 A 
ATOM      6  C   UNL     1      -6.927  -2.837 132.974  0.00  0.00    +0.000 A 
ATOM      7  C   UNL     1      -7.285  -1.472 132.558  0.00  0.00    +0.000 C 
ATOM      8  O   UNL     1      -7.520  -0.574 133.351  0.00  0.00    +0.000 OA
ATOM      9  C   UNL     1      -7.308  -1.129 131.141  0.00  0.00    +0.000 A 
ATOM     10  C   UNL     1      -7.913   0.066 130.751  0.00  0.00    +0.000 A 
ATOM     11  C   UNL     1      -7.808   0.495 129.432  0.00  0.00    +0.000 A 
ATOM     12  C   UNL     1      -7.095  -0.290 128.494  0.00  0.00    +0.000 A 
ATOM     13  C   UNL     1      -6.953   0.159 127.059  0.00  0.00    +0.000 C 
ATOM     14  C   UNL     1      -7.240   1.642 126.876  0.00  0.00    +0.000 C 
ATOM     15  C   UNL     1      -8.587   1.930 127.545  0.00  0.00    +0.000 C 
ATOM     16  C   UNL     1      -8.441   1.815 129.060  0.00  0.00    +0.000 C 
ATOM     17  C   UNL     1      -6.566  -1.525 128.887  0.00  0.00    +0.000 A 
ATOM     18  C   UNL     1      -6.668  -1.948 130.213  0.00  0.00    +0.000 A 
ATOM     19  C   UNL     1      -6.092  -3.241 130.653  0.00  0.00    +0.000 C 
ATOM     20  O   UNL     1      -5.503  -3.994 129.898  0.00  0.00    +0.000 OA
ENDROOT
BRANCH   1  22
ATOM     21  C   UNL     1      -8.286  -3.362 136.353  0.00  0.00    +0.000 C 
ATOM     22  O   UNL     1      -7.790  -2.584 135.257  0.00  0.00    +0.000 OA
ENDBRANCH   1  22
BRANCH  10  23
ATOM     23  O   UNL     1      -8.638   0.850 131.616  0.00  0.00    +0.000 OA
ATOM     24  H   UNL     1      -8.479   1.798 131.399  0.00  0.00    +0.000 HD
ENDBRANCH  10  23
BRANCH  14  25
ATOM     25  O   UNL     1      -6.147   2.378 127.436  0.00  0.00    +0.000 OA
ATOM     26  H   UNL     1      -5.655   2.853 126.734  0.00  0.00    +0.000 HD
ENDBRANCH  14  25
BRANCH  14  27
ATOM     27  C   UNL     1      -7.342   2.063 125.400  0.00  0.00    +0.000 C 
ATOM     28  O   UNL     1      -6.455   1.807 124.579  0.00  0.00    +0.000 OA
BRANCH  27  29
ATOM     29  C   UNL     1      -8.525   2.942 125.008  0.00  0.00    +0.000 C 
BRANCH  29  30
ATOM     30  O   UNL     1      -8.214   3.891 124.009  0.00  0.00    +0.000 OA
ATOM     31  H   UNL     1      -8.692   3.614 123.203  0.00  0.00    +0.000 HD
ENDBRANCH  29  30
ENDBRANCH  27  29
ENDBRANCH  14  27
BRANCH  17  32
ATOM     32  O   UNL     1      -5.943  -2.336 127.982  0.00  0.00    +0.000 OA
ATOM     33  H   UNL     1      -5.851  -3.252 128.269  0.00  0.00    +0.000 HD
ENDBRANCH  17  32
BRANCH  16  34
ATOM     34  O   UNL     1      -7.626   2.864 129.610  0.00  0.00    +0.000 OA
BRANCH  34  35
ATOM     35  C   UNL     1      -8.409   3.949 130.111  0.00  0.00    +0.000 C 
ATOM     36  C   UNL     1      -9.882   3.553 130.270  0.00  0.00    +0.000 C 
ATOM     37  C   UNL     1     -10.746   4.676 130.822  0.00  0.00    +0.000 C 
ATOM     38  C   UNL     1     -10.050   5.235 132.078  0.00  0.00    +0.000 C 
ATOM     39  C   UNL     1      -8.588   5.632 131.786  0.00  0.00    +0.000 C 
ATOM     40  C   UNL     1      -8.447   6.819 130.817  0.00  0.00    +0.000 C 
ATOM     41  O   UNL     1      -7.868   4.472 131.325  0.00  0.00    +0.000 OA
BRANCH  37  42
ATOM     42  N   UNL     1     -11.090   5.660 129.775  0.00  0.00    +0.000 NA
ATOM     43  H   UNL     1     -11.261   5.245 128.864  0.00  0.00    +0.000 HD
ATOM     44  H   UNL     1     -10.338   6.336 129.659  0.00  0.00    +0.000 HD
ENDBRANCH  37  42
BRANCH  38  45
ATOM     45  O   UNL     1     -10.809   6.293 132.653  0.00  0.00    +0.000 OA
ATOM     46  H   UNL     1     -11.283   5.945 133.422  0.00  0.00    +0.000 HD
ENDBRANCH  38  45
ENDBRANCH  34  35
ENDBRANCH  16  34
TORSDOF 11
ENDMDL
MODEL 8
REMARK VINA RESULT:      -8.0      4.671      9.482
REMARK  Name = Doxorubicin
REMARK  13 active torsions:
REMARK  status: ('A' for Active; 'I' for Inactive)
REMARK    1  A    between atoms: C_1  and  O_2
REMARK    2  A    between atoms: O_2  and  C_3
REMARK    3  A    between atoms: C_12  and  O_13
REMARK    4  A    between atoms: C_17  and  O_18
REMARK    5  A    between atoms: C_17  and  C_31
REMARK    6  A    between atoms: C_20  and  O_21
REMARK    7  A    between atoms: O_21  and  C_22
REMARK    8  A    between atoms: C_24  and  N_25
REMARK    9  A    between atoms: C_26  and  O_27
REMARK   10  A    between atoms: C_28  and  C_29
REMARK   11  A    between atoms: C_31  and  C_33
REMARK   12  A    between atoms: C_33  and  O_34
REMARK   13  A    between atoms: C_35  and  O_36
REMARK                            x       y       z     vdW  Elec       q    Type
REMARK                         _______ _______ _______ _____ _____    ______ ____
ROOT
ATOM      1  C   UNL     1      -3.724   2.790 131.312  0.00  0.00    +0.000 A 
ATOM      2  C   UNL     1      -3.215   3.729 132.222  0.00  0.00    +0.000 A 
ATOM      3  C   UNL     1      -3.127   5.084 131.888  0.00  0.00    +0.000 A 
ATOM      4  C   UNL     1      -3.556   5.513 130.641  0.00  0.00    +0.000 A 
ATOM      5  C   UNL     1      -4.114   4.591 129.749  0.00  0.00    +0.000 A 
ATOM      6  C   UNL     1      -4.237   3.243 130.095  0.00  0.00    +0.000 A 
ATOM      7  C   UNL     1      -5.014   2.364 129.209  0.00  0.00    +0.000 C 
ATOM      8  O   UNL     1      -5.491   1.302 129.574  0.00  0.00    +0.000 OA
ATOM      9  C   UNL     1      -5.299   2.784 127.841  0.00  0.00    +0.000 A 
ATOM     10  C   UNL     1      -5.784   1.838 126.938  0.00  0.00    +0.000 A 
ATOM     11  C   UNL     1      -6.215   2.242 125.679  0.00  0.00    +0.000 A 
ATOM     12  C   UNL     1      -6.150   3.610 125.322  0.00  0.00    +0.000 A 
ATOM     13  C   UNL     1      -6.626   4.079 123.967  0.00  0.00    +0.000 C 
ATOM     14  C   UNL     1      -7.530   3.069 123.279  0.00  0.00    +0.000 C 
ATOM     15  C   UNL     1      -6.809   1.717 123.313  0.00  0.00    +0.000 C 
ATOM     16  C   UNL     1      -6.772   1.194 124.746  0.00  0.00    +0.000 C 
ATOM     17  C   UNL     1      -5.585   4.531 126.212  0.00  0.00    +0.000 A 
ATOM     18  C   UNL     1      -5.160   4.122 127.477  0.00  0.00    +0.000 A 
ATOM     19  C   UNL     1      -4.582   5.087 128.443  0.00  0.00    +0.000 C 
ATOM     20  O   UNL     1      -4.451   6.272 128.195  0.00  0.00    +0.000 OA
ENDROOT
BRANCH   1  22
ATOM     21  C   UNL     1      -3.409   1.288 133.122  0.00  0.00    +0.000 C 
ATOM     22  O   UNL     1      -3.763   1.492 131.748  0.00  0.00    +0.000 OA
ENDBRANCH   1  22
BRANCH  10  23
ATOM     23  O   UNL     1      -5.842   0.495 127.226  0.00  0.00    +0.000 OA
ATOM     24  H   UNL     1      -5.928  -0.009 126.384  0.00  0.00    +0.000 HD
ENDBRANCH  10  23
BRANCH  14  25
ATOM     25  O   UNL     1      -8.792   3.068 123.956  0.00  0.00    +0.000 OA
ATOM     26  H   UNL     1      -9.529   3.068 123.311  0.00  0.00    +0.000 HD
ENDBRANCH  14  25
BRANCH  14  27
ATOM     27  C   UNL     1      -7.821   3.415 121.809  0.00  0.00    +0.000 C 
ATOM     28  O   UNL     1      -8.948   3.304 121.316  0.00  0.00    +0.000 OA
BRANCH  27  29
ATOM     29  C   UNL     1      -6.627   3.770 120.929  0.00  0.00    +0.000 C 
BRANCH  29  30
ATOM     30  O   UNL     1      -6.991   4.212 119.638  0.00  0.00    +0.000 OA
ATOM     31  H   UNL     1      -6.342   3.828 119.018  0.00  0.00    +0.000 HD
ENDBRANCH  29  30
ENDBRANCH  27  29
ENDBRANCH  14  27
BRANCH  17  32
ATOM     32  O   UNL     1      -5.440   5.842 125.861  0.00  0.00    +0.000 OA
ATOM     33  H   UNL     1      -5.470   6.457 126.604  0.00  0.00    +0.000 HD
ENDBRANCH  17  32
BRANCH  16  34
ATOM     34  O   UNL     1      -8.077   0.826 125.226  0.00  0.00    +0.000 OA
BRANCH  34  35
ATOM     35  C   UNL     1      -8.304  -0.583 125.148  0.00  0.00    +0.000 C 
ATOM     36  C   UNL     1      -8.270  -1.078 123.697  0.00  0.00    +0.000 C 
ATOM     37  C   UNL     1      -8.486  -2.579 123.573  0.00  0.00    +0.000 C 
ATOM     38  C   UNL     1      -7.526  -3.277 124.555  0.00  0.00    +0.000 C 
ATOM     39  C   UNL     1      -7.676  -2.721 125.987  0.00  0.00    +0.000 C 
ATOM     40  C   UNL     1      -9.038  -3.030 126.634  0.00  0.00    +0.000 C 
ATOM     41  O   UNL     1      -7.393  -1.309 125.975  0.00  0.00    +0.000 OA
BRANCH  37  42
ATOM     42  N   UNL     1      -9.915  -2.932 123.695  0.00  0.00    +0.000 NA
ATOM     43  H   UNL     1     -10.535  -2.315 123.179  0.00  0.00    +0.000 HD
ATOM     44  H   UNL     1     -10.208  -2.902 124.670  0.00  0.00    +0.000 HD
ENDBRANCH  37  42
BRANCH  38  45
ATOM     45  O   UNL     1      -7.671  -4.692 124.490  0.00  0.00    +0.000 OA
ATOM     46  H   UNL     1      -7.377  -5.068 125.331  0.00  0.00    +0.000 HD
ENDBRANCH  38  45
ENDBRANCH  34  35
ENDBRANCH  16  34
TORSDOF 11
ENDMDL
MODEL 9
REMARK VINA RESULT:      -7.9      4.348      5.779
REMARK  Name = Doxorubicin
REMARK  13 active torsions:
REMARK  status: ('A' for Active; 'I' for Inactive)
REMARK    1  A    between atoms: C_1  and  O_2
REMARK    2  A    between atoms: O_2  and  C_3
REMARK    3  A    between atoms: C_12  and  O_13
REMARK    4  A    between atoms: C_17  and  O_18
REMARK    5  A    between atoms: C_17  and  C_31
REMARK    6  A    between atoms: C_20  and  O_21
REMARK    7  A    between atoms: O_21  and  C_22
REMARK    8  A    between atoms: C_24  and  N_25
REMARK    9  A    between atoms: C_26  and  O_27
REMARK   10  A    between atoms: C_28  and  C_29
REMARK   11  A    between atoms: C_31  and  C_33
REMARK   12  A    between atoms: C_33  and  O_34
REMARK   13  A    between atoms: C_35  and  O_36
REMARK                            x       y       z     vdW  Elec       q    Type
REMARK                         _______ _______ _______ _____ _____    ______ ____
ROOT
ATOM      1  C   UNL     1      -5.968   3.961 122.935  0.00  0.00    +0.000 A 
ATOM      2  C   UNL     1      -6.676   3.686 121.755  0.00  0.00    +0.000 A 
ATOM      3  C   UNL     1      -7.913   3.036 121.790  0.00  0.00    +0.000 A 
ATOM      4  C   UNL     1      -8.458   2.663 123.009  0.00  0.00    +0.000 A 
ATOM      5  C   UNL     1      -7.784   2.982 124.193  0.00  0.00    +0.000 A 
ATOM      6  C   UNL     1      -6.566   3.664 124.161  0.00  0.00    +0.000 A 
ATOM      7  C   UNL     1      -6.008   4.153 125.431  0.00  0.00    +0.000 C 
ATOM      8  O   UNL     1      -5.180   5.048 125.496  0.00  0.00    +0.000 OA
ATOM      9  C   UNL     1      -6.494   3.606 126.694  0.00  0.00    +0.000 A 
ATOM     10  C   UNL     1      -5.772   3.867 127.858  0.00  0.00    +0.000 A 
ATOM     11  C   UNL     1      -6.294   3.498 129.093  0.00  0.00    +0.000 A 
ATOM     12  C   UNL     1      -7.552   2.851 129.156  0.00  0.00    +0.000 A 
ATOM     13  C   UNL     1      -8.150   2.452 130.484  0.00  0.00    +0.000 C 
ATOM     14  C   UNL     1      -7.515   3.181 131.659  0.00  0.00    +0.000 C 
ATOM     15  C   UNL     1      -5.997   3.021 131.524  0.00  0.00    +0.000 C 
ATOM     16  C   UNL     1      -5.501   3.835 130.332  0.00  0.00    +0.000 C 
ATOM     17  C   UNL     1      -8.222   2.526 127.971  0.00  0.00    +0.000 A 
ATOM     18  C   UNL     1      -7.697   2.904 126.735  0.00  0.00    +0.000 A 
ATOM     19  C   UNL     1      -8.405   2.591 125.470  0.00  0.00    +0.000 C 
ATOM     20  O   UNL     1      -9.469   1.999 125.438  0.00  0.00    +0.000 OA
ENDROOT
BRANCH   1  22
ATOM     21  C   UNL     1      -4.449   5.008 121.442  0.00  0.00    +0.000 C 
ATOM     22  O   UNL     1      -4.768   4.602 122.779  0.00  0.00    +0.000 OA
ENDBRANCH   1  22
BRANCH  10  23
ATOM     23  O   UNL     1      -4.535   4.467 127.848  0.00  0.00    +0.000 OA
ATOM     24  H   UNL     1      -3.861   3.816 128.153  0.00  0.00    +0.000 HD
ENDBRANCH  10  23
BRANCH  14  25
ATOM     25  O   UNL     1      -7.957   4.542 131.629  0.00  0.00    +0.000 OA
ATOM     26  H   UNL     1      -7.771   4.984 132.483  0.00  0.00    +0.000 HD
ENDBRANCH  14  25
BRANCH  14  27
ATOM     27  C   UNL     1      -7.933   2.612 133.025  0.00  0.00    +0.000 C 
ATOM     28  O   UNL     1      -7.929   1.400 133.263  0.00  0.00    +0.000 OA
BRANCH  27  29
ATOM     29  C   UNL     1      -8.498   3.596 134.044  0.00  0.00    +0.000 C 
BRANCH  29  30
ATOM     30  O   UNL     1      -9.866   3.888 133.848  0.00  0.00    +0.000 OA
ATOM     31  H   UNL     1     -10.115   4.536 134.535  0.00  0.00    +0.000 HD
ENDBRANCH  29  30
ENDBRANCH  27  29
ENDBRANCH  14  27
BRANCH  17  32
ATOM     32  O   UNL     1      -9.399   1.834 128.003  0.00  0.00    +0.000 OA
ATOM     33  H   UNL     1      -9.700   1.525 127.140  0.00  0.00    +0.000 HD
ENDBRANCH  17  32
BRANCH  16  34
ATOM     34  O   UNL     1      -5.614   5.251 130.555  0.00  0.00    +0.000 OA
BRANCH  34  35
ATOM     35  C   UNL     1      -4.340   5.871 130.747  0.00  0.00    +0.000 C 
ATOM     36  C   UNL     1      -4.195   6.427 132.168  0.00  0.00    +0.000 C 
ATOM     37  C   UNL     1      -2.842   7.076 132.420  0.00  0.00    +0.000 C 
ATOM     38  C   UNL     1      -1.751   6.091 131.957  0.00  0.00    +0.000 C 
ATOM     39  C   UNL     1      -1.984   5.630 130.503  0.00  0.00    +0.000 C 
ATOM     40  C   UNL     1      -1.829   6.754 129.462  0.00  0.00    +0.000 C 
ATOM     41  O   UNL     1      -3.269   4.986 130.413  0.00  0.00    +0.000 OA
BRANCH  37  42
ATOM     42  N   UNL     1      -2.779   8.436 131.846  0.00  0.00    +0.000 NA
ATOM     43  H   UNL     1      -3.484   9.068 132.213  0.00  0.00    +0.000 HD
ATOM     44  H   UNL     1      -2.904   8.403 130.836  0.00  0.00    +0.000 HD
ENDBRANCH  37  42
BRANCH  38  45
ATOM     45  O   UNL     1      -0.453   6.634 132.168  0.00  0.00    +0.000 OA
ATOM     46  H   UNL     1       0.073   5.986 132.658  0.00  0.00    +0.000 HD
ENDBRANCH  38  45
ENDBRANCH  34  35
ENDBRANCH  16  34
TORSDOF 11
ENDMDL
