MODEL 1
REMARK VINA RESULT:      -8.0      0.000      0.000
REMARK  Name = Doxycycline
REMARK  10 active torsions:
REMARK  status: ('A' for Active; 'I' for Inactive)
REMARK    1  A    between atoms: C_3  and  C_4
REMARK    2  A    between atoms: C_9  and  O_10
REMARK    3  A    between atoms: C_15  and  O_16
REMARK    4  A    between atoms: C_17  and  O_18
REMARK    5  A    between atoms: C_21  and  C_22
REMARK    6  A    between atoms: C_25  and  O_26
REMARK    7  A    between atoms: C_27  and  N_28
REMARK    8  A    between atoms: N_28  and  C_29
REMARK    9  A    between atoms: N_28  and  C_30
REMARK   10  A    between atoms: C_33  and  O_34
REMARK                            x       y       z     vdW  Elec       q    Type
REMARK                         _______ _______ _______ _____ _____    ______ ____
ROOT
ATOM      1  C   UNL     1      -9.671   5.432 130.682  0.00  0.00    +0.000 C 
ATOM      2  C   UNL     1     -11.079   5.906 131.080  0.00  0.00    +0.000 C 
ATOM      3  C   UNL     1     -11.103   6.265 132.582  0.00  0.00    +0.000 C 
ATOM      4  C   UNL     1     -11.559   7.095 130.284  0.00  0.00    +0.000 A 
ATOM      5  C   UNL     1     -12.568   7.908 130.835  0.00  0.00    +0.000 A 
ATOM      6  C   UNL     1     -13.058   9.013 130.170  0.00  0.00    +0.000 A 
ATOM      7  C   UNL     1     -12.584   9.301 128.901  0.00  0.00    +0.000 A 
ATOM      8  C   UNL     1     -11.607   8.489 128.316  0.00  0.00    +0.000 A 
ATOM      9  C   UNL     1     -11.078   7.383 128.999  0.00  0.00    +0.000 A 
ATOM     10  C   UNL     1     -10.056   6.508 128.362  0.00  0.00    +0.000 C 
ATOM     11  O   UNL     1      -9.766   6.594 127.170  0.00  0.00    +0.000 OA
ATOM     12  C   UNL     1      -9.395   5.460 129.198  0.00  0.00    +0.000 C 
ATOM     13  C   UNL     1      -8.555   4.582 128.598  0.00  0.00    +0.000 C 
ATOM     14  C   UNL     1      -7.793   3.500 129.340  0.00  0.00    +0.000 C 
ATOM     15  C   UNL     1      -8.003   2.103 128.785  0.00  0.00    +0.000 C 
ATOM     16  O   UNL     1      -8.996   1.830 128.097  0.00  0.00    +0.000 OA
ATOM     17  C   UNL     1      -7.188   0.975 129.364  0.00  0.00    +0.000 C 
ATOM     18  C   UNL     1      -7.900   0.732 130.465  0.00  0.00    +0.000 C 
ATOM     19  C   UNL     1      -7.873   2.024 131.579  0.00  0.00    +0.000 C 
ATOM     20  C   UNL     1      -8.193   3.389 130.816  0.00  0.00    +0.000 C 
ATOM     21  C   UNL     1      -9.513   3.982 131.227  0.00  0.00    +0.000 C 
ENDROOT
BRANCH  17  22
ATOM     22  C   UNL     1      -5.853   0.951 130.063  0.00  0.00    +0.000 C 
ATOM     23  N   UNL     1      -4.834   1.743 129.531  0.00  0.00    +0.000 N 
ATOM     24  O   UNL     1      -5.585   0.177 130.986  0.00  0.00    +0.000 OA
ATOM     25  H   UNL     1      -4.955   2.190 128.621  0.00  0.00    +0.000 HD
ATOM     26  H   UNL     1      -3.905   1.340 129.599  0.00  0.00    +0.000 HD
ENDBRANCH  17  22
BRANCH  19  27
ATOM     27  N   UNL     1      -6.810   2.504 132.564  0.00  0.00    +0.000 NA
ATOM     28  C   UNL     1      -6.629   2.061 133.980  0.00  0.00    +0.000 C 
ATOM     29  C   UNL     1      -6.208   3.800 132.407  0.00  0.00    +0.000 C 
ENDBRANCH  19  27
BRANCH   8  30
ATOM     30  O   UNL     1     -11.164   8.807 127.063  0.00  0.00    +0.000 OA
ATOM     31  H   UNL     1     -11.656   8.315 126.390  0.00  0.00    +0.000 HD
ENDBRANCH   8  30
BRANCH  13  32
ATOM     32  O   UNL     1      -8.232   4.638 127.246  0.00  0.00    +0.000 OA
ATOM     33  H   UNL     1      -7.937   5.558 127.042  0.00  0.00    +0.000 HD
ENDBRANCH  13  32
BRANCH  14  34
ATOM     34  O   UNL     1      -6.431   3.888 129.187  0.00  0.00    +0.000 OA
ATOM     35  H   UNL     1      -6.327   4.145 128.249  0.00  0.00    +0.000 HD
ENDBRANCH  14  34
BRANCH  18  36
ATOM     36  O   UNL     1      -8.039  -0.676 130.746  0.00  0.00    +0.000 OA
ATOM     37  H   UNL     1      -8.998  -0.930 130.573  0.00  0.00    +0.000 HD
ENDBRANCH  18  36
BRANCH  21  38
ATOM     38  O   UNL     1      -9.536   3.966 132.658  0.00  0.00    +0.000 OA
ATOM     39  H   UNL     1      -8.941   3.259 132.983  0.00  0.00    +0.000 HD
ENDBRANCH  21  38
TORSDOF 7
ENDMDL
MODEL 2
REMARK VINA RESULT:      -7.6      2.070      2.782
REMARK  Name = Doxycycline
REMARK  10 active torsions:
REMARK  status: ('A' for Active; 'I' for Inactive)
REMARK    1  A    between atoms: C_3  and  C_4
REMARK    2  A    between atoms: C_9  and  O_10
REMARK    3  A    between atoms: C_15  and  O_16
REMARK    4  A    between atoms: C_17  and  O_18
REMARK    5  A    between atoms: C_21  and  C_22
REMARK    6  A    between atoms: C_25  and  O_26
REMARK    7  A    between atoms: C_27  and  N_28
REMARK    8  A    between atoms: N_28  and  C_29
REMARK    9  A    between atoms: N_28  and  C_30
REMARK   10  A    between atoms: C_33  and  O_34
REMARK                            x       y       z     vdW  Elec       q    Type
REMARK                         _______ _______ _______ _____ _____    ______ ____
ROOT
ATOM      1  C   UNL     1      -9.020   5.042 129.485  0.00  0.00    +0.000 C 
ATOM      2  C   UNL     1     -10.226   4.997 130.439  0.00  0.00    +0.000 C 
ATOM      3  C   UNL     1      -9.735   4.808 131.891  0.00  0.00    +0.000 C 
ATOM      4  C   UNL     1     -11.091   6.232 130.371  0.00  0.00    +0.000 A 
ATOM      5  C   UNL     1     -11.911   6.539 131.474  0.00  0.00    +0.000 A 
ATOM      6  C   UNL     1     -12.728   7.650 131.488  0.00  0.00    +0.000 A 
ATOM      7  C   UNL     1     -12.788   8.456 130.365  0.00  0.00    +0.000 A 
ATOM      8  C   UNL     1     -12.012   8.155 129.241  0.00  0.00    +0.000 A 
ATOM      9  C   UNL     1     -11.151   7.046 129.231  0.00  0.00    +0.000 A 
ATOM     10  C   UNL     1     -10.346   6.714 128.024  0.00  0.00    +0.000 C 
ATOM     11  O   UNL     1     -10.525   7.267 126.940  0.00  0.00    +0.000 OA
ATOM     12  C   UNL     1      -9.313   5.638 128.129  0.00  0.00    +0.000 C 
ATOM     13  C   UNL     1      -8.661   5.248 127.007  0.00  0.00    +0.000 C 
ATOM     14  C   UNL     1      -7.566   4.197 126.988  0.00  0.00    +0.000 C 
ATOM     15  C   UNL     1      -7.811   3.066 126.008  0.00  0.00    +0.000 C 
ATOM     16  O   UNL     1      -8.952   2.810 125.597  0.00  0.00    +0.000 OA
ATOM     17  C   UNL     1      -6.723   2.041 125.814  0.00  0.00    +0.000 C 
ATOM     18  C   UNL     1      -6.950   1.274 126.881  0.00  0.00    +0.000 C 
ATOM     19  C   UNL     1      -6.657   2.077 128.357  0.00  0.00    +0.000 C 
ATOM     20  C   UNL     1      -7.382   3.500 128.340  0.00  0.00    +0.000 C 
ATOM     21  C   UNL     1      -8.515   3.579 129.327  0.00  0.00    +0.000 C 
ENDROOT
BRANCH  17  22
ATOM     22  C   UNL     1      -5.230   2.107 126.013  0.00  0.00    +0.000 C 
ATOM     23  N   UNL     1      -4.599   0.974 126.527  0.00  0.00    +0.000 N 
ATOM     24  O   UNL     1      -4.573   3.142 125.871  0.00  0.00    +0.000 OA
ATOM     25  H   UNL     1      -5.155   0.199 126.893  0.00  0.00    +0.000 HD
ATOM     26  H   UNL     1      -3.822   1.168 127.149  0.00  0.00    +0.000 HD
ENDBRANCH  17  22
BRANCH  19  27
ATOM     27  N   UNL     1      -5.366   2.438 129.088  0.00  0.00    +0.000 NA
ATOM     28  C   UNL     1      -4.628   1.597 130.079  0.00  0.00    +0.000 C 
ATOM     29  C   UNL     1      -5.011   3.814 129.298  0.00  0.00    +0.000 C 
ENDBRANCH  19  27
BRANCH   8  30
ATOM     30  O   UNL     1     -12.098   8.976 128.152  0.00  0.00    +0.000 OA
ATOM     31  H   UNL     1     -11.351   9.592 128.128  0.00  0.00    +0.000 HD
ENDBRANCH   8  30
BRANCH  13  32
ATOM     32  O   UNL     1      -8.866   5.836 125.763  0.00  0.00    +0.000 OA
ATOM     33  H   UNL     1      -9.405   5.213 125.218  0.00  0.00    +0.000 HD
ENDBRANCH  13  32
BRANCH  14  34
ATOM     34  O   UNL     1      -6.408   4.933 126.608  0.00  0.00    +0.000 OA
ATOM     35  H   UNL     1      -6.641   5.877 126.709  0.00  0.00    +0.000 HD
ENDBRANCH  14  34
BRANCH  18  36
ATOM     36  O   UNL     1      -6.820  -0.135 126.599  0.00  0.00    +0.000 OA
ATOM     37  H   UNL     1      -6.273  -0.230 125.759  0.00  0.00    +0.000 HD
ENDBRANCH  18  36
BRANCH  21  38
ATOM     38  O   UNL     1      -8.009   3.073 130.567  0.00  0.00    +0.000 OA
ATOM     39  H   UNL     1      -8.404   3.579 131.307  0.00  0.00    +0.000 HD
ENDBRANCH  21  38
TORSDOF 7
ENDMDL
MODEL 3
REMARK VINA RESULT:      -7.5      4.934      7.765
REMARK  Name = Doxycycline
REMARK  10 active torsions:
REMARK  status: ('A' for Active; 'I' for Inactive)
REMARK    1  A    between atoms: C_3  and  C_4
REMARK    2  A    between atoms: C_9  and  O_10
REMARK    3  A    between atoms: C_15  and  O_16
REMARK    4  A    between atoms: C_17  and  O_18
REMARK    5  A    between atoms: C_21  and  C_22
REMARK    6  A    between atoms: C_25  and  O_26
REMARK    7  A    between atoms: C_27  and  N_28
REMARK    8  A    between atoms: N_28  and  C_29
REMARK    9  A    between atoms: N_28  and  C_30
REMARK   10  A    between atoms: C_33  and  O_34
REMARK                            x       y       z     vdW  Elec       q    Type
REMARK                         _______ _______ _______ _____ _____    ______ ____
ROOT
ATOM      1  C   UNL     1      -6.662   0.191 126.502  0.00  0.00    +0.000 C 
ATOM      2  C   UNL     1      -6.377  -1.198 125.906  0.00  0.00    +0.000 C 
ATOM      3  C   UNL     1      -6.214  -2.230 127.043  0.00  0.00    +0.000 C 
ATOM      4  C   UNL     1      -7.450  -1.677 124.959  0.00  0.00    +0.000 A 
ATOM      5  C   UNL     1      -7.571  -3.061 124.726  0.00  0.00    +0.000 A 
ATOM      6  C   UNL     1      -8.527  -3.576 123.877  0.00  0.00    +0.000 A 
ATOM      7  C   UNL     1      -9.357  -2.707 123.190  0.00  0.00    +0.000 A 
ATOM      8  C   UNL     1      -9.236  -1.326 123.375  0.00  0.00    +0.000 A 
ATOM      9  C   UNL     1      -8.289  -0.794 124.265  0.00  0.00    +0.000 A 
ATOM     10  C   UNL     1      -8.146   0.677 124.440  0.00  0.00    +0.000 C 
ATOM     11  O   UNL     1      -8.705   1.485 123.700  0.00  0.00    +0.000 OA
ATOM     12  C   UNL     1      -7.255   1.182 125.529  0.00  0.00    +0.000 C 
ATOM     13  C   UNL     1      -7.026   2.514 125.618  0.00  0.00    +0.000 C 
ATOM     14  C   UNL     1      -6.176   3.155 126.699  0.00  0.00    +0.000 C 
ATOM     15  C   UNL     1      -5.060   4.035 126.169  0.00  0.00    +0.000 C 
ATOM     16  O   UNL     1      -4.633   3.902 125.013  0.00  0.00    +0.000 OA
ATOM     17  C   UNL     1      -4.241   4.825 127.158  0.00  0.00    +0.000 C 
ATOM     18  C   UNL     1      -3.404   3.868 127.564  0.00  0.00    +0.000 C 
ATOM     19  C   UNL     1      -4.184   2.611 128.412  0.00  0.00    +0.000 C 
ATOM     20  C   UNL     1      -5.464   2.129 127.589  0.00  0.00    +0.000 C 
ATOM     21  C   UNL     1      -5.312   0.730 127.056  0.00  0.00    +0.000 C 
ENDROOT
BRANCH  17  22
ATOM     22  C   UNL     1      -4.548   5.328 128.546  0.00  0.00    +0.000 C 
ATOM     23  N   UNL     1      -3.497   5.367 129.464  0.00  0.00    +0.000 N 
ATOM     24  O   UNL     1      -5.692   5.575 128.938  0.00  0.00    +0.000 OA
ATOM     25  H   UNL     1      -2.604   4.926 129.239  0.00  0.00    +0.000 HD
ATOM     26  H   UNL     1      -3.761   5.150 130.419  0.00  0.00    +0.000 HD
ENDBRANCH  17  22
BRANCH  19  27
ATOM     27  N   UNL     1      -4.726   2.520 129.836  0.00  0.00    +0.000 NA
ATOM     28  C   UNL     1      -3.979   2.088 131.057  0.00  0.00    +0.000 C 
ATOM     29  C   UNL     1      -6.132   2.333 130.067  0.00  0.00    +0.000 C 
ENDBRANCH  19  27
BRANCH   8  30
ATOM     30  O   UNL     1     -10.075  -0.501 122.681  0.00  0.00    +0.000 OA
ATOM     31  H   UNL     1      -9.590  -0.015 121.998  0.00  0.00    +0.000 HD
ENDBRANCH   8  30
BRANCH  13  32
ATOM     32  O   UNL     1      -7.621   3.448 124.776  0.00  0.00    +0.000 OA
ATOM     33  H   UNL     1      -8.548   3.154 124.602  0.00  0.00    +0.000 HD
ENDBRANCH  13  32
BRANCH  14  34
ATOM     34  O   UNL     1      -7.110   3.938 127.435  0.00  0.00    +0.000 OA
ATOM     35  H   UNL     1      -7.735   3.304 127.840  0.00  0.00    +0.000 HD
ENDBRANCH  14  34
BRANCH  18  36
ATOM     36  O   UNL     1      -2.049   4.338 127.725  0.00  0.00    +0.000 OA
ATOM     37  H   UNL     1      -2.088   5.327 127.903  0.00  0.00    +0.000 HD
ENDBRANCH  18  36
BRANCH  21  38
ATOM     38  O   UNL     1      -4.848  -0.071 128.148  0.00  0.00    +0.000 OA
ATOM     39  H   UNL     1      -4.129  -0.657 127.835  0.00  0.00    +0.000 HD
ENDBRANCH  21  38
TORSDOF 7
ENDMDL
MODEL 4
REMARK VINA RESULT:      -7.4      3.596      7.136
REMARK  Name = Doxycycline
REMARK  10 active torsions:
REMARK  status: ('A' for Active; 'I' for Inactive)
REMARK    1  A    between atoms: C_3  and  C_4
REMARK    2  A    between atoms: C_9  and  O_10
REMARK    3  A    between atoms: C_15  and  O_16
REMARK    4  A    between atoms: C_17  and  O_18
REMARK    5  A    between atoms: C_21  and  C_22
REMARK    6  A    between atoms: C_25  and  O_26
REMARK    7  A    between atoms: C_27  and  N_28
REMARK    8  A    between atoms: N_28  and  C_29
REMARK    9  A    between atoms: N_28  and  C_30
REMARK   10  A    between atoms: C_33  and  O_34
REMARK                            x       y       z     vdW  Elec       q    Type
REMARK                         _______ _______ _______ _____ _____    ______ ____
ROOT
ATOM      1  C   UNL     1      -8.058  -0.131 127.658  0.00  0.00    +0.000 C 
ATOM      2  C   UNL     1      -7.501  -1.471 127.147  0.00  0.00    +0.000 C 
ATOM      3  C   UNL     1      -7.721  -2.567 128.211  0.00  0.00    +0.000 C 
ATOM      4  C   UNL     1      -8.119  -1.920 125.845  0.00  0.00    +0.000 A 
ATOM      5  C   UNL     1      -8.072  -3.288 125.517  0.00  0.00    +0.000 A 
ATOM      6  C   UNL     1      -8.616  -3.777 124.347  0.00  0.00    +0.000 A 
ATOM      7  C   UNL     1      -9.174  -2.891 123.442  0.00  0.00    +0.000 A 
ATOM      8  C   UNL     1      -9.201  -1.521 123.726  0.00  0.00    +0.000 A 
ATOM      9  C   UNL     1      -8.682  -1.019 124.930  0.00  0.00    +0.000 A 
ATOM     10  C   UNL     1      -8.691   0.441 125.216  0.00  0.00    +0.000 C 
ATOM     11  O   UNL     1      -8.974   1.279 124.361  0.00  0.00    +0.000 OA
ATOM     12  C   UNL     1      -8.296   0.902 126.582  0.00  0.00    +0.000 C 
ATOM     13  C   UNL     1      -8.185   2.232 126.815  0.00  0.00    +0.000 C 
ATOM     14  C   UNL     1      -7.833   2.828 128.166  0.00  0.00    +0.000 C 
ATOM     15  C   UNL     1      -6.646   3.772 128.135  0.00  0.00    +0.000 C 
ATOM     16  O   UNL     1      -5.814   3.726 127.219  0.00  0.00    +0.000 OA
ATOM     17  C   UNL     1      -6.296   4.521 129.396  0.00  0.00    +0.000 C 
ATOM     18  C   UNL     1      -5.623   3.565 130.039  0.00  0.00    +0.000 C 
ATOM     19  C   UNL     1      -6.597   2.235 130.472  0.00  0.00    +0.000 C 
ATOM     20  C   UNL     1      -7.452   1.769 129.207  0.00  0.00    +0.000 C 
ATOM     21  C   UNL     1      -7.041   0.412 128.703  0.00  0.00    +0.000 C 
ENDROOT
BRANCH  17  22
ATOM     22  C   UNL     1      -7.123   4.925 130.590  0.00  0.00    +0.000 C 
ATOM     23  N   UNL     1      -8.404   5.424 130.347  0.00  0.00    +0.000 N 
ATOM     24  O   UNL     1      -6.679   4.960 131.741  0.00  0.00    +0.000 OA
ATOM     25  H   UNL     1      -8.694   5.646 129.393  0.00  0.00    +0.000 HD
ATOM     26  H   UNL     1      -8.698   6.160 130.980  0.00  0.00    +0.000 HD
ENDBRANCH  17  22
BRANCH  19  27
ATOM     27  N   UNL     1      -7.625   2.037 131.583  0.00  0.00    +0.000 NA
ATOM     28  C   UNL     1      -7.368   1.539 132.969  0.00  0.00    +0.000 C 
ATOM     29  C   UNL     1      -9.007   1.806 131.261  0.00  0.00    +0.000 C 
ENDBRANCH  19  27
BRANCH   8  30
ATOM     30  O   UNL     1      -9.762  -0.679 122.808  0.00  0.00    +0.000 OA
ATOM     31  H   UNL     1     -10.695  -0.519 123.014  0.00  0.00    +0.000 HD
ENDBRANCH   8  30
BRANCH  13  32
ATOM     32  O   UNL     1      -8.471   3.200 125.857  0.00  0.00    +0.000 OA
ATOM     33  H   UNL     1      -7.698   3.260 125.246  0.00  0.00    +0.000 HD
ENDBRANCH  13  32
BRANCH  14  34
ATOM     34  O   UNL     1      -9.013   3.534 128.535  0.00  0.00    +0.000 OA
ATOM     35  H   UNL     1      -8.711   4.345 128.991  0.00  0.00    +0.000 HD
ENDBRANCH  14  34
BRANCH  18  36
ATOM     36  O   UNL     1      -4.452   4.064 130.719  0.00  0.00    +0.000 OA
ATOM     37  H   UNL     1      -4.760   4.539 131.551  0.00  0.00    +0.000 HD
ENDBRANCH  18  36
BRANCH  21  38
ATOM     38  O   UNL     1      -6.977  -0.444 129.849  0.00  0.00    +0.000 OA
ATOM     39  H   UNL     1      -6.068  -0.429 130.212  0.00  0.00    +0.000 HD
ENDBRANCH  21  38
TORSDOF 7
ENDMDL
MODEL 5
REMARK VINA RESULT:      -7.4      6.609      8.084
REMARK  Name = Doxycycline
REMARK  10 active torsions:
REMARK  status: ('A' for Active; 'I' for Inactive)
REMARK    1  A    between atoms: C_3  and  C_4
REMARK    2  A    between atoms: C_9  and  O_10
REMARK    3  A    between atoms: C_15  and  O_16
REMARK    4  A    between atoms: C_17  and  O_18
REMARK    5  A    between atoms: C_21  and  C_22
REMARK    6  A    between atoms: C_25  and  O_26
REMARK    7  A    between atoms: C_27  and  N_28
REMARK    8  A    between atoms: N_28  and  C_29
REMARK    9  A    between atoms: N_28  and  C_30
REMARK   10  A    between atoms: C_33  and  O_34
REMARK                            x       y       z     vdW  Elec       q    Type
REMARK                         _______ _______ _______ _____ _____    ______ ____
ROOT
ATOM      1  C   UNL     1      -7.548  -2.163 128.202  0.00  0.00    +0.000 C 
ATOM      2  C   UNL     1      -8.011  -3.272 127.243  0.00  0.00    +0.000 C 
ATOM      3  C   UNL     1      -9.350  -3.862 127.736  0.00  0.00    +0.000 C 
ATOM      4  C   UNL     1      -8.177  -2.803 125.818  0.00  0.00    +0.000 A 
ATOM      5  C   UNL     1      -9.021  -3.539 124.964  0.00  0.00    +0.000 A 
ATOM      6  C   UNL     1      -9.226  -3.173 123.649  0.00  0.00    +0.000 A 
ATOM      7  C   UNL     1      -8.539  -2.085 123.138  0.00  0.00    +0.000 A 
ATOM      8  C   UNL     1      -7.667  -1.358 123.954  0.00  0.00    +0.000 A 
ATOM      9  C   UNL     1      -7.480  -1.702 125.303  0.00  0.00    +0.000 A 
ATOM     10  C   UNL     1      -6.531  -0.941 126.161  0.00  0.00    +0.000 C 
ATOM     11  O   UNL     1      -5.746  -0.113 125.702  0.00  0.00    +0.000 OA
ATOM     12  C   UNL     1      -6.508  -1.230 127.628  0.00  0.00    +0.000 C 
ATOM     13  C   UNL     1      -5.567  -0.630 128.396  0.00  0.00    +0.000 C 
ATOM     14  C   UNL     1      -5.462  -0.809 129.899  0.00  0.00    +0.000 C 
ATOM     15  C   UNL     1      -4.094  -1.262 130.375  0.00  0.00    +0.000 C 
ATOM     16  O   UNL     1      -3.303  -1.825 129.607  0.00  0.00    +0.000 OA
ATOM     17  C   UNL     1      -3.845  -1.341 131.860  0.00  0.00    +0.000 C 
ATOM     18  C   UNL     1      -4.414  -2.519 132.116  0.00  0.00    +0.000 C 
ATOM     19  C   UNL     1      -6.101  -2.516 131.867  0.00  0.00    +0.000 C 
ATOM     20  C   UNL     1      -6.427  -1.868 130.445  0.00  0.00    +0.000 C 
ATOM     21  C   UNL     1      -6.989  -2.868 129.471  0.00  0.00    +0.000 C 
ENDROOT
BRANCH  17  22
ATOM     22  C   UNL     1      -4.481  -0.630 133.027  0.00  0.00    +0.000 C 
ATOM     23  N   UNL     1      -4.744   0.733 132.885  0.00  0.00    +0.000 N 
ATOM     24  O   UNL     1      -4.653  -1.159 134.129  0.00  0.00    +0.000 OA
ATOM     25  H   UNL     1      -4.375   1.245 132.082  0.00  0.00    +0.000 HD
ATOM     26  H   UNL     1      -4.621   1.278 133.732  0.00  0.00    +0.000 HD
ENDBRANCH  17  22
BRANCH  19  27
ATOM     27  N   UNL     1      -7.257  -1.958 132.693  0.00  0.00    +0.000 NA
ATOM     28  C   UNL     1      -8.056  -2.682 133.728  0.00  0.00    +0.000 C 
ATOM     29  C   UNL     1      -8.037  -0.856 132.198  0.00  0.00    +0.000 C 
ENDBRANCH  19  27
BRANCH   8  30
ATOM     30  O   UNL     1      -7.009  -0.289 123.414  0.00  0.00    +0.000 OA
ATOM     31  H   UNL     1      -6.240  -0.582 122.904  0.00  0.00    +0.000 HD
ENDBRANCH   8  30
BRANCH  13  32
ATOM     32  O   UNL     1      -4.647   0.287 127.897  0.00  0.00    +0.000 OA
ATOM     33  H   UNL     1      -3.785  -0.180 127.779  0.00  0.00    +0.000 HD
ENDBRANCH  13  32
BRANCH  14  34
ATOM     34  O   UNL     1      -5.754   0.488 130.408  0.00  0.00    +0.000 OA
ATOM     35  H   UNL     1      -5.075   0.671 131.089  0.00  0.00    +0.000 HD
ENDBRANCH  14  34
BRANCH  18  36
ATOM     36  O   UNL     1      -3.658  -3.317 133.051  0.00  0.00    +0.000 OA
ATOM     37  H   UNL     1      -3.078  -2.693 133.586  0.00  0.00    +0.000 HD
ENDBRANCH  18  36
BRANCH  21  38
ATOM     38  O   UNL     1      -8.025  -3.571 130.166  0.00  0.00    +0.000 OA
ATOM     39  H   UNL     1      -8.830  -3.592 129.609  0.00  0.00    +0.000 HD
ENDBRANCH  21  38
TORSDOF 7
ENDMDL
MODEL 6
REMARK VINA RESULT:      -7.4      2.600      7.500
REMARK  Name = Doxycycline
REMARK  10 active torsions:
REMARK  status: ('A' for Active; 'I' for Inactive)
REMARK    1  A    between atoms: C_3  and  C_4
REMARK    2  A    between atoms: C_9  and  O_10
REMARK    3  A    between atoms: C_15  and  O_16
REMARK    4  A    between atoms: C_17  and  O_18
REMARK    5  A    between atoms: C_21  and  C_22
REMARK    6  A    between atoms: C_25  and  O_26
REMARK    7  A    between atoms: C_27  and  N_28
REMARK    8  A    between atoms: N_28  and  C_29
REMARK    9  A    between atoms: N_28  and  C_30
REMARK   10  A    between atoms: C_33  and  O_34
REMARK                            x       y       z     vdW  Elec       q    Type
REMARK                         _______ _______ _______ _____ _____    ______ ____
ROOT
ATOM      1  C   UNL     1      -6.427   1.291 130.852  0.00  0.00    +0.000 C 
ATOM      2  C   UNL     1      -4.981   0.770 130.791  0.00  0.00    +0.000 C 
ATOM      3  C   UNL     1      -4.436   0.577 132.222  0.00  0.00    +0.000 C 
ATOM      4  C   UNL     1      -4.842  -0.528 130.033  0.00  0.00    +0.000 A 
ATOM      5  C   UNL     1      -3.722  -1.340 130.294  0.00  0.00    +0.000 A 
ATOM      6  C   UNL     1      -3.525  -2.541 129.645  0.00  0.00    +0.000 A 
ATOM      7  C   UNL     1      -4.423  -2.934 128.668  0.00  0.00    +0.000 A 
ATOM      8  C   UNL     1      -5.525  -2.128 128.362  0.00  0.00    +0.000 A 
ATOM      9  C   UNL     1      -5.753  -0.921 129.043  0.00  0.00    +0.000 A 
ATOM     10  C   UNL     1      -6.913  -0.056 128.697  0.00  0.00    +0.000 C 
ATOM     11  O   UNL     1      -7.608  -0.252 127.702  0.00  0.00    +0.000 OA
ATOM     12  C   UNL     1      -7.211   1.119 129.572  0.00  0.00    +0.000 C 
ATOM     13  C   UNL     1      -8.189   1.979 129.198  0.00  0.00    +0.000 C 
ATOM     14  C   UNL     1      -8.614   3.184 130.017  0.00  0.00    +0.000 C 
ATOM     15  C   UNL     1      -8.581   4.495 129.253  0.00  0.00    +0.000 C 
ATOM     16  O   UNL     1      -7.890   4.625 128.234  0.00  0.00    +0.000 OA
ATOM     17  C   UNL     1      -9.112   5.731 129.933  0.00  0.00    +0.000 C 
ATOM     18  C   UNL     1      -8.050   6.045 130.678  0.00  0.00    +0.000 C 
ATOM     19  C   UNL     1      -7.712   4.887 131.883  0.00  0.00    +0.000 C 
ATOM     20  C   UNL     1      -7.715   3.428 131.235  0.00  0.00    +0.000 C 
ATOM     21  C   UNL     1      -6.349   2.798 131.231  0.00  0.00    +0.000 C 
ENDROOT
BRANCH  17  22
ATOM     22  C   UNL     1     -10.113   5.919 131.044  0.00  0.00    +0.000 C 
ATOM     23  N   UNL     1     -11.288   5.168 130.987  0.00  0.00    +0.000 N 
ATOM     24  O   UNL     1     -10.003   6.787 131.915  0.00  0.00    +0.000 OA
ATOM     25  H   UNL     1     -11.514   4.637 130.144  0.00  0.00    +0.000 HD
ATOM     26  H   UNL     1     -12.113   5.647 131.328  0.00  0.00    +0.000 HD
ENDBRANCH  17  22
BRANCH  19  27
ATOM     27  N   UNL     1      -8.369   4.588 133.229  0.00  0.00    +0.000 NA
ATOM     28  C   UNL     1      -7.976   5.137 134.563  0.00  0.00    +0.000 C 
ATOM     29  C   UNL     1      -9.085   3.359 133.430  0.00  0.00    +0.000 C 
ENDBRANCH  19  27
BRANCH   8  30
ATOM     30  O   UNL     1      -6.391  -2.551 127.393  0.00  0.00    +0.000 OA
ATOM     31  H   UNL     1      -5.941  -2.619 126.538  0.00  0.00    +0.000 HD
ENDBRANCH   8  30
BRANCH  13  32
ATOM     32  O   UNL     1      -8.970   1.797 128.061  0.00  0.00    +0.000 OA
ATOM     33  H   UNL     1      -8.529   2.265 127.311  0.00  0.00    +0.000 HD
ENDBRANCH  13  32
BRANCH  14  34
ATOM     34  O   UNL     1      -9.950   2.872 130.398  0.00  0.00    +0.000 OA
ATOM     35  H   UNL     1      -9.898   2.042 130.913  0.00  0.00    +0.000 HD
ENDBRANCH  14  34
BRANCH  18  36
ATOM     36  O   UNL     1      -7.788   7.463 130.714  0.00  0.00    +0.000 OA
ATOM     37  H   UNL     1      -8.423   7.908 130.071  0.00  0.00    +0.000 HD
ENDBRANCH  18  36
BRANCH  21  38
ATOM     38  O   UNL     1      -5.820   2.968 132.551  0.00  0.00    +0.000 OA
ATOM     39  H   UNL     1      -6.193   3.784 132.944  0.00  0.00    +0.000 HD
ENDBRANCH  21  38
TORSDOF 7
ENDMDL
MODEL 7
REMARK VINA RESULT:      -7.2      5.256      7.005
REMARK  Name = Doxycycline
REMARK  10 active torsions:
REMARK  status: ('A' for Active; 'I' for Inactive)
REMARK    1  A    between atoms: C_3  and  C_4
REMARK    2  A    between atoms: C_9  and  O_10
REMARK    3  A    between atoms: C_15  and  O_16
REMARK    4  A    between atoms: C_17  and  O_18
REMARK    5  A    between atoms: C_21  and  C_22
REMARK    6  A    between atoms: C_25  and  O_26
REMARK    7  A    between atoms: C_27  and  N_28
REMARK    8  A    between atoms: N_28  and  C_29
REMARK    9  A    between atoms: N_28  and  C_30
REMARK   10  A    between atoms: C_33  and  O_34
REMARK                            x       y       z     vdW  Elec       q    Type
REMARK                         _______ _______ _______ _____ _____    ______ ____
ROOT
ATOM      1  C   UNL     1      -4.933   2.618 128.201  0.00  0.00    +0.000 C 
ATOM      2  C   UNL     1      -4.749   2.752 129.722  0.00  0.00    +0.000 C 
ATOM      3  C   UNL     1      -4.148   1.448 130.290  0.00  0.00    +0.000 C 
ATOM      4  C   UNL     1      -3.870   3.912 130.120  0.00  0.00    +0.000 A 
ATOM      5  C   UNL     1      -3.241   3.876 131.379  0.00  0.00    +0.000 A 
ATOM      6  C   UNL     1      -2.422   4.897 131.814  0.00  0.00    +0.000 A 
ATOM      7  C   UNL     1      -2.257   6.015 131.016  0.00  0.00    +0.000 A 
ATOM      8  C   UNL     1      -2.899   6.094 129.776  0.00  0.00    +0.000 A 
ATOM      9  C   UNL     1      -3.707   5.044 129.310  0.00  0.00    +0.000 A 
ATOM     10  C   UNL     1      -4.408   5.143 128.001  0.00  0.00    +0.000 C 
ATOM     11  O   UNL     1      -4.467   6.192 127.362  0.00  0.00    +0.000 OA
ATOM     12  C   UNL     1      -5.102   3.929 127.471  0.00  0.00    +0.000 C 
ATOM     13  C   UNL     1      -5.843   4.043 126.342  0.00  0.00    +0.000 C 
ATOM     14  C   UNL     1      -6.561   2.881 125.682  0.00  0.00    +0.000 C 
ATOM     15  C   UNL     1      -8.042   3.117 125.454  0.00  0.00    +0.000 C 
ATOM     16  O   UNL     1      -8.664   3.966 126.109  0.00  0.00    +0.000 OA
ATOM     17  C   UNL     1      -8.821   2.081 124.685  0.00  0.00    +0.000 C 
ATOM     18  C   UNL     1      -9.030   1.195 125.660  0.00  0.00    +0.000 C 
ATOM     19  C   UNL     1      -7.594   0.464 126.219  0.00  0.00    +0.000 C 
ATOM     20  C   UNL     1      -6.503   1.592 126.510  0.00  0.00    +0.000 C 
ATOM     21  C   UNL     1      -6.182   1.718 127.975  0.00  0.00    +0.000 C 
ENDROOT
BRANCH  17  22
ATOM     22  C   UNL     1      -8.399   1.056 123.663  0.00  0.00    +0.000 C 
ATOM     23  N   UNL     1      -7.246   1.322 122.923  0.00  0.00    +0.000 N 
ATOM     24  O   UNL     1      -9.086   0.076 123.363  0.00  0.00    +0.000 OA
ATOM     25  H   UNL     1      -6.808   2.244 122.972  0.00  0.00    +0.000 HD
ATOM     26  H   UNL     1      -7.277   1.003 121.961  0.00  0.00    +0.000 HD
ENDBRANCH  17  22
BRANCH  19  27
ATOM     27  N   UNL     1      -6.706  -0.630 125.631  0.00  0.00    +0.000 NA
ATOM     28  C   UNL     1      -6.984  -2.099 125.605  0.00  0.00    +0.000 C 
ATOM     29  C   UNL     1      -5.288  -0.429 125.516  0.00  0.00    +0.000 C 
ENDBRANCH  19  27
BRANCH   8  30
ATOM     30  O   UNL     1      -2.710   7.213 129.016  0.00  0.00    +0.000 OA
ATOM     31  H   UNL     1      -2.341   7.932 129.549  0.00  0.00    +0.000 HD
ENDBRANCH   8  30
BRANCH  13  32
ATOM     32  O   UNL     1      -5.950   5.225 125.616  0.00  0.00    +0.000 OA
ATOM     33  H   UNL     1      -5.038   5.522 125.382  0.00  0.00    +0.000 HD
ENDBRANCH  13  32
BRANCH  14  34
ATOM     34  O   UNL     1      -5.890   2.740 124.434  0.00  0.00    +0.000 OA
ATOM     35  H   UNL     1      -6.566   2.894 123.744  0.00  0.00    +0.000 HD
ENDBRANCH  14  34
BRANCH  18  36
ATOM     36  O   UNL     1     -10.358   0.631 125.632  0.00  0.00    +0.000 OA
ATOM     37  H   UNL     1     -10.815   0.882 126.493  0.00  0.00    +0.000 HD
ENDBRANCH  18  36
BRANCH  21  38
ATOM     38  O   UNL     1      -5.950   0.389 128.454  0.00  0.00    +0.000 OA
ATOM     39  H   UNL     1      -5.030   0.320 128.782  0.00  0.00    +0.000 HD
ENDBRANCH  21  38
TORSDOF 7
ENDMDL
MODEL 8
REMARK VINA RESULT:      -7.1      3.542      7.138
REMARK  Name = Doxycycline
REMARK  10 active torsions:
REMARK  status: ('A' for Active; 'I' for Inactive)
REMARK    1  A    between atoms: C_3  and  C_4
REMARK    2  A    between atoms: C_9  and  O_10
REMARK    3  A    between atoms: C_15  and  O_16
REMARK    4  A    between atoms: C_17  and  O_18
REMARK    5  A    between atoms: C_21  and  C_22
REMARK    6  A    between atoms: C_25  and  O_26
REMARK    7  A    between atoms: C_27  and  N_28
REMARK    8  A    between atoms: N_28  and  C_29
REMARK    9  A    between atoms: N_28  and  C_30
REMARK   10  A    between atoms: C_33  and  O_34
REMARK                            x       y       z     vdW  Elec       q    Type
REMARK                         _______ _______ _______ _____ _____    ______ ____
ROOT
ATOM      1  C   UNL     1      -7.997   0.909 127.511  0.00  0.00    +0.000 C 
ATOM      2  C   UNL     1      -8.916   0.968 126.279  0.00  0.00    +0.000 C 
ATOM      3  C   UNL     1      -8.595   2.230 125.450  0.00  0.00    +0.000 C 
ATOM      4  C   UNL     1      -8.804  -0.245 125.389  0.00  0.00    +0.000 A 
ATOM      5  C   UNL     1      -9.195  -0.127 124.041  0.00  0.00    +0.000 A 
ATOM      6  C   UNL     1      -9.120  -1.190 123.165  0.00  0.00    +0.000 A 
ATOM      7  C   UNL     1      -8.703  -2.423 123.635  0.00  0.00    +0.000 A 
ATOM      8  C   UNL     1      -8.343  -2.578 124.978  0.00  0.00    +0.000 A 
ATOM      9  C   UNL     1      -8.382  -1.493 125.869  0.00  0.00    +0.000 A 
ATOM     10  C   UNL     1      -8.023  -1.668 127.302  0.00  0.00    +0.000 C 
ATOM     11  O   UNL     1      -7.857  -2.776 127.810  0.00  0.00    +0.000 OA
ATOM     12  C   UNL     1      -7.904  -0.450 128.161  0.00  0.00    +0.000 C 
ATOM     13  C   UNL     1      -7.696  -0.608 129.491  0.00  0.00    +0.000 C 
ATOM     14  C   UNL     1      -7.518   0.545 130.461  0.00  0.00    +0.000 C 
ATOM     15  C   UNL     1      -8.467   0.511 131.644  0.00  0.00    +0.000 C 
ATOM     16  O   UNL     1      -9.527  -0.129 131.597  0.00  0.00    +0.000 OA
ATOM     17  C   UNL     1      -8.285   1.534 132.736  0.00  0.00    +0.000 C 
ATOM     18  C   UNL     1      -8.901   2.573 132.168  0.00  0.00    +0.000 C 
ATOM     19  C   UNL     1      -8.103   3.144 130.774  0.00  0.00    +0.000 C 
ATOM     20  C   UNL     1      -7.760   1.914 129.816  0.00  0.00    +0.000 C 
ATOM     21  C   UNL     1      -8.543   1.951 128.531  0.00  0.00    +0.000 C 
ENDROOT
BRANCH  17  22
ATOM     22  C   UNL     1      -7.083   2.324 133.186  0.00  0.00    +0.000 C 
ATOM     23  N   UNL     1      -5.831   1.719 133.061  0.00  0.00    +0.000 N 
ATOM     24  O   UNL     1      -7.165   3.407 133.773  0.00  0.00    +0.000 OA
ATOM     25  H   UNL     1      -5.763   0.729 132.819  0.00  0.00    +0.000 HD
ATOM     26  H   UNL     1      -5.177   1.942 133.803  0.00  0.00    +0.000 HD
ENDBRANCH  17  22
BRANCH  19  27
ATOM     27  N   UNL     1      -6.846   3.992 130.589  0.00  0.00    +0.000 NA
ATOM     28  C   UNL     1      -6.761   5.484 130.576  0.00  0.00    +0.000 C 
ATOM     29  C   UNL     1      -5.709   3.460 129.889  0.00  0.00    +0.000 C 
ENDBRANCH  19  27
BRANCH   8  30
ATOM     30  O   UNL     1      -7.935  -3.810 125.404  0.00  0.00    +0.000 OA
ATOM     31  H   UNL     1      -7.405  -4.250 124.723  0.00  0.00    +0.000 HD
ENDBRANCH   8  30
BRANCH  13  32
ATOM     32  O   UNL     1      -7.535  -1.851 130.095  0.00  0.00    +0.000 OA
ATOM     33  H   UNL     1      -7.841  -1.776 131.031  0.00  0.00    +0.000 HD
ENDBRANCH  13  32
BRANCH  14  34
ATOM     34  O   UNL     1      -6.174   0.399 130.907  0.00  0.00    +0.000 OA
ATOM     35  H   UNL     1      -6.203   0.470 131.882  0.00  0.00    +0.000 HD
ENDBRANCH  14  34
BRANCH  18  36
ATOM     36  O   UNL     1      -9.707   3.325 133.098  0.00  0.00    +0.000 OA
ATOM     37  H   UNL     1     -10.673   3.155 132.873  0.00  0.00    +0.000 HD
ENDBRANCH  18  36
BRANCH  21  38
ATOM     38  O   UNL     1      -8.420   3.283 128.020  0.00  0.00    +0.000 OA
ATOM     39  H   UNL     1      -7.542   3.386 127.598  0.00  0.00    +0.000 HD
ENDBRANCH  21  38
TORSDOF 7
ENDMDL
MODEL 9
REMARK VINA RESULT:      -7.1      3.155      8.537
REMARK  Name = Doxycycline
REMARK  10 active torsions:
REMARK  status: ('A' for Active; 'I' for Inactive)
REMARK    1  A    between atoms: C_3  and  C_4
REMARK    2  A    between atoms: C_9  and  O_10
REMARK    3  A    between atoms: C_15  and  O_16
REMARK    4  A    between atoms: C_17  and  O_18
REMARK    5  A    between atoms: C_21  and  C_22
REMARK    6  A    between atoms: C_25  and  O_26
REMARK    7  A    between atoms: C_27  and  N_28
REMARK    8  A    between atoms: N_28  and  C_29
REMARK    9  A    between atoms: N_28  and  C_30
REMARK   10  A    between atoms: C_33  and  O_34
REMARK                            x       y       z     vdW  Elec       q    Type
REMARK                         _______ _______ _______ _____ _____    ______ ____
ROOT
ATOM      1  C   UNL     1      -6.887  -0.369 130.339  0.00  0.00    +0.000 C 
ATOM      2  C   UNL     1      -7.180  -1.804 129.869  0.00  0.00    +0.000 C 
ATOM      3  C   UNL     1      -6.733  -1.973 128.401  0.00  0.00    +0.000 C 
ATOM      4  C   UNL     1      -6.509  -2.860 130.712  0.00  0.00    +0.000 A 
ATOM      5  C   UNL     1      -6.293  -4.132 130.147  0.00  0.00    +0.000 A 
ATOM      6  C   UNL     1      -5.684  -5.149 130.853  0.00  0.00    +0.000 A 
ATOM      7  C   UNL     1      -5.325  -4.933 132.172  0.00  0.00    +0.000 A 
ATOM      8  C   UNL     1      -5.561  -3.691 132.770  0.00  0.00    +0.000 A 
ATOM      9  C   UNL     1      -6.148  -2.638 132.048  0.00  0.00    +0.000 A 
ATOM     10  C   UNL     1      -6.420  -1.326 132.696  0.00  0.00    +0.000 C 
ATOM     11  O   UNL     1      -6.320  -1.157 133.910  0.00  0.00    +0.000 OA
ATOM     12  C   UNL     1      -6.873  -0.189 131.838  0.00  0.00    +0.000 C 
ATOM     13  C   UNL     1      -7.238   0.972 132.434  0.00  0.00    +0.000 C 
ATOM     14  C   UNL     1      -7.677   2.210 131.675  0.00  0.00    +0.000 C 
ATOM     15  C   UNL     1      -9.026   2.755 132.106  0.00  0.00    +0.000 C 
ATOM     16  O   UNL     1      -9.848   2.039 132.693  0.00  0.00    +0.000 OA
ATOM     17  C   UNL     1      -9.493   4.058 131.510  0.00  0.00    +0.000 C 
ATOM     18  C   UNL     1      -9.957   3.611 130.342  0.00  0.00    +0.000 C 
ATOM     19  C   UNL     1      -8.734   2.982 129.333  0.00  0.00    +0.000 C 
ATOM     20  C   UNL     1      -7.826   1.969 130.169  0.00  0.00    +0.000 C 
ATOM     21  C   UNL     1      -7.972   0.546 129.702  0.00  0.00    +0.000 C 
ENDROOT
BRANCH  17  22
ATOM     22  C   UNL     1      -8.741   5.223 130.918  0.00  0.00    +0.000 C 
ATOM     23  N   UNL     1      -7.607   5.669 131.597  0.00  0.00    +0.000 N 
ATOM     24  O   UNL     1      -9.151   5.872 129.951  0.00  0.00    +0.000 OA
ATOM     25  H   UNL     1      -7.398   5.315 132.531  0.00  0.00    +0.000 HD
ATOM     26  H   UNL     1      -7.461   6.672 131.564  0.00  0.00    +0.000 HD
ENDBRANCH  17  22
BRANCH  19  27
ATOM     27  N   UNL     1      -7.668   3.656 128.473  0.00  0.00    +0.000 NA
ATOM     28  C   UNL     1      -7.771   4.005 127.023  0.00  0.00    +0.000 C 
ATOM     29  C   UNL     1      -6.279   3.550 128.823  0.00  0.00    +0.000 C 
ENDBRANCH  19  27
BRANCH   8  30
ATOM     30  O   UNL     1      -5.191  -3.516 134.073  0.00  0.00    +0.000 OA
ATOM     31  H   UNL     1      -4.729  -4.299 134.407  0.00  0.00    +0.000 HD
ENDBRANCH   8  30
BRANCH  13  32
ATOM     32  O   UNL     1      -7.163   1.180 133.808  0.00  0.00    +0.000 OA
ATOM     33  H   UNL     1      -7.152   0.296 134.249  0.00  0.00    +0.000 HD
ENDBRANCH  13  32
BRANCH  14  34
ATOM     34  O   UNL     1      -6.652   3.156 131.962  0.00  0.00    +0.000 OA
ATOM     35  H   UNL     1      -5.838   2.636 132.115  0.00  0.00    +0.000 HD
ENDBRANCH  14  34
BRANCH  18  36
ATOM     36  O   UNL     1     -11.191   4.246 129.947  0.00  0.00    +0.000 OA
ATOM     37  H   UNL     1     -11.039   4.680 129.051  0.00  0.00    +0.000 HD
ENDBRANCH  18  36
BRANCH  21  38
ATOM     38  O   UNL     1      -7.849   0.573 128.276  0.00  0.00    +0.000 OA
ATOM     39  H   UNL     1      -8.064  -0.312 127.917  0.00  0.00    +0.000 HD
ENDBRANCH  21  38
TORSDOF 7
ENDMDL
