MODEL 1
REMARK VINA RESULT:      -6.5      0.000      0.000
REMARK  Name = Doxylamine
REMARK  9 active torsions:
REMARK  status: ('A' for Active; 'I' for Inactive)
REMARK    1  A    between atoms: C_1  and  N_2
REMARK    2  A    between atoms: N_2  and  C_3
REMARK    3  A    between atoms: N_2  and  C_4
REMARK    4  A    between atoms: C_4  and  C_5
REMARK    5  A    between atoms: C_5  and  O_6
REMARK    6  A    between atoms: O_6  and  C_7
REMARK    7  A    between atoms: C_7  and  C_8
REMARK    8  A    between atoms: C_7  and  C_9
REMARK    9  A    between atoms: C_7  and  C_15
REMARK                            x       y       z     vdW  Elec       q    Type
REMARK                         _______ _______ _______ _____ _____    ______ ____
ROOT
ATOM      1  C   UNL     1      -7.720  -2.509 124.984  0.00  0.00    +0.000 C 
ATOM      2  C   UNL     1      -8.974  -3.079 124.249  0.00  0.00    +0.000 C 
ENDROOT
BRANCH   1   3
ATOM      3  C   UNL     1      -6.389  -3.098 124.406  0.00  0.00    +0.000 A 
ATOM      4  C   UNL     1      -5.362  -2.278 123.895  0.00  0.00    +0.000 A 
ATOM      5  C   UNL     1      -4.193  -2.826 123.353  0.00  0.00    +0.000 A 
ATOM      6  C   UNL     1      -4.000  -4.201 123.323  0.00  0.00    +0.000 A 
ATOM      7  C   UNL     1      -4.956  -5.032 123.882  0.00  0.00    +0.000 A 
ATOM      8  C   UNL     1      -6.096  -4.473 124.453  0.00  0.00    +0.000 A 
ENDBRANCH   1   3
BRANCH   1   9
ATOM      9  C   UNL     1      -7.891  -2.784 126.512  0.00  0.00    +0.000 A 
ATOM     10  C   UNL     1      -8.826  -3.714 126.976  0.00  0.00    +0.000 A 
ATOM     11  C   UNL     1      -9.071  -3.874 128.331  0.00  0.00    +0.000 A 
ATOM     12  C   UNL     1      -8.241  -3.232 129.230  0.00  0.00    +0.000 A 
ATOM     13  C   UNL     1      -7.247  -2.417 128.719  0.00  0.00    +0.000 A 
ATOM     14  N   UNL     1      -7.083  -2.144 127.403  0.00  0.00    +0.000 NA
ENDBRANCH   1   9
BRANCH   1  15
ATOM     15  O   UNL     1      -7.724  -1.061 124.855  0.00  0.00    +0.000 OA
BRANCH  15  16
ATOM     16  C   UNL     1      -9.035  -0.518 124.771  0.00  0.00    +0.000 C 
BRANCH  16  17
ATOM     17  C   UNL     1      -9.230   0.667 125.703  0.00  0.00    +0.000 C 
BRANCH  17  19
ATOM     18  C   UNL     1      -8.483   2.784 124.858  0.00  0.00    +0.000 C 
ATOM     19  N   UNL     1      -9.615   1.866 124.932  0.00  0.00    +0.000 NA
ATOM     20  C   UNL     1     -10.074   1.528 123.579  0.00  0.00    +0.000 C 
ENDBRANCH  17  19
ENDBRANCH  16  17
ENDBRANCH  15  16
ENDBRANCH   1  15
TORSDOF 6
ENDMDL
MODEL 2
REMARK VINA RESULT:      -6.3      3.196      7.299
REMARK  Name = Doxylamine
REMARK  9 active torsions:
REMARK  status: ('A' for Active; 'I' for Inactive)
REMARK    1  A    between atoms: C_1  and  N_2
REMARK    2  A    between atoms: N_2  and  C_3
REMARK    3  A    between atoms: N_2  and  C_4
REMARK    4  A    between atoms: C_4  and  C_5
REMARK    5  A    between atoms: C_5  and  O_6
REMARK    6  A    between atoms: O_6  and  C_7
REMARK    7  A    between atoms: C_7  and  C_8
REMARK    8  A    between atoms: C_7  and  C_9
REMARK    9  A    between atoms: C_7  and  C_15
REMARK                            x       y       z     vdW  Elec       q    Type
REMARK                         _______ _______ _______ _____ _____    ______ ____
ROOT
ATOM      1  C   UNL     1      -7.598   2.323 123.762  0.00  0.00    +0.000 C 
ATOM      2  C   UNL     1      -9.045   2.450 124.335  0.00  0.00    +0.000 C 
ENDROOT
BRANCH   1   3
ATOM      3  C   UNL     1      -6.534   2.948 124.726  0.00  0.00    +0.000 A 
ATOM      4  C   UNL     1      -6.472   4.333 124.983  0.00  0.00    +0.000 A 
ATOM      5  C   UNL     1      -5.492   4.876 125.823  0.00  0.00    +0.000 A 
ATOM      6  C   UNL     1      -4.560   4.058 126.449  0.00  0.00    +0.000 A 
ATOM      7  C   UNL     1      -4.638   2.687 126.276  0.00  0.00    +0.000 A 
ATOM      8  C   UNL     1      -5.641   2.155 125.470  0.00  0.00    +0.000 A 
ENDBRANCH   1   3
BRANCH   1   9
ATOM      9  C   UNL     1      -7.585   2.970 122.341  0.00  0.00    +0.000 A 
ATOM     10  C   UNL     1      -6.386   3.150 121.643  0.00  0.00    +0.000 A 
ATOM     11  C   UNL     1      -6.351   3.833 120.438  0.00  0.00    +0.000 A 
ATOM     12  C   UNL     1      -7.549   4.173 119.839  0.00  0.00    +0.000 A 
ATOM     13  C   UNL     1      -8.716   3.861 120.512  0.00  0.00    +0.000 A 
ATOM     14  N   UNL     1      -8.763   3.318 121.751  0.00  0.00    +0.000 NA
ENDBRANCH   1   9
BRANCH   1  15
ATOM     15  O   UNL     1      -7.307   0.915 123.543  0.00  0.00    +0.000 OA
BRANCH  15  16
ATOM     16  C   UNL     1      -8.458   0.089 123.666  0.00  0.00    +0.000 C 
BRANCH  16  17
ATOM     17  C   UNL     1      -8.104  -1.339 124.053  0.00  0.00    +0.000 C 
BRANCH  17  19
ATOM     18  C   UNL     1      -9.466  -3.227 123.474  0.00  0.00    +0.000 C 
ATOM     19  N   UNL     1      -9.328  -2.096 124.386  0.00  0.00    +0.000 NA
ATOM     20  C   UNL     1      -9.320  -2.573 125.774  0.00  0.00    +0.000 C 
ENDBRANCH  17  19
ENDBRANCH  16  17
ENDBRANCH  15  16
ENDBRANCH   1  15
TORSDOF 6
ENDMDL
MODEL 3
REMARK VINA RESULT:      -6.3      1.632      4.485
REMARK  Name = Doxylamine
REMARK  9 active torsions:
REMARK  status: ('A' for Active; 'I' for Inactive)
REMARK    1  A    between atoms: C_1  and  N_2
REMARK    2  A    between atoms: N_2  and  C_3
REMARK    3  A    between atoms: N_2  and  C_4
REMARK    4  A    between atoms: C_4  and  C_5
REMARK    5  A    between atoms: C_5  and  O_6
REMARK    6  A    between atoms: O_6  and  C_7
REMARK    7  A    between atoms: C_7  and  C_8
REMARK    8  A    between atoms: C_7  and  C_9
REMARK    9  A    between atoms: C_7  and  C_15
REMARK                            x       y       z     vdW  Elec       q    Type
REMARK                         _______ _______ _______ _____ _____    ______ ____
ROOT
ATOM      1  C   UNL     1      -7.629  -0.768 125.912  0.00  0.00    +0.000 C 
ATOM      2  C   UNL     1      -6.802   0.459 126.408  0.00  0.00    +0.000 C 
ENDROOT
BRANCH   1   3
ATOM      3  C   UNL     1      -7.961  -1.757 127.079  0.00  0.00    +0.000 A 
ATOM      4  C   UNL     1      -7.616  -1.485 128.418  0.00  0.00    +0.000 A 
ATOM      5  C   UNL     1      -7.893  -2.398 129.443  0.00  0.00    +0.000 A 
ATOM      6  C   UNL     1      -8.541  -3.596 129.171  0.00  0.00    +0.000 A 
ATOM      7  C   UNL     1      -8.959  -3.862 127.879  0.00  0.00    +0.000 A 
ATOM      8  C   UNL     1      -8.712  -2.930 126.875  0.00  0.00    +0.000 A 
ENDBRANCH   1   3
BRANCH   1   9
ATOM      9  C   UNL     1      -6.836  -1.445 124.750  0.00  0.00    +0.000 A 
ATOM     10  C   UNL     1      -5.784  -2.328 125.014  0.00  0.00    +0.000 A 
ATOM     11  C   UNL     1      -4.997  -2.837 123.993  0.00  0.00    +0.000 A 
ATOM     12  C   UNL     1      -5.383  -2.605 122.686  0.00  0.00    +0.000 A 
ATOM     13  C   UNL     1      -6.507  -1.825 122.477  0.00  0.00    +0.000 A 
ATOM     14  N   UNL     1      -7.205  -1.210 123.459  0.00  0.00    +0.000 NA
ENDBRANCH   1   9
BRANCH   1  15
ATOM     15  O   UNL     1      -8.858  -0.283 125.302  0.00  0.00    +0.000 OA
BRANCH  15  16
ATOM     16  C   UNL     1      -9.091   1.097 125.554  0.00  0.00    +0.000 C 
BRANCH  16  17
ATOM     17  C   UNL     1      -9.682   1.811 124.349  0.00  0.00    +0.000 C 
BRANCH  17  19
ATOM     18  C   UNL     1      -8.284   3.619 125.077  0.00  0.00    +0.000 C 
ATOM     19  N   UNL     1      -8.787   2.901 123.911  0.00  0.00    +0.000 NA
ATOM     20  C   UNL     1      -7.663   2.402 123.109  0.00  0.00    +0.000 C 
ENDBRANCH  17  19
ENDBRANCH  16  17
ENDBRANCH  15  16
ENDBRANCH   1  15
TORSDOF 6
ENDMDL
MODEL 4
REMARK VINA RESULT:      -6.3      7.042     10.754
REMARK  Name = Doxylamine
REMARK  9 active torsions:
REMARK  status: ('A' for Active; 'I' for Inactive)
REMARK    1  A    between atoms: C_1  and  N_2
REMARK    2  A    between atoms: N_2  and  C_3
REMARK    3  A    between atoms: N_2  and  C_4
REMARK    4  A    between atoms: C_4  and  C_5
REMARK    5  A    between atoms: C_5  and  O_6
REMARK    6  A    between atoms: O_6  and  C_7
REMARK    7  A    between atoms: C_7  and  C_8
REMARK    8  A    between atoms: C_7  and  C_9
REMARK    9  A    between atoms: C_7  and  C_15
REMARK                            x       y       z     vdW  Elec       q    Type
REMARK                         _______ _______ _______ _____ _____    ______ ____
ROOT
ATOM      1  C   UNL     1      -8.990   6.374 130.638  0.00  0.00    +0.000 C 
ATOM      2  C   UNL     1      -9.074   6.078 132.168  0.00  0.00    +0.000 C 
ENDROOT
BRANCH   1   3
ATOM      3  C   UNL     1     -10.252   7.145 130.124  0.00  0.00    +0.000 A 
ATOM      4  C   UNL     1     -10.235   7.916 128.944  0.00  0.00    +0.000 A 
ATOM      5  C   UNL     1     -11.366   8.625 128.519  0.00  0.00    +0.000 A 
ATOM      6  C   UNL     1     -12.551   8.570 129.240  0.00  0.00    +0.000 A 
ATOM      7  C   UNL     1     -12.624   7.764 130.364  0.00  0.00    +0.000 A 
ATOM      8  C   UNL     1     -11.505   7.034 130.755  0.00  0.00    +0.000 A 
ENDBRANCH   1   3
BRANCH   1   9
ATOM      9  C   UNL     1      -8.764   5.018 129.897  0.00  0.00    +0.000 A 
ATOM     10  C   UNL     1      -9.288   3.824 130.403  0.00  0.00    +0.000 A 
ATOM     11  C   UNL     1      -8.989   2.603 129.821  0.00  0.00    +0.000 A 
ATOM     12  C   UNL     1      -8.315   2.596 128.614  0.00  0.00    +0.000 A 
ATOM     13  C   UNL     1      -7.925   3.815 128.089  0.00  0.00    +0.000 A 
ATOM     14  N   UNL     1      -8.089   5.005 128.713  0.00  0.00    +0.000 NA
ENDBRANCH   1   9
BRANCH   1  15
ATOM     15  O   UNL     1      -7.789   7.153 130.381  0.00  0.00    +0.000 OA
BRANCH  15  16
ATOM     16  C   UNL     1      -6.734   6.855 131.287  0.00  0.00    +0.000 C 
BRANCH  16  17
ATOM     17  C   UNL     1      -5.377   7.289 130.755  0.00  0.00    +0.000 C 
BRANCH  17  19
ATOM     18  C   UNL     1      -3.773   6.981 128.998  0.00  0.00    +0.000 C 
ATOM     19  N   UNL     1      -4.977   6.437 129.617  0.00  0.00    +0.000 NA
ATOM     20  C   UNL     1      -4.744   5.046 130.025  0.00  0.00    +0.000 C 
ENDBRANCH  17  19
ENDBRANCH  16  17
ENDBRANCH  15  16
ENDBRANCH   1  15
TORSDOF 6
ENDMDL
MODEL 5
REMARK VINA RESULT:      -6.1      3.620      6.208
REMARK  Name = Doxylamine
REMARK  9 active torsions:
REMARK  status: ('A' for Active; 'I' for Inactive)
REMARK    1  A    between atoms: C_1  and  N_2
REMARK    2  A    between atoms: N_2  and  C_3
REMARK    3  A    between atoms: N_2  and  C_4
REMARK    4  A    between atoms: C_4  and  C_5
REMARK    5  A    between atoms: C_5  and  O_6
REMARK    6  A    between atoms: O_6  and  C_7
REMARK    7  A    between atoms: C_7  and  C_8
REMARK    8  A    between atoms: C_7  and  C_9
REMARK    9  A    between atoms: C_7  and  C_15
REMARK                            x       y       z     vdW  Elec       q    Type
REMARK                         _______ _______ _______ _____ _____    ______ ____
ROOT
ATOM      1  C   UNL     1      -7.799   1.909 123.663  0.00  0.00    +0.000 C 
ATOM      2  C   UNL     1      -9.083   2.395 124.407  0.00  0.00    +0.000 C 
ENDROOT
BRANCH   1   3
ATOM      3  C   UNL     1      -7.530   2.738 122.363  0.00  0.00    +0.000 A 
ATOM      4  C   UNL     1      -8.575   3.242 121.561  0.00  0.00    +0.000 A 
ATOM      5  C   UNL     1      -8.313   3.954 120.383  0.00  0.00    +0.000 A 
ATOM      6  C   UNL     1      -7.007   4.206 119.982  0.00  0.00    +0.000 A 
ATOM      7  C   UNL     1      -5.959   3.789 120.784  0.00  0.00    +0.000 A 
ATOM      8  C   UNL     1      -6.233   3.116 121.971  0.00  0.00    +0.000 A 
ENDBRANCH   1   3
BRANCH   1   9
ATOM      9  C   UNL     1      -7.952   0.380 123.387  0.00  0.00    +0.000 A 
ATOM     10  C   UNL     1      -6.831  -0.448 123.275  0.00  0.00    +0.000 A 
ATOM     11  C   UNL     1      -6.953  -1.779 122.908  0.00  0.00    +0.000 A 
ATOM     12  C   UNL     1      -8.219  -2.329 122.836  0.00  0.00    +0.000 A 
ATOM     13  C   UNL     1      -9.296  -1.496 123.078  0.00  0.00    +0.000 A 
ATOM     14  N   UNL     1      -9.199  -0.165 123.302  0.00  0.00    +0.000 NA
ENDBRANCH   1   9
BRANCH   1  15
ATOM     15  O   UNL     1      -6.667   2.020 124.570  0.00  0.00    +0.000 OA
BRANCH  15  16
ATOM     16  C   UNL     1      -6.995   2.687 125.782  0.00  0.00    +0.000 C 
BRANCH  16  17
ATOM     17  C   UNL     1      -5.768   3.252 126.479  0.00  0.00    +0.000 C 
BRANCH  17  19
ATOM     18  C   UNL     1      -4.566   5.262 127.003  0.00  0.00    +0.000 C 
ATOM     19  N   UNL     1      -5.833   4.728 126.514  0.00  0.00    +0.000 NA
ATOM     20  C   UNL     1      -6.141   5.297 125.197  0.00  0.00    +0.000 C 
ENDBRANCH  17  19
ENDBRANCH  16  17
ENDBRANCH  15  16
ENDBRANCH   1  15
TORSDOF 6
ENDMDL
MODEL 6
REMARK VINA RESULT:      -5.8      6.601     10.163
REMARK  Name = Doxylamine
REMARK  9 active torsions:
REMARK  status: ('A' for Active; 'I' for Inactive)
REMARK    1  A    between atoms: C_1  and  N_2
REMARK    2  A    between atoms: N_2  and  C_3
REMARK    3  A    between atoms: N_2  and  C_4
REMARK    4  A    between atoms: C_4  and  C_5
REMARK    5  A    between atoms: C_5  and  O_6
REMARK    6  A    between atoms: O_6  and  C_7
REMARK    7  A    between atoms: C_7  and  C_8
REMARK    8  A    between atoms: C_7  and  C_9
REMARK    9  A    between atoms: C_7  and  C_15
REMARK                            x       y       z     vdW  Elec       q    Type
REMARK                         _______ _______ _______ _____ _____    ______ ____
ROOT
ATOM      1  C   UNL     1      -8.923   5.880 130.551  0.00  0.00    +0.000 C 
ATOM      2  C   UNL     1      -7.845   6.706 131.320  0.00  0.00    +0.000 C 
ENDROOT
BRANCH   1   3
ATOM      3  C   UNL     1     -10.228   6.710 130.307  0.00  0.00    +0.000 A 
ATOM      4  C   UNL     1     -11.342   6.633 131.167  0.00  0.00    +0.000 A 
ATOM      5  C   UNL     1     -12.512   7.359 130.912  0.00  0.00    +0.000 A 
ATOM      6  C   UNL     1     -12.600   8.201 129.811  0.00  0.00    +0.000 A 
ATOM      7  C   UNL     1     -11.499   8.356 128.987  0.00  0.00    +0.000 A 
ATOM      8  C   UNL     1     -10.329   7.658 129.272  0.00  0.00    +0.000 A 
ENDBRANCH   1   3
BRANCH   1   9
ATOM      9  C   UNL     1      -9.182   4.564 131.352  0.00  0.00    +0.000 A 
ATOM     10  C   UNL     1      -8.838   4.463 132.703  0.00  0.00    +0.000 A 
ATOM     11  C   UNL     1      -8.950   3.263 133.387  0.00  0.00    +0.000 A 
ATOM     12  C   UNL     1      -9.587   2.206 132.762  0.00  0.00    +0.000 A 
ATOM     13  C   UNL     1     -10.022   2.396 131.463  0.00  0.00    +0.000 A 
ATOM     14  N   UNL     1      -9.798   3.515 130.737  0.00  0.00    +0.000 NA
ENDBRANCH   1   9
BRANCH   1  15
ATOM     15  O   UNL     1      -8.360   5.449 129.282  0.00  0.00    +0.000 OA
BRANCH  15  16
ATOM     16  C   UNL     1      -7.045   4.924 129.412  0.00  0.00    +0.000 C 
BRANCH  16  17
ATOM     17  C   UNL     1      -6.766   3.812 128.412  0.00  0.00    +0.000 C 
BRANCH  17  19
ATOM     18  C   UNL     1      -7.799   3.833 126.247  0.00  0.00    +0.000 C 
ATOM     19  N   UNL     1      -7.991   3.489 127.653  0.00  0.00    +0.000 NA
ATOM     20  C   UNL     1      -8.358   2.073 127.774  0.00  0.00    +0.000 C 
ENDBRANCH  17  19
ENDBRANCH  16  17
ENDBRANCH  15  16
ENDBRANCH   1  15
TORSDOF 6
ENDMDL
MODEL 7
REMARK VINA RESULT:      -5.8      6.928     10.254
REMARK  Name = Doxylamine
REMARK  9 active torsions:
REMARK  status: ('A' for Active; 'I' for Inactive)
REMARK    1  A    between atoms: C_1  and  N_2
REMARK    2  A    between atoms: N_2  and  C_3
REMARK    3  A    between atoms: N_2  and  C_4
REMARK    4  A    between atoms: C_4  and  C_5
REMARK    5  A    between atoms: C_5  and  O_6
REMARK    6  A    between atoms: O_6  and  C_7
REMARK    7  A    between atoms: C_7  and  C_8
REMARK    8  A    between atoms: C_7  and  C_9
REMARK    9  A    between atoms: C_7  and  C_15
REMARK                            x       y       z     vdW  Elec       q    Type
REMARK                         _______ _______ _______ _____ _____    ______ ____
ROOT
ATOM      1  C   UNL     1      -9.814   4.644 130.682  0.00  0.00    +0.000 C 
ATOM      2  C   UNL     1     -10.531   3.271 130.485  0.00  0.00    +0.000 C 
ENDROOT
BRANCH   1   3
ATOM      3  C   UNL     1      -9.108   4.738 132.076  0.00  0.00    +0.000 A 
ATOM      4  C   UNL     1      -9.267   3.750 133.069  0.00  0.00    +0.000 A 
ATOM      5  C   UNL     1      -8.652   3.869 134.322  0.00  0.00    +0.000 A 
ATOM      6  C   UNL     1      -7.844   4.960 134.616  0.00  0.00    +0.000 A 
ATOM      7  C   UNL     1      -7.608   5.911 133.639  0.00  0.00    +0.000 A 
ATOM      8  C   UNL     1      -8.194   5.762 132.385  0.00  0.00    +0.000 A 
ENDBRANCH   1   3
BRANCH   1   9
ATOM      9  C   UNL     1     -10.869   5.774 130.459  0.00  0.00    +0.000 A 
ATOM     10  C   UNL     1     -11.555   6.342 131.536  0.00  0.00    +0.000 A 
ATOM     11  C   UNL     1     -12.578   7.255 131.338  0.00  0.00    +0.000 A 
ATOM     12  C   UNL     1     -12.788   7.741 130.061  0.00  0.00    +0.000 A 
ATOM     13  C   UNL     1     -11.996   7.238 129.044  0.00  0.00    +0.000 A 
ATOM     14  N   UNL     1     -11.087   6.248 129.200  0.00  0.00    +0.000 NA
ENDBRANCH   1   9
BRANCH   1  15
ATOM     15  O   UNL     1      -8.840   4.816 129.616  0.00  0.00    +0.000 OA
BRANCH  15  16
ATOM     16  C   UNL     1      -8.080   3.640 129.368  0.00  0.00    +0.000 C 
BRANCH  16  17
ATOM     17  C   UNL     1      -7.765   3.457 127.892  0.00  0.00    +0.000 C 
BRANCH  17  19
ATOM     18  C   UNL     1      -8.250   2.182 125.918  0.00  0.00    +0.000 C 
ATOM     19  N   UNL     1      -8.507   2.301 127.350  0.00  0.00    +0.000 NA
ATOM     20  C   UNL     1      -8.147   1.049 128.027  0.00  0.00    +0.000 C 
ENDBRANCH  17  19
ENDBRANCH  16  17
ENDBRANCH  15  16
ENDBRANCH   1  15
TORSDOF 6
ENDMDL
MODEL 8
REMARK VINA RESULT:      -5.7      1.780      2.448
REMARK  Name = Doxylamine
REMARK  9 active torsions:
REMARK  status: ('A' for Active; 'I' for Inactive)
REMARK    1  A    between atoms: C_1  and  N_2
REMARK    2  A    between atoms: N_2  and  C_3
REMARK    3  A    between atoms: N_2  and  C_4
REMARK    4  A    between atoms: C_4  and  C_5
REMARK    5  A    between atoms: C_5  and  O_6
REMARK    6  A    between atoms: O_6  and  C_7
REMARK    7  A    between atoms: C_7  and  C_8
REMARK    8  A    between atoms: C_7  and  C_9
REMARK    9  A    between atoms: C_7  and  C_15
REMARK                            x       y       z     vdW  Elec       q    Type
REMARK                         _______ _______ _______ _____ _____    ______ ____
ROOT
ATOM      1  C   UNL     1      -7.577  -0.656 126.057  0.00  0.00    +0.000 C 
ATOM      2  C   UNL     1      -8.948  -0.052 125.619  0.00  0.00    +0.000 C 
ENDROOT
BRANCH   1   3
ATOM      3  C   UNL     1      -6.834  -1.340 124.861  0.00  0.00    +0.000 A 
ATOM      4  C   UNL     1      -7.264  -1.198 123.526  0.00  0.00    +0.000 A 
ATOM      5  C   UNL     1      -6.603  -1.845 122.474  0.00  0.00    +0.000 A 
ATOM      6  C   UNL     1      -5.484  -2.631 122.715  0.00  0.00    +0.000 A 
ATOM      7  C   UNL     1      -4.991  -2.732 124.004  0.00  0.00    +0.000 A 
ATOM      8  C   UNL     1      -5.634  -2.055 125.036  0.00  0.00    +0.000 A 
ENDBRANCH   1   3
BRANCH   1   9
ATOM      9  C   UNL     1      -7.840  -1.634 127.247  0.00  0.00    +0.000 A 
ATOM     10  C   UNL     1      -8.414  -2.891 127.033  0.00  0.00    +0.000 A 
ATOM     11  C   UNL     1      -8.763  -3.713 128.093  0.00  0.00    +0.000 A 
ATOM     12  C   UNL     1      -8.364  -3.351 129.365  0.00  0.00    +0.000 A 
ATOM     13  C   UNL     1      -7.687  -2.154 129.511  0.00  0.00    +0.000 A 
ATOM     14  N   UNL     1      -7.459  -1.277 128.505  0.00  0.00    +0.000 NA
ENDBRANCH   1   9
BRANCH   1  15
ATOM     15  O   UNL     1      -6.757   0.408 126.613  0.00  0.00    +0.000 OA
BRANCH  15  16
ATOM     16  C   UNL     1      -7.102   1.691 126.107  0.00  0.00    +0.000 C 
BRANCH  16  17
ATOM     17  C   UNL     1      -5.950   2.343 125.358  0.00  0.00    +0.000 C 
BRANCH  17  19
ATOM     18  C   UNL     1      -6.604   3.359 123.285  0.00  0.00    +0.000 C 
ATOM     19  N   UNL     1      -6.403   3.592 124.711  0.00  0.00    +0.000 NA
ATOM     20  C   UNL     1      -7.639   4.107 125.312  0.00  0.00    +0.000 C 
ENDBRANCH  17  19
ENDBRANCH  16  17
ENDBRANCH  15  16
ENDBRANCH   1  15
TORSDOF 6
ENDMDL
MODEL 9
REMARK VINA RESULT:      -5.6      8.766     11.438
REMARK  Name = Doxylamine
REMARK  9 active torsions:
REMARK  status: ('A' for Active; 'I' for Inactive)
REMARK    1  A    between atoms: C_1  and  N_2
REMARK    2  A    between atoms: N_2  and  C_3
REMARK    3  A    between atoms: N_2  and  C_4
REMARK    4  A    between atoms: C_4  and  C_5
REMARK    5  A    between atoms: C_5  and  O_6
REMARK    6  A    between atoms: O_6  and  C_7
REMARK    7  A    between atoms: C_7  and  C_8
REMARK    8  A    between atoms: C_7  and  C_9
REMARK    9  A    between atoms: C_7  and  C_15
REMARK                            x       y       z     vdW  Elec       q    Type
REMARK                         _______ _______ _______ _____ _____    ______ ____
ROOT
ATOM      1  C   UNL     1      -9.751   5.223 131.404  0.00  0.00    +0.000 C 
ATOM      2  C   UNL     1     -10.148   3.812 130.867  0.00  0.00    +0.000 C 
ENDROOT
BRANCH   1   3
ATOM      3  C   UNL     1     -10.704   6.341 130.863  0.00  0.00    +0.000 A 
ATOM      4  C   UNL     1     -11.913   6.677 131.506  0.00  0.00    +0.000 A 
ATOM      5  C   UNL     1     -12.767   7.658 130.988  0.00  0.00    +0.000 A 
ATOM      6  C   UNL     1     -12.434   8.350 129.830  0.00  0.00    +0.000 A 
ATOM      7  C   UNL     1     -11.221   8.097 129.215  0.00  0.00    +0.000 A 
ATOM      8  C   UNL     1     -10.363   7.147 129.760  0.00  0.00    +0.000 A 
ENDBRANCH   1   3
BRANCH   1   9
ATOM      9  C   UNL     1      -8.253   5.473 131.038  0.00  0.00    +0.000 A 
ATOM     10  C   UNL     1      -7.542   6.537 131.601  0.00  0.00    +0.000 A 
ATOM     11  C   UNL     1      -6.254   6.839 131.190  0.00  0.00    +0.000 A 
ATOM     12  C   UNL     1      -5.608   5.956 130.345  0.00  0.00    +0.000 A 
ATOM     13  C   UNL     1      -6.314   4.848 129.912  0.00  0.00    +0.000 A 
ATOM     14  N   UNL     1      -7.616   4.612 130.196  0.00  0.00    +0.000 NA
ENDBRANCH   1   9
BRANCH   1  15
ATOM     15  O   UNL     1      -9.788   5.194 132.857  0.00  0.00    +0.000 OA
BRANCH  15  16
ATOM     16  C   UNL     1      -9.378   3.942 133.394  0.00  0.00    +0.000 C 
BRANCH  16  17
ATOM     17  C   UNL     1      -8.325   4.098 134.481  0.00  0.00    +0.000 C 
BRANCH  17  19
ATOM     18  C   UNL     1      -5.980   3.977 134.970  0.00  0.00    +0.000 C 
ATOM     19  N   UNL     1      -7.005   3.669 133.978  0.00  0.00    +0.000 NA
ATOM     20  C   UNL     1      -6.976   2.237 133.658  0.00  0.00    +0.000 C 
ENDBRANCH  17  19
ENDBRANCH  16  17
ENDBRANCH  15  16
ENDBRANCH   1  15
TORSDOF 6
ENDMDL
