MODEL 1
REMARK VINA RESULT:      -7.6      0.000      0.000
REMARK  Name = Dronabinol
REMARK  9 active torsions:
REMARK  status: ('A' for Active; 'I' for Inactive)
REMARK    1  A    between atoms: C_4  and  C_5
REMARK    2  A    between atoms: C_10  and  C_11
REMARK    3  A    between atoms: C_10  and  C_12
REMARK    4  A    between atoms: C_16  and  O_17
REMARK    5  A    between atoms: C_19  and  C_20
REMARK    6  A    between atoms: C_20  and  C_21
REMARK    7  A    between atoms: C_21  and  C_22
REMARK    8  A    between atoms: C_22  and  C_23
REMARK    9  A    between atoms: C_23  and  C_24
REMARK                            x       y       z     vdW  Elec       q    Type
REMARK                         _______ _______ _______ _____ _____    ______ ____
ROOT
ATOM      1  C   UNL     1      -8.097   4.416 131.140  0.00  0.00    +0.000 C 
ATOM      2  C   UNL     1      -7.452   5.067 132.328  0.00  0.00    +0.000 C 
ATOM      3  C   UNL     1      -6.631   6.042 132.048  0.00  0.00    +0.000 C 
ATOM      4  C   UNL     1      -6.855   7.172 131.027  0.00  0.00    +0.000 C 
ATOM      5  C   UNL     1      -5.354   5.278 131.890  0.00  0.00    +0.000 C 
ATOM      6  C   UNL     1      -5.686   4.123 130.676  0.00  0.00    +0.000 C 
ATOM      7  C   UNL     1      -7.094   4.431 129.904  0.00  0.00    +0.000 C 
ATOM      8  C   UNL     1      -8.032   3.851 128.745  0.00  0.00    +0.000 C 
ATOM      9  C   UNL     1      -7.605   3.645 127.261  0.00  0.00    +0.000 C 
ATOM     10  C   UNL     1      -8.589   2.460 129.086  0.00  0.00    +0.000 C 
ATOM     11  O   UNL     1      -9.129   4.853 128.563  0.00  0.00    +0.000 OA
ATOM     12  C   UNL     1      -9.755   5.387 129.658  0.00  0.00    +0.000 A 
ATOM     13  C   UNL     1      -9.401   5.070 130.954  0.00  0.00    +0.000 A 
ATOM     14  C   UNL     1     -10.141   5.531 132.064  0.00  0.00    +0.000 A 
ATOM     15  C   UNL     1     -11.133   6.447 131.898  0.00  0.00    +0.000 A 
ATOM     16  C   UNL     1     -11.458   6.854 130.613  0.00  0.00    +0.000 A 
ATOM     17  C   UNL     1     -10.760   6.329 129.493  0.00  0.00    +0.000 A 
ENDROOT
BRANCH  14  18
ATOM     18  O   UNL     1      -9.925   5.194 133.374  0.00  0.00    +0.000 OA
ATOM     19  H   UNL     1      -9.792   5.985 133.913  0.00  0.00    +0.000 HD
ENDBRANCH  14  18
BRANCH  16  20
ATOM     20  C   UNL     1     -12.623   7.790 130.531  0.00  0.00    +0.000 C 
BRANCH  20  21
ATOM     21  C   UNL     1     -12.999   8.090 129.100  0.00  0.00    +0.000 C 
BRANCH  21  22
ATOM     22  C   UNL     1     -13.186   9.570 128.881  0.00  0.00    +0.000 C 
BRANCH  22  23
ATOM     23  C   UNL     1     -13.224  10.258 130.236  0.00  0.00    +0.000 C 
ATOM     24  C   UNL     1     -13.689  11.686 130.076  0.00  0.00    +0.000 C 
ENDBRANCH  22  23
ENDBRANCH  21  22
ENDBRANCH  20  21
ENDBRANCH  16  20
TORSDOF 5
ENDMDL
MODEL 2
REMARK VINA RESULT:      -7.5      7.502     10.932
REMARK  Name = Dronabinol
REMARK  9 active torsions:
REMARK  status: ('A' for Active; 'I' for Inactive)
REMARK    1  A    between atoms: C_4  and  C_5
REMARK    2  A    between atoms: C_10  and  C_11
REMARK    3  A    between atoms: C_10  and  C_12
REMARK    4  A    between atoms: C_16  and  O_17
REMARK    5  A    between atoms: C_19  and  C_20
REMARK    6  A    between atoms: C_20  and  C_21
REMARK    7  A    between atoms: C_21  and  C_22
REMARK    8  A    between atoms: C_22  and  C_23
REMARK    9  A    between atoms: C_23  and  C_24
REMARK                            x       y       z     vdW  Elec       q    Type
REMARK                         _______ _______ _______ _____ _____    ______ ____
ROOT
ATOM      1  C   UNL     1      -8.882  -1.825 125.989  0.00  0.00    +0.000 C 
ATOM      2  C   UNL     1      -9.256  -3.174 125.449  0.00  0.00    +0.000 C 
ATOM      3  C   UNL     1      -8.476  -3.630 124.508  0.00  0.00    +0.000 C 
ATOM      4  C   UNL     1      -6.938  -3.587 124.482  0.00  0.00    +0.000 C 
ATOM      5  C   UNL     1      -9.155  -3.062 123.300  0.00  0.00    +0.000 C 
ATOM      6  C   UNL     1      -9.192  -1.377 123.577  0.00  0.00    +0.000 C 
ATOM      7  C   UNL     1      -8.240  -0.939 124.832  0.00  0.00    +0.000 C 
ATOM      8  C   UNL     1      -7.783   0.353 125.657  0.00  0.00    +0.000 C 
ATOM      9  C   UNL     1      -7.057   1.594 125.057  0.00  0.00    +0.000 C 
ATOM     10  C   UNL     1      -8.957   1.025 126.387  0.00  0.00    +0.000 C 
ATOM     11  O   UNL     1      -6.738  -0.121 126.618  0.00  0.00    +0.000 OA
ATOM     12  C   UNL     1      -6.937  -1.273 127.331  0.00  0.00    +0.000 A 
ATOM     13  C   UNL     1      -8.061  -2.061 127.187  0.00  0.00    +0.000 A 
ATOM     14  C   UNL     1      -8.306  -3.173 128.020  0.00  0.00    +0.000 A 
ATOM     15  C   UNL     1      -7.353  -3.606 128.888  0.00  0.00    +0.000 A 
ATOM     16  C   UNL     1      -6.172  -2.887 128.997  0.00  0.00    +0.000 A 
ATOM     17  C   UNL     1      -5.962  -1.724 128.209  0.00  0.00    +0.000 A 
ENDROOT
BRANCH  14  18
ATOM     18  O   UNL     1      -9.432  -3.952 128.016  0.00  0.00    +0.000 OA
ATOM     19  H   UNL     1     -10.203  -3.437 127.745  0.00  0.00    +0.000 HD
ENDBRANCH  14  18
BRANCH  16  20
ATOM     20  C   UNL     1      -5.228  -3.391 130.044  0.00  0.00    +0.000 C 
BRANCH  20  21
ATOM     21  C   UNL     1      -5.648  -4.741 130.571  0.00  0.00    +0.000 C 
BRANCH  21  22
ATOM     22  C   UNL     1      -5.577  -4.789 132.076  0.00  0.00    +0.000 C 
BRANCH  22  23
ATOM     23  C   UNL     1      -5.859  -3.396 132.617  0.00  0.00    +0.000 C 
ATOM     24  C   UNL     1      -7.260  -3.337 133.181  0.00  0.00    +0.000 C 
ENDBRANCH  22  23
ENDBRANCH  21  22
ENDBRANCH  20  21
ENDBRANCH  16  20
TORSDOF 5
ENDMDL
MODEL 3
REMARK VINA RESULT:      -7.4      7.361     10.678
REMARK  Name = Dronabinol
REMARK  9 active torsions:
REMARK  status: ('A' for Active; 'I' for Inactive)
REMARK    1  A    between atoms: C_4  and  C_5
REMARK    2  A    between atoms: C_10  and  C_11
REMARK    3  A    between atoms: C_10  and  C_12
REMARK    4  A    between atoms: C_16  and  O_17
REMARK    5  A    between atoms: C_19  and  C_20
REMARK    6  A    between atoms: C_20  and  C_21
REMARK    7  A    between atoms: C_21  and  C_22
REMARK    8  A    between atoms: C_22  and  C_23
REMARK    9  A    between atoms: C_23  and  C_24
REMARK                            x       y       z     vdW  Elec       q    Type
REMARK                         _______ _______ _______ _____ _____    ______ ____
ROOT
ATOM      1  C   UNL     1      -8.053  -1.136 124.856  0.00  0.00    +0.000 C 
ATOM      2  C   UNL     1      -7.824  -2.386 124.059  0.00  0.00    +0.000 C 
ATOM      3  C   UNL     1      -6.571  -2.683 123.841  0.00  0.00    +0.000 C 
ATOM      4  C   UNL     1      -5.418  -2.624 124.859  0.00  0.00    +0.000 C 
ATOM      5  C   UNL     1      -6.339  -1.936 122.564  0.00  0.00    +0.000 C 
ATOM      6  C   UNL     1      -6.737  -0.316 122.930  0.00  0.00    +0.000 C 
ATOM      7  C   UNL     1      -6.911  -0.075 124.537  0.00  0.00    +0.000 C 
ATOM      8  C   UNL     1      -7.262   1.075 125.593  0.00  0.00    +0.000 C 
ATOM      9  C   UNL     1      -6.464   2.401 125.779  0.00  0.00    +0.000 C 
ATOM     10  C   UNL     1      -8.690   1.615 125.416  0.00  0.00    +0.000 C 
ATOM     11  O   UNL     1      -7.069   0.464 126.946  0.00  0.00    +0.000 OA
ATOM     12  C   UNL     1      -7.560  -0.788 127.207  0.00  0.00    +0.000 A 
ATOM     13  C   UNL     1      -8.211  -1.551 126.259  0.00  0.00    +0.000 A 
ATOM     14  C   UNL     1      -8.820  -2.783 126.581  0.00  0.00    +0.000 A 
ATOM     15  C   UNL     1      -8.638  -3.340 127.809  0.00  0.00    +0.000 A 
ATOM     16  C   UNL     1      -7.915  -2.637 128.761  0.00  0.00    +0.000 A 
ATOM     17  C   UNL     1      -7.367  -1.363 128.454  0.00  0.00    +0.000 A 
ENDROOT
BRANCH  14  18
ATOM     18  O   UNL     1      -9.566  -3.560 125.736  0.00  0.00    +0.000 OA
ATOM     19  H   UNL     1     -10.488  -3.271 125.731  0.00  0.00    +0.000 HD
ENDBRANCH  14  18
BRANCH  16  20
ATOM     20  C   UNL     1      -7.852  -3.292 130.106  0.00  0.00    +0.000 C 
BRANCH  20  21
ATOM     21  C   UNL     1      -6.479  -3.173 130.721  0.00  0.00    +0.000 C 
BRANCH  21  22
ATOM     22  C   UNL     1      -5.631  -4.379 130.407  0.00  0.00    +0.000 C 
BRANCH  22  23
ATOM     23  C   UNL     1      -4.212  -3.911 130.127  0.00  0.00    +0.000 C 
ATOM     24  C   UNL     1      -4.169  -3.147 128.825  0.00  0.00    +0.000 C 
ENDBRANCH  22  23
ENDBRANCH  21  22
ENDBRANCH  20  21
ENDBRANCH  16  20
TORSDOF 5
ENDMDL
MODEL 4
REMARK VINA RESULT:      -7.4      1.962      3.259
REMARK  Name = Dronabinol
REMARK  9 active torsions:
REMARK  status: ('A' for Active; 'I' for Inactive)
REMARK    1  A    between atoms: C_4  and  C_5
REMARK    2  A    between atoms: C_10  and  C_11
REMARK    3  A    between atoms: C_10  and  C_12
REMARK    4  A    between atoms: C_16  and  O_17
REMARK    5  A    between atoms: C_19  and  C_20
REMARK    6  A    between atoms: C_20  and  C_21
REMARK    7  A    between atoms: C_21  and  C_22
REMARK    8  A    between atoms: C_22  and  C_23
REMARK    9  A    between atoms: C_23  and  C_24
REMARK                            x       y       z     vdW  Elec       q    Type
REMARK                         _______ _______ _______ _____ _____    ______ ____
ROOT
ATOM      1  C   UNL     1      -7.817   3.773 131.182  0.00  0.00    +0.000 C 
ATOM      2  C   UNL     1      -8.511   2.603 131.815  0.00  0.00    +0.000 C 
ATOM      3  C   UNL     1      -8.588   2.643 133.118  0.00  0.00    +0.000 C 
ATOM      4  C   UNL     1      -8.957   3.861 133.983  0.00  0.00    +0.000 C 
ATOM      5  C   UNL     1      -7.306   1.962 133.482  0.00  0.00    +0.000 C 
ATOM      6  C   UNL     1      -6.091   2.883 132.713  0.00  0.00    +0.000 C 
ATOM      7  C   UNL     1      -6.666   4.304 132.144  0.00  0.00    +0.000 C 
ATOM      8  C   UNL     1      -6.192   5.614 131.357  0.00  0.00    +0.000 C 
ATOM      9  C   UNL     1      -5.074   6.593 131.827  0.00  0.00    +0.000 C 
ATOM     10  C   UNL     1      -5.722   5.298 129.927  0.00  0.00    +0.000 C 
ATOM     11  O   UNL     1      -7.367   6.541 131.356  0.00  0.00    +0.000 OA
ATOM     12  C   UNL     1      -8.616   6.061 131.066  0.00  0.00    +0.000 A 
ATOM     13  C   UNL     1      -8.866   4.731 130.799  0.00  0.00    +0.000 A 
ATOM     14  C   UNL     1     -10.135   4.278 130.377  0.00  0.00    +0.000 A 
ATOM     15  C   UNL     1     -11.203   5.121 130.384  0.00  0.00    +0.000 A 
ATOM     16  C   UNL     1     -11.004   6.449 130.731  0.00  0.00    +0.000 A 
ATOM     17  C   UNL     1      -9.709   6.915 131.082  0.00  0.00    +0.000 A 
ENDROOT
BRANCH  14  18
ATOM     18  O   UNL     1     -10.452   3.001 129.999  0.00  0.00    +0.000 OA
ATOM     19  H   UNL     1      -9.666   2.439 130.001  0.00  0.00    +0.000 HD
ENDBRANCH  14  18
BRANCH  16  20
ATOM     20  C   UNL     1     -12.221   7.313 130.617  0.00  0.00    +0.000 C 
BRANCH  20  21
ATOM     21  C   UNL     1     -12.629   7.516 129.179  0.00  0.00    +0.000 C 
BRANCH  21  22
ATOM     22  C   UNL     1     -12.021   8.772 128.609  0.00  0.00    +0.000 C 
BRANCH  22  23
ATOM     23  C   UNL     1     -10.802   8.388 127.786  0.00  0.00    +0.000 C 
ATOM     24  C   UNL     1     -11.212   7.480 126.650  0.00  0.00    +0.000 C 
ENDBRANCH  22  23
ENDBRANCH  21  22
ENDBRANCH  20  21
ENDBRANCH  16  20
TORSDOF 5
ENDMDL
MODEL 5
REMARK VINA RESULT:      -7.1      7.370     10.373
REMARK  Name = Dronabinol
REMARK  9 active torsions:
REMARK  status: ('A' for Active; 'I' for Inactive)
REMARK    1  A    between atoms: C_4  and  C_5
REMARK    2  A    between atoms: C_10  and  C_11
REMARK    3  A    between atoms: C_10  and  C_12
REMARK    4  A    between atoms: C_16  and  O_17
REMARK    5  A    between atoms: C_19  and  C_20
REMARK    6  A    between atoms: C_20  and  C_21
REMARK    7  A    between atoms: C_21  and  C_22
REMARK    8  A    between atoms: C_22  and  C_23
REMARK    9  A    between atoms: C_23  and  C_24
REMARK                            x       y       z     vdW  Elec       q    Type
REMARK                         _______ _______ _______ _____ _____    ______ ____
ROOT
ATOM      1  C   UNL     1      -6.309  -0.137 125.111  0.00  0.00    +0.000 C 
ATOM      2  C   UNL     1      -6.212   1.214 125.757  0.00  0.00    +0.000 C 
ATOM      3  C   UNL     1      -7.329   1.888 125.802  0.00  0.00    +0.000 C 
ATOM      4  C   UNL     1      -8.719   1.347 126.182  0.00  0.00    +0.000 C 
ATOM      5  C   UNL     1      -7.258   2.611 124.493  0.00  0.00    +0.000 C 
ATOM      6  C   UNL     1      -7.103   1.377 123.323  0.00  0.00    +0.000 C 
ATOM      7  C   UNL     1      -7.398  -0.104 123.951  0.00  0.00    +0.000 C 
ATOM      8  C   UNL     1      -7.442  -1.648 123.532  0.00  0.00    +0.000 C 
ATOM      9  C   UNL     1      -8.360  -2.256 122.430  0.00  0.00    +0.000 C 
ATOM     10  C   UNL     1      -6.066  -2.173 123.091  0.00  0.00    +0.000 C 
ATOM     11  O   UNL     1      -7.951  -2.385 124.731  0.00  0.00    +0.000 OA
ATOM     12  C   UNL     1      -7.456  -2.093 125.974  0.00  0.00    +0.000 A 
ATOM     13  C   UNL     1      -6.512  -1.111 126.195  0.00  0.00    +0.000 A 
ATOM     14  C   UNL     1      -5.922  -0.912 127.461  0.00  0.00    +0.000 A 
ATOM     15  C   UNL     1      -6.391  -1.578 128.551  0.00  0.00    +0.000 A 
ATOM     16  C   UNL     1      -7.401  -2.513 128.379  0.00  0.00    +0.000 A 
ATOM     17  C   UNL     1      -7.940  -2.762 127.089  0.00  0.00    +0.000 A 
ENDROOT
BRANCH  14  18
ATOM     18  O   UNL     1      -4.914  -0.033 127.753  0.00  0.00    +0.000 OA
ATOM     19  H   UNL     1      -4.059  -0.390 127.481  0.00  0.00    +0.000 HD
ENDBRANCH  14  18
BRANCH  16  20
ATOM     20  C   UNL     1      -7.781  -3.256 129.622  0.00  0.00    +0.000 C 
BRANCH  20  21
ATOM     21  C   UNL     1      -6.662  -3.259 130.635  0.00  0.00    +0.000 C 
BRANCH  21  22
ATOM     22  C   UNL     1      -5.734  -4.427 130.423  0.00  0.00    +0.000 C 
BRANCH  22  23
ATOM     23  C   UNL     1      -4.303  -3.947 130.609  0.00  0.00    +0.000 C 
ATOM     24  C   UNL     1      -3.660  -3.711 129.263  0.00  0.00    +0.000 C 
ENDBRANCH  22  23
ENDBRANCH  21  22
ENDBRANCH  20  21
ENDBRANCH  16  20
TORSDOF 5
ENDMDL
MODEL 6
REMARK VINA RESULT:      -6.9      8.295     10.101
REMARK  Name = Dronabinol
REMARK  9 active torsions:
REMARK  status: ('A' for Active; 'I' for Inactive)
REMARK    1  A    between atoms: C_4  and  C_5
REMARK    2  A    between atoms: C_10  and  C_11
REMARK    3  A    between atoms: C_10  and  C_12
REMARK    4  A    between atoms: C_16  and  O_17
REMARK    5  A    between atoms: C_19  and  C_20
REMARK    6  A    between atoms: C_20  and  C_21
REMARK    7  A    between atoms: C_21  and  C_22
REMARK    8  A    between atoms: C_22  and  C_23
REMARK    9  A    between atoms: C_23  and  C_24
REMARK                            x       y       z     vdW  Elec       q    Type
REMARK                         _______ _______ _______ _____ _____    ______ ____
ROOT
ATOM      1  C   UNL     1      -5.949  -1.278 130.342  0.00  0.00    +0.000 C 
ATOM      2  C   UNL     1      -4.645  -1.100 129.622  0.00  0.00    +0.000 C 
ATOM      3  C   UNL     1      -3.850  -2.135 129.652  0.00  0.00    +0.000 C 
ATOM      4  C   UNL     1      -4.244  -3.607 129.437  0.00  0.00    +0.000 C 
ATOM      5  C   UNL     1      -3.089  -1.851 130.909  0.00  0.00    +0.000 C 
ATOM      6  C   UNL     1      -4.286  -1.713 132.119  0.00  0.00    +0.000 C 
ATOM      7  C   UNL     1      -5.747  -2.232 131.600  0.00  0.00    +0.000 C 
ATOM      8  C   UNL     1      -7.258  -2.401 132.098  0.00  0.00    +0.000 C 
ATOM      9  C   UNL     1      -7.713  -3.263 133.315  0.00  0.00    +0.000 C 
ATOM     10  C   UNL     1      -7.918  -1.053 132.430  0.00  0.00    +0.000 C 
ATOM     11  O   UNL     1      -7.979  -3.108 130.994  0.00  0.00    +0.000 OA
ATOM     12  C   UNL     1      -7.795  -2.714 129.695  0.00  0.00    +0.000 A 
ATOM     13  C   UNL     1      -6.936  -1.696 129.334  0.00  0.00    +0.000 A 
ATOM     14  C   UNL     1      -6.857  -1.220 128.008  0.00  0.00    +0.000 A 
ATOM     15  C   UNL     1      -7.507  -1.868 127.004  0.00  0.00    +0.000 A 
ATOM     16  C   UNL     1      -8.313  -2.952 127.321  0.00  0.00    +0.000 A 
ATOM     17  C   UNL     1      -8.448  -3.380 128.668  0.00  0.00    +0.000 A 
ENDROOT
BRANCH  14  18
ATOM     18  O   UNL     1      -6.110  -0.158 127.575  0.00  0.00    +0.000 OA
ATOM     19  H   UNL     1      -5.179  -0.405 127.492  0.00  0.00    +0.000 HD
ENDBRANCH  14  18
BRANCH  16  20
ATOM     20  C   UNL     1      -9.057  -3.536 126.160  0.00  0.00    +0.000 C 
BRANCH  20  21
ATOM     21  C   UNL     1      -8.168  -3.696 124.951  0.00  0.00    +0.000 C 
BRANCH  21  22
ATOM     22  C   UNL     1      -8.829  -3.151 123.710  0.00  0.00    +0.000 C 
BRANCH  22  23
ATOM     23  C   UNL     1      -7.865  -2.192 123.031  0.00  0.00    +0.000 C 
ATOM     24  C   UNL     1      -6.452  -2.474 123.484  0.00  0.00    +0.000 C 
ENDBRANCH  22  23
ENDBRANCH  21  22
ENDBRANCH  20  21
ENDBRANCH  16  20
TORSDOF 5
ENDMDL
MODEL 7
REMARK VINA RESULT:      -6.8      4.213      6.558
REMARK  Name = Dronabinol
REMARK  9 active torsions:
REMARK  status: ('A' for Active; 'I' for Inactive)
REMARK    1  A    between atoms: C_4  and  C_5
REMARK    2  A    between atoms: C_10  and  C_11
REMARK    3  A    between atoms: C_10  and  C_12
REMARK    4  A    between atoms: C_16  and  O_17
REMARK    5  A    between atoms: C_19  and  C_20
REMARK    6  A    between atoms: C_20  and  C_21
REMARK    7  A    between atoms: C_21  and  C_22
REMARK    8  A    between atoms: C_22  and  C_23
REMARK    9  A    between atoms: C_23  and  C_24
REMARK                            x       y       z     vdW  Elec       q    Type
REMARK                         _______ _______ _______ _____ _____    ______ ____
ROOT
ATOM      1  C   UNL     1      -3.946   6.911 130.861  0.00  0.00    +0.000 C 
ATOM      2  C   UNL     1      -4.457   6.353 129.566  0.00  0.00    +0.000 C 
ATOM      3  C   UNL     1      -4.048   5.146 129.283  0.00  0.00    +0.000 C 
ATOM      4  C   UNL     1      -3.969   3.949 130.247  0.00  0.00    +0.000 C 
ATOM      5  C   UNL     1      -2.784   5.459 128.544  0.00  0.00    +0.000 C 
ATOM      6  C   UNL     1      -1.861   6.392 129.636  0.00  0.00    +0.000 C 
ATOM      7  C   UNL     1      -2.482   6.358 131.149  0.00  0.00    +0.000 C 
ATOM      8  C   UNL     1      -2.220   6.940 132.616  0.00  0.00    +0.000 C 
ATOM      9  C   UNL     1      -0.929   6.712 133.458  0.00  0.00    +0.000 C 
ATOM     10  C   UNL     1      -2.335   8.472 132.666  0.00  0.00    +0.000 C 
ATOM     11  O   UNL     1      -3.230   6.285 133.505  0.00  0.00    +0.000 OA
ATOM     12  C   UNL     1      -4.535   6.186 133.101  0.00  0.00    +0.000 A 
ATOM     13  C   UNL     1      -4.977   6.640 131.875  0.00  0.00    +0.000 A 
ATOM     14  C   UNL     1      -6.346   6.646 131.530  0.00  0.00    +0.000 A 
ATOM     15  C   UNL     1      -7.261   6.043 132.335  0.00  0.00    +0.000 A 
ATOM     16  C   UNL     1      -6.837   5.499 133.539  0.00  0.00    +0.000 A 
ATOM     17  C   UNL     1      -5.469   5.563 133.915  0.00  0.00    +0.000 A 
ENDROOT
BRANCH  14  18
ATOM     18  O   UNL     1      -6.887   7.161 130.383  0.00  0.00    +0.000 OA
ATOM     19  H   UNL     1      -6.200   7.317 129.721  0.00  0.00    +0.000 HD
ENDBRANCH  14  18
BRANCH  16  20
ATOM     20  C   UNL     1      -7.933   4.944 134.394  0.00  0.00    +0.000 C 
BRANCH  20  21
ATOM     21  C   UNL     1      -8.989   4.251 133.568  0.00  0.00    +0.000 C 
BRANCH  21  22
ATOM     22  C   UNL     1      -8.670   2.789 133.385  0.00  0.00    +0.000 C 
BRANCH  22  23
ATOM     23  C   UNL     1      -9.592   2.223 132.318  0.00  0.00    +0.000 C 
ATOM     24  C   UNL     1      -9.824   3.254 131.238  0.00  0.00    +0.000 C 
ENDBRANCH  22  23
ENDBRANCH  21  22
ENDBRANCH  20  21
ENDBRANCH  16  20
TORSDOF 5
ENDMDL
MODEL 8
REMARK VINA RESULT:      -6.7      6.583      9.476
REMARK  Name = Dronabinol
REMARK  9 active torsions:
REMARK  status: ('A' for Active; 'I' for Inactive)
REMARK    1  A    between atoms: C_4  and  C_5
REMARK    2  A    between atoms: C_10  and  C_11
REMARK    3  A    between atoms: C_10  and  C_12
REMARK    4  A    between atoms: C_16  and  O_17
REMARK    5  A    between atoms: C_19  and  C_20
REMARK    6  A    between atoms: C_20  and  C_21
REMARK    7  A    between atoms: C_21  and  C_22
REMARK    8  A    between atoms: C_22  and  C_23
REMARK    9  A    between atoms: C_23  and  C_24
REMARK                            x       y       z     vdW  Elec       q    Type
REMARK                         _______ _______ _______ _____ _____    ______ ____
ROOT
ATOM      1  C   UNL     1      -7.200   3.036 124.917  0.00  0.00    +0.000 C 
ATOM      2  C   UNL     1      -7.856   3.146 123.573  0.00  0.00    +0.000 C 
ATOM      3  C   UNL     1      -7.165   2.660 122.578  0.00  0.00    +0.000 C 
ATOM      4  C   UNL     1      -6.394   1.328 122.554  0.00  0.00    +0.000 C 
ATOM      5  C   UNL     1      -6.372   3.868 122.187  0.00  0.00    +0.000 C 
ATOM      6  C   UNL     1      -5.540   4.319 123.608  0.00  0.00    +0.000 C 
ATOM      7  C   UNL     1      -5.621   3.162 124.761  0.00  0.00    +0.000 C 
ATOM      8  C   UNL     1      -5.142   2.858 126.257  0.00  0.00    +0.000 C 
ATOM      9  C   UNL     1      -3.660   2.817 126.737  0.00  0.00    +0.000 C 
ATOM     10  C   UNL     1      -5.753   3.834 127.275  0.00  0.00    +0.000 C 
ATOM     11  O   UNL     1      -5.546   1.445 126.540  0.00  0.00    +0.000 OA
ATOM     12  C   UNL     1      -6.796   1.008 126.188  0.00  0.00    +0.000 A 
ATOM     13  C   UNL     1      -7.716   1.808 125.542  0.00  0.00    +0.000 A 
ATOM     14  C   UNL     1      -9.040   1.381 125.303  0.00  0.00    +0.000 A 
ATOM     15  C   UNL     1      -9.404   0.094 125.554  0.00  0.00    +0.000 A 
ATOM     16  C   UNL     1      -8.475  -0.763 126.125  0.00  0.00    +0.000 A 
ATOM     17  C   UNL     1      -7.167  -0.306 126.433  0.00  0.00    +0.000 A 
ENDROOT
BRANCH  14  18
ATOM     18  O   UNL     1     -10.046   2.134 124.758  0.00  0.00    +0.000 OA
ATOM     19  H   UNL     1     -10.876   1.987 125.230  0.00  0.00    +0.000 HD
ENDBRANCH  14  18
BRANCH  16  20
ATOM     20  C   UNL     1      -9.001  -2.127 126.447  0.00  0.00    +0.000 C 
BRANCH  20  21
ATOM     21  C   UNL     1      -8.014  -3.208 126.080  0.00  0.00    +0.000 C 
BRANCH  21  22
ATOM     22  C   UNL     1      -7.843  -3.309 124.585  0.00  0.00    +0.000 C 
BRANCH  22  23
ATOM     23  C   UNL     1      -9.218  -3.430 123.949  0.00  0.00    +0.000 C 
ATOM     24  C   UNL     1      -9.347  -2.445 122.811  0.00  0.00    +0.000 C 
ENDBRANCH  22  23
ENDBRANCH  21  22
ENDBRANCH  20  21
ENDBRANCH  16  20
TORSDOF 5
ENDMDL
MODEL 9
REMARK VINA RESULT:      -6.5      6.398      9.345
REMARK  Name = Dronabinol
REMARK  9 active torsions:
REMARK  status: ('A' for Active; 'I' for Inactive)
REMARK    1  A    between atoms: C_4  and  C_5
REMARK    2  A    between atoms: C_10  and  C_11
REMARK    3  A    between atoms: C_10  and  C_12
REMARK    4  A    between atoms: C_16  and  O_17
REMARK    5  A    between atoms: C_19  and  C_20
REMARK    6  A    between atoms: C_20  and  C_21
REMARK    7  A    between atoms: C_21  and  C_22
REMARK    8  A    between atoms: C_22  and  C_23
REMARK    9  A    between atoms: C_23  and  C_24
REMARK                            x       y       z     vdW  Elec       q    Type
REMARK                         _______ _______ _______ _____ _____    ______ ____
ROOT
ATOM      1  C   UNL     1      -5.045   3.350 128.075  0.00  0.00    +0.000 C 
ATOM      2  C   UNL     1      -4.437   4.425 127.223  0.00  0.00    +0.000 C 
ATOM      3  C   UNL     1      -3.168   4.271 126.960  0.00  0.00    +0.000 C 
ATOM      4  C   UNL     1      -2.463   2.967 126.546  0.00  0.00    +0.000 C 
ATOM      5  C   UNL     1      -2.564   4.984 128.129  0.00  0.00    +0.000 C 
ATOM      6  C   UNL     1      -3.209   4.195 129.499  0.00  0.00    +0.000 C 
ATOM      7  C   UNL     1      -3.964   2.800 129.105  0.00  0.00    +0.000 C 
ATOM      8  C   UNL     1      -4.769   1.588 129.771  0.00  0.00    +0.000 C 
ATOM      9  C   UNL     1      -4.211   0.632 130.869  0.00  0.00    +0.000 C 
ATOM     10  C   UNL     1      -6.083   2.047 130.423  0.00  0.00    +0.000 C 
ATOM     11  O   UNL     1      -5.017   0.604 128.671  0.00  0.00    +0.000 OA
ATOM     12  C   UNL     1      -5.454   1.041 127.449  0.00  0.00    +0.000 A 
ATOM     13  C   UNL     1      -5.654   2.375 127.156  0.00  0.00    +0.000 A 
ATOM     14  C   UNL     1      -6.226   2.795 125.936  0.00  0.00    +0.000 A 
ATOM     15  C   UNL     1      -6.444   1.901 124.935  0.00  0.00    +0.000 A 
ATOM     16  C   UNL     1      -6.173   0.560 125.165  0.00  0.00    +0.000 A 
ATOM     17  C   UNL     1      -5.667   0.134 126.422  0.00  0.00    +0.000 A 
ENDROOT
BRANCH  14  18
ATOM     18  O   UNL     1      -6.550   4.081 125.597  0.00  0.00    +0.000 OA
ATOM     19  H   UNL     1      -5.763   4.642 125.594  0.00  0.00    +0.000 HD
ENDBRANCH  14  18
BRANCH  16  20
ATOM     20  C   UNL     1      -6.534  -0.353 124.035  0.00  0.00    +0.000 C 
BRANCH  20  21
ATOM     21  C   UNL     1      -6.448  -1.804 124.440  0.00  0.00    +0.000 C 
BRANCH  21  22
ATOM     22  C   UNL     1      -5.437  -2.547 123.604  0.00  0.00    +0.000 C 
BRANCH  22  23
ATOM     23  C   UNL     1      -5.044  -3.818 124.338  0.00  0.00    +0.000 C 
ATOM     24  C   UNL     1      -4.216  -4.701 123.433  0.00  0.00    +0.000 C 
ENDBRANCH  22  23
ENDBRANCH  21  22
ENDBRANCH  20  21
ENDBRANCH  16  20
TORSDOF 5
ENDMDL
