MODEL 1
REMARK VINA RESULT:      -8.2      0.000      0.000
REMARK  Name = Droperidol
REMARK  6 active torsions:
REMARK  status: ('A' for Active; 'I' for Inactive)
REMARK    1  A    between atoms: C_5  and  C_8
REMARK    2  A    between atoms: C_8  and  C_10
REMARK    3  A    between atoms: C_10  and  C_11
REMARK    4  A    between atoms: C_11  and  C_12
REMARK    5  A    between atoms: C_12  and  N_13
REMARK    6  A    between atoms: C_16  and  N_19
REMARK                            x       y       z     vdW  Elec       q    Type
REMARK                         _______ _______ _______ _____ _____    ______ ____
ROOT
ATOM      1  N   UNL     1      -6.426   1.728 127.181  0.00  0.00    +0.000 NA
ATOM      2  C   UNL     1      -7.716   2.391 126.932  0.00  0.00    +0.000 C 
ATOM      3  C   UNL     1      -7.727   3.231 125.660  0.00  0.00    +0.000 C 
ATOM      4  C   UNL     1      -7.200   2.445 124.501  0.00  0.00    +0.000 C 
ATOM      5  C   UNL     1      -6.449   1.351 124.705  0.00  0.00    +0.000 C 
ATOM      6  C   UNL     1      -6.020   0.871 126.054  0.00  0.00    +0.000 C 
ENDROOT
BRANCH   4   7
ATOM      7  N   UNL     1      -7.597   2.815 123.241  0.00  0.00    +0.000 N 
ATOM      8  C   UNL     1      -8.881   2.533 122.685  0.00  0.00    +0.000 A 
ATOM      9  O   UNL     1      -9.842   1.983 123.211  0.00  0.00    +0.000 OA
ATOM     10  N   UNL     1      -8.876   3.049 121.380  0.00  0.00    +0.000 N 
ATOM     11  C   UNL     1      -7.637   3.621 121.122  0.00  0.00    +0.000 A 
ATOM     12  C   UNL     1      -7.178   4.201 119.962  0.00  0.00    +0.000 A 
ATOM     13  C   UNL     1      -5.860   4.665 119.964  0.00  0.00    +0.000 A 
ATOM     14  C   UNL     1      -5.046   4.533 121.107  0.00  0.00    +0.000 A 
ATOM     15  C   UNL     1      -5.538   3.937 122.275  0.00  0.00    +0.000 A 
ATOM     16  C   UNL     1      -6.847   3.499 122.264  0.00  0.00    +0.000 A 
ATOM     17  H   UNL     1      -9.666   2.989 120.760  0.00  0.00    +0.000 HD
ENDBRANCH   4   7
BRANCH   1  18
ATOM     18  C   UNL     1      -6.432   0.931 128.421  0.00  0.00    +0.000 C 
BRANCH  18  19
ATOM     19  C   UNL     1      -7.613  -0.029 128.503  0.00  0.00    +0.000 C 
BRANCH  19  20
ATOM     20  C   UNL     1      -7.215  -1.400 128.991  0.00  0.00    +0.000 C 
BRANCH  20  21
ATOM     21  C   UNL     1      -6.552  -2.157 127.857  0.00  0.00    +0.000 C 
ATOM     22  O   UNL     1      -5.362  -2.463 127.864  0.00  0.00    +0.000 OA
BRANCH  21  27
ATOM     23  F   UNL     1      -9.795  -3.646 123.547  0.00  0.00    +0.000 F 
ATOM     24  C   UNL     1      -9.015  -3.286 124.574  0.00  0.00    +0.000 A 
ATOM     25  C   UNL     1      -9.540  -3.270 125.861  0.00  0.00    +0.000 A 
ATOM     26  C   UNL     1      -8.729  -2.892 126.928  0.00  0.00    +0.000 A 
ATOM     27  C   UNL     1      -7.391  -2.543 126.698  0.00  0.00    +0.000 A 
ATOM     28  C   UNL     1      -6.874  -2.565 125.396  0.00  0.00    +0.000 A 
ATOM     29  C   UNL     1      -7.693  -2.935 124.332  0.00  0.00    +0.000 A 
ENDBRANCH  21  27
ENDBRANCH  20  21
ENDBRANCH  19  20
ENDBRANCH  18  19
ENDBRANCH   1  18
TORSDOF 6
ENDMDL
MODEL 2
REMARK VINA RESULT:      -8.1      7.889     10.185
REMARK  Name = Droperidol
REMARK  6 active torsions:
REMARK  status: ('A' for Active; 'I' for Inactive)
REMARK    1  A    between atoms: C_5  and  C_8
REMARK    2  A    between atoms: C_8  and  C_10
REMARK    3  A    between atoms: C_10  and  C_11
REMARK    4  A    between atoms: C_11  and  C_12
REMARK    5  A    between atoms: C_12  and  N_13
REMARK    6  A    between atoms: C_16  and  N_19
REMARK                            x       y       z     vdW  Elec       q    Type
REMARK                         _______ _______ _______ _____ _____    ______ ____
ROOT
ATOM      1  N   UNL     1      -8.275   4.958 131.007  0.00  0.00    +0.000 NA
ATOM      2  C   UNL     1      -7.185   3.993 131.228  0.00  0.00    +0.000 C 
ATOM      3  C   UNL     1      -5.920   4.322 130.444  0.00  0.00    +0.000 C 
ATOM      4  C   UNL     1      -5.531   5.753 130.641  0.00  0.00    +0.000 C 
ATOM      5  C   UNL     1      -6.429   6.649 131.081  0.00  0.00    +0.000 C 
ATOM      6  C   UNL     1      -7.868   6.334 131.336  0.00  0.00    +0.000 C 
ENDROOT
BRANCH   4   7
ATOM      7  N   UNL     1      -4.213   6.091 130.463  0.00  0.00    +0.000 N 
ATOM      8  C   UNL     1      -3.640   6.471 129.212  0.00  0.00    +0.000 A 
ATOM      9  O   UNL     1      -4.191   6.612 128.127  0.00  0.00    +0.000 OA
ATOM     10  N   UNL     1      -2.277   6.705 129.450  0.00  0.00    +0.000 N 
ATOM     11  C   UNL     1      -2.002   6.472 130.791  0.00  0.00    +0.000 A 
ATOM     12  C   UNL     1      -0.795   6.535 131.448  0.00  0.00    +0.000 A 
ATOM     13  C   UNL     1      -0.796   6.206 132.807  0.00  0.00    +0.000 A 
ATOM     14  C   UNL     1      -1.985   5.822 133.459  0.00  0.00    +0.000 A 
ATOM     15  C   UNL     1      -3.200   5.766 132.766  0.00  0.00    +0.000 A 
ATOM     16  C   UNL     1      -3.187   6.109 131.429  0.00  0.00    +0.000 A 
ATOM     17  H   UNL     1      -1.634   6.992 128.732  0.00  0.00    +0.000 HD
ENDBRANCH   4   7
BRANCH   1  18
ATOM     18  C   UNL     1      -9.492   4.615 131.764  0.00  0.00    +0.000 C 
BRANCH  18  19
ATOM     19  C   UNL     1     -10.763   5.156 131.119  0.00  0.00    +0.000 C 
BRANCH  19  20
ATOM     20  C   UNL     1     -11.347   6.323 131.876  0.00  0.00    +0.000 C 
BRANCH  20  21
ATOM     21  C   UNL     1     -12.374   7.017 131.002  0.00  0.00    +0.000 C 
ATOM     22  O   UNL     1     -13.488   7.340 131.408  0.00  0.00    +0.000 OA
BRANCH  21  27
ATOM     23  F   UNL     1     -11.037   8.092 125.676  0.00  0.00    +0.000 F 
ATOM     24  C   UNL     1     -11.353   7.841 126.952  0.00  0.00    +0.000 A 
ATOM     25  C   UNL     1     -12.517   7.139 127.245  0.00  0.00    +0.000 A 
ATOM     26  C   UNL     1     -12.846   6.880 128.573  0.00  0.00    +0.000 A 
ATOM     27  C   UNL     1     -11.999   7.319 129.600  0.00  0.00    +0.000 A 
ATOM     28  C   UNL     1     -10.829   8.024 129.292  0.00  0.00    +0.000 A 
ATOM     29  C   UNL     1     -10.510   8.287 127.961  0.00  0.00    +0.000 A 
ENDBRANCH  21  27
ENDBRANCH  20  21
ENDBRANCH  19  20
ENDBRANCH  18  19
ENDBRANCH   1  18
TORSDOF 6
ENDMDL
MODEL 3
REMARK VINA RESULT:      -8.1      5.266      7.794
REMARK  Name = Droperidol
REMARK  6 active torsions:
REMARK  status: ('A' for Active; 'I' for Inactive)
REMARK    1  A    between atoms: C_5  and  C_8
REMARK    2  A    between atoms: C_8  and  C_10
REMARK    3  A    between atoms: C_10  and  C_11
REMARK    4  A    between atoms: C_11  and  C_12
REMARK    5  A    between atoms: C_12  and  N_13
REMARK    6  A    between atoms: C_16  and  N_19
REMARK                            x       y       z     vdW  Elec       q    Type
REMARK                         _______ _______ _______ _____ _____    ______ ____
ROOT
ATOM      1  N   UNL     1      -8.285   3.583 128.020  0.00  0.00    +0.000 NA
ATOM      2  C   UNL     1      -8.079   2.150 128.284  0.00  0.00    +0.000 C 
ATOM      3  C   UNL     1      -8.731   1.245 127.245  0.00  0.00    +0.000 C 
ATOM      4  C   UNL     1      -8.366   1.679 125.861  0.00  0.00    +0.000 C 
ATOM      5  C   UNL     1      -7.908   2.920 125.634  0.00  0.00    +0.000 C 
ATOM      6  C   UNL     1      -7.793   3.974 126.688  0.00  0.00    +0.000 C 
ENDROOT
BRANCH   4   7
ATOM      7  N   UNL     1      -8.413   0.740 124.861  0.00  0.00    +0.000 N 
ATOM      8  C   UNL     1      -9.514   0.565 123.970  0.00  0.00    +0.000 A 
ATOM      9  O   UNL     1     -10.550   1.214 123.894  0.00  0.00    +0.000 OA
ATOM     10  N   UNL     1      -9.181  -0.505 123.126  0.00  0.00    +0.000 N 
ATOM     11  C   UNL     1      -7.928  -0.990 123.478  0.00  0.00    +0.000 A 
ATOM     12  C   UNL     1      -7.234  -2.055 122.950  0.00  0.00    +0.000 A 
ATOM     13  C   UNL     1      -5.996  -2.352 123.527  0.00  0.00    +0.000 A 
ATOM     14  C   UNL     1      -5.497  -1.594 124.605  0.00  0.00    +0.000 A 
ATOM     15  C   UNL     1      -6.224  -0.516 125.124  0.00  0.00    +0.000 A 
ATOM     16  C   UNL     1      -7.437  -0.222 124.533  0.00  0.00    +0.000 A 
ATOM     17  H   UNL     1      -9.785  -0.840 122.395  0.00  0.00    +0.000 HD
ENDBRANCH   4   7
BRANCH   1  18
ATOM     18  C   UNL     1      -7.657   4.440 129.042  0.00  0.00    +0.000 C 
BRANCH  18  19
ATOM     19  C   UNL     1      -8.284   4.275 130.421  0.00  0.00    +0.000 C 
BRANCH  19  20
ATOM     20  C   UNL     1      -9.725   4.721 130.462  0.00  0.00    +0.000 C 
BRANCH  20  21
ATOM     21  C   UNL     1      -9.785   6.157 130.946  0.00  0.00    +0.000 C 
ATOM     22  O   UNL     1      -9.089   6.581 131.866  0.00  0.00    +0.000 OA
BRANCH  21  27
ATOM     23  F   UNL     1     -13.263   9.664 128.318  0.00  0.00    +0.000 F 
ATOM     24  C   UNL     1     -12.437   8.822 128.949  0.00  0.00    +0.000 A 
ATOM     25  C   UNL     1     -11.175   8.575 128.422  0.00  0.00    +0.000 A 
ATOM     26  C   UNL     1     -10.317   7.695 129.078  0.00  0.00    +0.000 A 
ATOM     27  C   UNL     1     -10.727   7.078 130.267  0.00  0.00    +0.000 A 
ATOM     28  C   UNL     1     -12.002   7.336 130.790  0.00  0.00    +0.000 A 
ATOM     29  C   UNL     1     -12.858   8.209 130.123  0.00  0.00    +0.000 A 
ENDBRANCH  21  27
ENDBRANCH  20  21
ENDBRANCH  19  20
ENDBRANCH  18  19
ENDBRANCH   1  18
TORSDOF 6
ENDMDL
MODEL 4
REMARK VINA RESULT:      -8.1      5.053      8.502
REMARK  Name = Droperidol
REMARK  6 active torsions:
REMARK  status: ('A' for Active; 'I' for Inactive)
REMARK    1  A    between atoms: C_5  and  C_8
REMARK    2  A    between atoms: C_8  and  C_10
REMARK    3  A    between atoms: C_10  and  C_11
REMARK    4  A    between atoms: C_11  and  C_12
REMARK    5  A    between atoms: C_12  and  N_13
REMARK    6  A    between atoms: C_16  and  N_19
REMARK                            x       y       z     vdW  Elec       q    Type
REMARK                         _______ _______ _______ _____ _____    ______ ____
ROOT
ATOM      1  N   UNL     1      -7.301   2.549 128.522  0.00  0.00    +0.000 NA
ATOM      2  C   UNL     1      -8.678   2.146 128.847  0.00  0.00    +0.000 C 
ATOM      3  C   UNL     1      -9.204   2.776 130.132  0.00  0.00    +0.000 C 
ATOM      4  C   UNL     1      -8.975   4.255 130.129  0.00  0.00    +0.000 C 
ATOM      5  C   UNL     1      -8.061   4.801 129.311  0.00  0.00    +0.000 C 
ATOM      6  C   UNL     1      -7.166   4.011 128.411  0.00  0.00    +0.000 C 
ENDROOT
BRANCH   4   7
ATOM      7  N   UNL     1      -9.797   5.033 130.904  0.00  0.00    +0.000 N 
ATOM      8  C   UNL     1      -9.691   5.154 132.323  0.00  0.00    +0.000 A 
ATOM      9  O   UNL     1      -8.862   4.656 133.075  0.00  0.00    +0.000 OA
ATOM     10  N   UNL     1     -10.724   6.011 132.731  0.00  0.00    +0.000 N 
ATOM     11  C   UNL     1     -11.455   6.404 131.618  0.00  0.00    +0.000 A 
ATOM     12  C   UNL     1     -12.576   7.200 131.558  0.00  0.00    +0.000 A 
ATOM     13  C   UNL     1     -13.142   7.403 130.296  0.00  0.00    +0.000 A 
ATOM     14  C   UNL     1     -12.585   6.808 129.146  0.00  0.00    +0.000 A 
ATOM     15  C   UNL     1     -11.444   6.001 129.236  0.00  0.00    +0.000 A 
ATOM     16  C   UNL     1     -10.886   5.823 130.486  0.00  0.00    +0.000 A 
ATOM     17  H   UNL     1     -10.878   6.271 133.690  0.00  0.00    +0.000 HD
ENDBRANCH   4   7
BRANCH   1  18
ATOM     18  C   UNL     1      -6.808   1.920 127.283  0.00  0.00    +0.000 C 
BRANCH  18  19
ATOM     19  C   UNL     1      -6.565   2.925 126.163  0.00  0.00    +0.000 C 
BRANCH  19  20
ATOM     20  C   UNL     1      -6.533   2.280 124.800  0.00  0.00    +0.000 C 
BRANCH  20  21
ATOM     21  C   UNL     1      -7.383   3.096 123.846  0.00  0.00    +0.000 C 
ATOM     22  O   UNL     1      -8.572   3.336 124.048  0.00  0.00    +0.000 OA
BRANCH  21  27
ATOM     23  F   UNL     1      -5.018   5.050 119.167  0.00  0.00    +0.000 F 
ATOM     24  C   UNL     1      -5.580   4.587 120.290  0.00  0.00    +0.000 A 
ATOM     25  C   UNL     1      -6.849   4.023 120.239  0.00  0.00    +0.000 A 
ATOM     26  C   UNL     1      -7.434   3.544 121.409  0.00  0.00    +0.000 A 
ATOM     27  C   UNL     1      -6.737   3.625 122.621  0.00  0.00    +0.000 A 
ATOM     28  C   UNL     1      -5.457   4.195 122.659  0.00  0.00    +0.000 A 
ATOM     29  C   UNL     1      -4.881   4.680 121.487  0.00  0.00    +0.000 A 
ENDBRANCH  21  27
ENDBRANCH  20  21
ENDBRANCH  19  20
ENDBRANCH  18  19
ENDBRANCH   1  18
TORSDOF 6
ENDMDL
MODEL 5
REMARK VINA RESULT:      -8.0      7.616      8.781
REMARK  Name = Droperidol
REMARK  6 active torsions:
REMARK  status: ('A' for Active; 'I' for Inactive)
REMARK    1  A    between atoms: C_5  and  C_8
REMARK    2  A    between atoms: C_8  and  C_10
REMARK    3  A    between atoms: C_10  and  C_11
REMARK    4  A    between atoms: C_11  and  C_12
REMARK    5  A    between atoms: C_12  and  N_13
REMARK    6  A    between atoms: C_16  and  N_19
REMARK                            x       y       z     vdW  Elec       q    Type
REMARK                         _______ _______ _______ _____ _____    ______ ____
ROOT
ATOM      1  N   UNL     1      -6.342   5.481 130.511  0.00  0.00    +0.000 NA
ATOM      2  C   UNL     1      -6.890   6.555 131.355  0.00  0.00    +0.000 C 
ATOM      3  C   UNL     1      -8.132   7.212 130.764  0.00  0.00    +0.000 C 
ATOM      4  C   UNL     1      -9.131   6.179 130.346  0.00  0.00    +0.000 C 
ATOM      5  C   UNL     1      -8.752   4.908 130.143  0.00  0.00    +0.000 C 
ATOM      6  C   UNL     1      -7.337   4.432 130.237  0.00  0.00    +0.000 C 
ENDROOT
BRANCH   4   7
ATOM      7  N   UNL     1     -10.450   6.550 130.286  0.00  0.00    +0.000 N 
ATOM      8  C   UNL     1     -11.320   6.624 131.415  0.00  0.00    +0.000 A 
ATOM      9  O   UNL     1     -11.061   6.431 132.597  0.00  0.00    +0.000 OA
ATOM     10  N   UNL     1     -12.578   7.009 130.929  0.00  0.00    +0.000 N 
ATOM     11  C   UNL     1     -12.506   7.162 129.550  0.00  0.00    +0.000 A 
ATOM     12  C   UNL     1     -13.508   7.484 128.663  0.00  0.00    +0.000 A 
ATOM     13  C   UNL     1     -13.164   7.530 127.309  0.00  0.00    +0.000 A 
ATOM     14  C   UNL     1     -11.849   7.250 126.885  0.00  0.00    +0.000 A 
ATOM     15  C   UNL     1     -10.849   6.924 127.809  0.00  0.00    +0.000 A 
ATOM     16  C   UNL     1     -11.199   6.899 129.144  0.00  0.00    +0.000 A 
ATOM     17  H   UNL     1     -13.382   7.140 131.520  0.00  0.00    +0.000 HD
ENDBRANCH   4   7
BRANCH   1  18
ATOM     18  C   UNL     1      -5.135   4.867 131.095  0.00  0.00    +0.000 C 
BRANCH  18  19
ATOM     19  C   UNL     1      -4.954   5.203 132.571  0.00  0.00    +0.000 C 
BRANCH  19  20
ATOM     20  C   UNL     1      -4.623   3.992 133.406  0.00  0.00    +0.000 C 
BRANCH  20  21
ATOM     21  C   UNL     1      -5.793   3.687 134.321  0.00  0.00    +0.000 C 
ATOM     22  O   UNL     1      -5.759   3.875 135.535  0.00  0.00    +0.000 OA
BRANCH  21  27
ATOM     23  F   UNL     1     -10.512   1.703 132.062  0.00  0.00    +0.000 F 
ATOM     24  C   UNL     1      -9.379   2.174 132.597  0.00  0.00    +0.000 A 
ATOM     25  C   UNL     1      -9.410   3.346 133.345  0.00  0.00    +0.000 A 
ATOM     26  C   UNL     1      -8.230   3.837 133.899  0.00  0.00    +0.000 A 
ATOM     27  C   UNL     1      -7.028   3.143 133.709  0.00  0.00    +0.000 A 
ATOM     28  C   UNL     1      -7.010   1.962 132.954  0.00  0.00    +0.000 A 
ATOM     29  C   UNL     1      -8.193   1.481 132.395  0.00  0.00    +0.000 A 
ENDBRANCH  21  27
ENDBRANCH  20  21
ENDBRANCH  19  20
ENDBRANCH  18  19
ENDBRANCH   1  18
TORSDOF 6
ENDMDL
MODEL 6
REMARK VINA RESULT:      -7.9      5.772      8.326
REMARK  Name = Droperidol
REMARK  6 active torsions:
REMARK  status: ('A' for Active; 'I' for Inactive)
REMARK    1  A    between atoms: C_5  and  C_8
REMARK    2  A    between atoms: C_8  and  C_10
REMARK    3  A    between atoms: C_10  and  C_11
REMARK    4  A    between atoms: C_11  and  C_12
REMARK    5  A    between atoms: C_12  and  N_13
REMARK    6  A    between atoms: C_16  and  N_19
REMARK                            x       y       z     vdW  Elec       q    Type
REMARK                         _______ _______ _______ _____ _____    ______ ____
ROOT
ATOM      1  N   UNL     1      -5.325   5.330 130.151  0.00  0.00    +0.000 NA
ATOM      2  C   UNL     1      -6.452   4.802 129.367  0.00  0.00    +0.000 C 
ATOM      3  C   UNL     1      -7.718   4.598 130.192  0.00  0.00    +0.000 C 
ATOM      4  C   UNL     1      -8.036   5.826 130.986  0.00  0.00    +0.000 C 
ATOM      5  C   UNL     1      -7.088   6.746 131.228  0.00  0.00    +0.000 C 
ATOM      6  C   UNL     1      -5.660   6.604 130.809  0.00  0.00    +0.000 C 
ENDROOT
BRANCH   4   7
ATOM      7  N   UNL     1      -9.341   6.029 131.359  0.00  0.00    +0.000 N 
ATOM      8  C   UNL     1      -9.958   5.423 132.495  0.00  0.00    +0.000 A 
ATOM      9  O   UNL     1      -9.459   4.686 133.337  0.00  0.00    +0.000 OA
ATOM     10  N   UNL     1     -11.291   5.861 132.509  0.00  0.00    +0.000 N 
ATOM     11  C   UNL     1     -11.506   6.699 131.423  0.00  0.00    +0.000 A 
ATOM     12  C   UNL     1     -12.671   7.314 131.024  0.00  0.00    +0.000 A 
ATOM     13  C   UNL     1     -12.614   8.079 129.855  0.00  0.00    +0.000 A 
ATOM     14  C   UNL     1     -11.415   8.200 129.124  0.00  0.00    +0.000 A 
ATOM     15  C   UNL     1     -10.245   7.562 129.552  0.00  0.00    +0.000 A 
ATOM     16  C   UNL     1     -10.311   6.824 130.717  0.00  0.00    +0.000 A 
ATOM     17  H   UNL     1     -11.955   5.584 133.212  0.00  0.00    +0.000 HD
ENDBRANCH   4   7
BRANCH   1  18
ATOM     18  C   UNL     1      -4.108   5.508 129.338  0.00  0.00    +0.000 C 
BRANCH  18  19
ATOM     19  C   UNL     1      -3.487   4.185 128.904  0.00  0.00    +0.000 C 
BRANCH  19  20
ATOM     20  C   UNL     1      -2.400   4.365 127.874  0.00  0.00    +0.000 C 
BRANCH  20  21
ATOM     21  C   UNL     1      -2.514   3.267 126.835  0.00  0.00    +0.000 C 
ATOM     22  O   UNL     1      -1.552   2.602 126.455  0.00  0.00    +0.000 OA
BRANCH  21  27
ATOM     23  F   UNL     1      -7.581   2.321 124.658  0.00  0.00    +0.000 F 
ATOM     24  C   UNL     1      -6.368   2.540 125.178  0.00  0.00    +0.000 A 
ATOM     25  C   UNL     1      -5.745   3.766 124.973  0.00  0.00    +0.000 A 
ATOM     26  C   UNL     1      -4.481   3.992 125.513  0.00  0.00    +0.000 A 
ATOM     27  C   UNL     1      -3.854   2.989 126.265  0.00  0.00    +0.000 A 
ATOM     28  C   UNL     1      -4.493   1.758 126.466  0.00  0.00    +0.000 A 
ATOM     29  C   UNL     1      -5.754   1.536 125.916  0.00  0.00    +0.000 A 
ENDBRANCH  21  27
ENDBRANCH  20  21
ENDBRANCH  19  20
ENDBRANCH  18  19
ENDBRANCH   1  18
TORSDOF 6
ENDMDL
MODEL 7
REMARK VINA RESULT:      -7.7      8.991     11.777
REMARK  Name = Droperidol
REMARK  6 active torsions:
REMARK  status: ('A' for Active; 'I' for Inactive)
REMARK    1  A    between atoms: C_5  and  C_8
REMARK    2  A    between atoms: C_8  and  C_10
REMARK    3  A    between atoms: C_10  and  C_11
REMARK    4  A    between atoms: C_11  and  C_12
REMARK    5  A    between atoms: C_12  and  N_13
REMARK    6  A    between atoms: C_16  and  N_19
REMARK                            x       y       z     vdW  Elec       q    Type
REMARK                         _______ _______ _______ _____ _____    ______ ____
ROOT
ATOM      1  N   UNL     1      -6.155   6.679 131.415  0.00  0.00    +0.000 NA
ATOM      2  C   UNL     1      -5.094   6.777 130.399  0.00  0.00    +0.000 C 
ATOM      3  C   UNL     1      -3.916   7.638 130.839  0.00  0.00    +0.000 C 
ATOM      4  C   UNL     1      -3.439   7.230 132.197  0.00  0.00    +0.000 C 
ATOM      5  C   UNL     1      -4.235   6.524 133.016  0.00  0.00    +0.000 C 
ATOM      6  C   UNL     1      -5.648   6.154 132.693  0.00  0.00    +0.000 C 
ENDROOT
BRANCH   4   7
ATOM      7  N   UNL     1      -2.137   7.506 132.530  0.00  0.00    +0.000 N 
ATOM      8  C   UNL     1      -1.085   6.541 132.538  0.00  0.00    +0.000 A 
ATOM      9  O   UNL     1      -1.126   5.358 132.220  0.00  0.00    +0.000 OA
ATOM     10  N   UNL     1       0.073   7.213 132.958  0.00  0.00    +0.000 N 
ATOM     11  C   UNL     1      -0.239   8.541 133.213  0.00  0.00    +0.000 A 
ATOM     12  C   UNL     1       0.576   9.545 133.686  0.00  0.00    +0.000 A 
ATOM     13  C   UNL     1      -0.014  10.795 133.894  0.00  0.00    +0.000 A 
ATOM     14  C   UNL     1      -1.384  11.002 133.634  0.00  0.00    +0.000 A 
ATOM     15  C   UNL     1      -2.191   9.964 133.155  0.00  0.00    +0.000 A 
ATOM     16  C   UNL     1      -1.591   8.739 132.938  0.00  0.00    +0.000 A 
ATOM     17  H   UNL     1       0.968   6.763 133.050  0.00  0.00    +0.000 HD
ENDBRANCH   4   7
BRANCH   1  18
ATOM     18  C   UNL     1      -7.290   5.852 130.965  0.00  0.00    +0.000 C 
BRANCH  18  19
ATOM     19  C   UNL     1      -8.637   6.542 131.151  0.00  0.00    +0.000 C 
BRANCH  19  20
ATOM     20  C   UNL     1      -9.731   5.583 131.550  0.00  0.00    +0.000 C 
BRANCH  20  21
ATOM     21  C   UNL     1     -10.748   5.498 130.430  0.00  0.00    +0.000 C 
ATOM     22  O   UNL     1     -11.035   4.444 129.866  0.00  0.00    +0.000 OA
BRANCH  21  27
ATOM     23  F   UNL     1     -13.360  10.213 128.931  0.00  0.00    +0.000 F 
ATOM     24  C   UNL     1     -12.730   9.087 129.285  0.00  0.00    +0.000 A 
ATOM     25  C   UNL     1     -12.987   8.520 130.528  0.00  0.00    +0.000 A 
ATOM     26  C   UNL     1     -12.328   7.349 130.896  0.00  0.00    +0.000 A 
ATOM     27  C   UNL     1     -11.424   6.749 130.011  0.00  0.00    +0.000 A 
ATOM     28  C   UNL     1     -11.174   7.330 128.760  0.00  0.00    +0.000 A 
ATOM     29  C   UNL     1     -11.830   8.506 128.401  0.00  0.00    +0.000 A 
ENDBRANCH  21  27
ENDBRANCH  20  21
ENDBRANCH  19  20
ENDBRANCH  18  19
ENDBRANCH   1  18
TORSDOF 6
ENDMDL
MODEL 8
REMARK VINA RESULT:      -7.6      8.067      9.784
REMARK  Name = Droperidol
REMARK  6 active torsions:
REMARK  status: ('A' for Active; 'I' for Inactive)
REMARK    1  A    between atoms: C_5  and  C_8
REMARK    2  A    between atoms: C_8  and  C_10
REMARK    3  A    between atoms: C_10  and  C_11
REMARK    4  A    between atoms: C_11  and  C_12
REMARK    5  A    between atoms: C_12  and  N_13
REMARK    6  A    between atoms: C_16  and  N_19
REMARK                            x       y       z     vdW  Elec       q    Type
REMARK                         _______ _______ _______ _____ _____    ______ ____
ROOT
ATOM      1  N   UNL     1      -5.399   5.388 130.448  0.00  0.00    +0.000 NA
ATOM      2  C   UNL     1      -6.437   4.826 129.569  0.00  0.00    +0.000 C 
ATOM      3  C   UNL     1      -7.804   4.726 130.237  0.00  0.00    +0.000 C 
ATOM      4  C   UNL     1      -8.174   6.024 130.883  0.00  0.00    +0.000 C 
ATOM      5  C   UNL     1      -7.231   6.935 131.172  0.00  0.00    +0.000 C 
ATOM      6  C   UNL     1      -5.767   6.720 130.954  0.00  0.00    +0.000 C 
ENDROOT
BRANCH   4   7
ATOM      7  N   UNL     1      -9.506   6.292 131.068  0.00  0.00    +0.000 N 
ATOM      8  C   UNL     1     -10.298   5.753 132.126  0.00  0.00    +0.000 A 
ATOM      9  O   UNL     1      -9.952   5.029 133.052  0.00  0.00    +0.000 OA
ATOM     10  N   UNL     1     -11.600   6.243 131.943  0.00  0.00    +0.000 N 
ATOM     11  C   UNL     1     -11.629   7.049 130.812  0.00  0.00    +0.000 A 
ATOM     12  C   UNL     1     -12.700   7.694 130.239  0.00  0.00    +0.000 A 
ATOM     13  C   UNL     1     -12.452   8.413 129.065  0.00  0.00    +0.000 A 
ATOM     14  C   UNL     1     -11.160   8.459 128.502  0.00  0.00    +0.000 A 
ATOM     15  C   UNL     1     -10.088   7.792 129.106  0.00  0.00    +0.000 A 
ATOM     16  C   UNL     1     -10.344   7.100 130.273  0.00  0.00    +0.000 A 
ATOM     17  H   UNL     1     -12.365   6.019 132.557  0.00  0.00    +0.000 HD
ENDBRANCH   4   7
BRANCH   1  18
ATOM     18  C   UNL     1      -4.083   5.465 129.788  0.00  0.00    +0.000 C 
BRANCH  18  19
ATOM     19  C   UNL     1      -3.045   4.547 130.425  0.00  0.00    +0.000 C 
BRANCH  19  20
ATOM     20  C   UNL     1      -2.648   4.992 131.810  0.00  0.00    +0.000 C 
BRANCH  20  21
ATOM     21  C   UNL     1      -3.134   3.970 132.818  0.00  0.00    +0.000 C 
ATOM     22  O   UNL     1      -2.500   2.954 133.099  0.00  0.00    +0.000 OA
BRANCH  21  27
ATOM     23  F   UNL     1      -7.984   5.005 135.409  0.00  0.00    +0.000 F 
ATOM     24  C   UNL     1      -6.827   4.753 134.784  0.00  0.00    +0.000 A 
ATOM     25  C   UNL     1      -5.787   5.671 134.871  0.00  0.00    +0.000 A 
ATOM     26  C   UNL     1      -4.585   5.410 134.218  0.00  0.00    +0.000 A 
ATOM     27  C   UNL     1      -4.430   4.222 133.491  0.00  0.00    +0.000 A 
ATOM     28  C   UNL     1      -5.486   3.304 133.412  0.00  0.00    +0.000 A 
ATOM     29  C   UNL     1      -6.689   3.576 134.060  0.00  0.00    +0.000 A 
ENDBRANCH  21  27
ENDBRANCH  20  21
ENDBRANCH  19  20
ENDBRANCH  18  19
ENDBRANCH   1  18
TORSDOF 6
ENDMDL
MODEL 9
REMARK VINA RESULT:      -7.6      5.248      8.546
REMARK  Name = Droperidol
REMARK  6 active torsions:
REMARK  status: ('A' for Active; 'I' for Inactive)
REMARK    1  A    between atoms: C_5  and  C_8
REMARK    2  A    between atoms: C_8  and  C_10
REMARK    3  A    between atoms: C_10  and  C_11
REMARK    4  A    between atoms: C_11  and  C_12
REMARK    5  A    between atoms: C_12  and  N_13
REMARK    6  A    between atoms: C_16  and  N_19
REMARK                            x       y       z     vdW  Elec       q    Type
REMARK                         _______ _______ _______ _____ _____    ______ ____
ROOT
ATOM      1  N   UNL     1      -8.586   1.683 130.071  0.00  0.00    +0.000 NA
ATOM      2  C   UNL     1      -7.449   0.766 130.246  0.00  0.00    +0.000 C 
ATOM      3  C   UNL     1      -7.422  -0.365 129.224  0.00  0.00    +0.000 C 
ATOM      4  C   UNL     1      -7.579   0.172 127.836  0.00  0.00    +0.000 C 
ATOM      5  C   UNL     1      -8.096   1.394 127.632  0.00  0.00    +0.000 C 
ATOM      6  C   UNL     1      -8.615   2.275 128.723  0.00  0.00    +0.000 C 
ENDROOT
BRANCH   4   7
ATOM      7  N   UNL     1      -7.080  -0.576 126.799  0.00  0.00    +0.000 N 
ATOM      8  C   UNL     1      -5.821  -0.342 126.169  0.00  0.00    +0.000 A 
ATOM      9  O   UNL     1      -4.966   0.490 126.448  0.00  0.00    +0.000 OA
ATOM     10  N   UNL     1      -5.700  -1.297 125.148  0.00  0.00    +0.000 N 
ATOM     11  C   UNL     1      -6.840  -2.090 125.129  0.00  0.00    +0.000 A 
ATOM     12  C   UNL     1      -7.166  -3.113 124.268  0.00  0.00    +0.000 A 
ATOM     13  C   UNL     1      -8.410  -3.722 124.451  0.00  0.00    +0.000 A 
ATOM     14  C   UNL     1      -9.285  -3.294 125.470  0.00  0.00    +0.000 A 
ATOM     15  C   UNL     1      -8.929  -2.249 126.332  0.00  0.00    +0.000 A 
ATOM     16  C   UNL     1      -7.690  -1.668 126.150  0.00  0.00    +0.000 A 
ATOM     17  H   UNL     1      -4.898  -1.359 124.544  0.00  0.00    +0.000 HD
ENDBRANCH   4   7
BRANCH   1  18
ATOM     18  C   UNL     1      -8.600   2.762 131.076  0.00  0.00    +0.000 C 
BRANCH  18  19
ATOM     19  C   UNL     1      -8.873   4.134 130.470  0.00  0.00    +0.000 C 
BRANCH  19  20
ATOM     20  C   UNL     1      -9.909   4.913 131.241  0.00  0.00    +0.000 C 
BRANCH  20  21
ATOM     21  C   UNL     1      -9.668   6.396 131.036  0.00  0.00    +0.000 C 
ATOM     22  O   UNL     1      -8.672   6.976 131.464  0.00  0.00    +0.000 OA
BRANCH  21  27
ATOM     23  F   UNL     1     -13.426   9.341 128.120  0.00  0.00    +0.000 F 
ATOM     24  C   UNL     1     -12.532   8.633 128.820  0.00  0.00    +0.000 A 
ATOM     25  C   UNL     1     -11.207   8.593 128.400  0.00  0.00    +0.000 A 
ATOM     26  C   UNL     1     -10.279   7.853 129.127  0.00  0.00    +0.000 A 
ATOM     27  C   UNL     1     -10.683   7.165 130.279  0.00  0.00    +0.000 A 
ATOM     28  C   UNL     1     -12.021   7.213 130.692  0.00  0.00    +0.000 A 
ATOM     29  C   UNL     1     -12.947   7.948 129.955  0.00  0.00    +0.000 A 
ENDBRANCH  21  27
ENDBRANCH  20  21
ENDBRANCH  19  20
ENDBRANCH  18  19
ENDBRANCH   1  18
TORSDOF 6
ENDMDL
