MODEL 1
REMARK VINA RESULT:      -9.3      0.000      0.000
REMARK  Name = Drostanolone propionate
REMARK  7 active torsions:
REMARK  status: ('A' for Active; 'I' for Inactive)
REMARK    1  A    between atoms: C_5  and  O_6
REMARK    2  A    between atoms: O_6  and  C_7
REMARK    3  A    between atoms: C_7  and  C_9
REMARK    4  A    between atoms: C_9  and  C_10
REMARK    5  A    between atoms: C_11  and  C_12
REMARK    6  A    between atoms: C_26  and  C_27
REMARK    7  A    between atoms: C_29  and  C_30
REMARK                            x       y       z     vdW  Elec       q    Type
REMARK                         _______ _______ _______ _____ _____    ______ ____
ROOT
ATOM      1  C   UNL     1      -7.614  -3.103 129.925  0.00  0.00    +0.000 C 
ATOM      2  C   UNL     1      -6.615  -4.083 129.664  0.00  0.00    +0.000 C 
ATOM      3  C   UNL     1      -6.119  -2.720 129.288  0.00  0.00    +0.000 C 
ATOM      4  C   UNL     1      -7.324  -1.158 130.007  0.00  0.00    +0.000 C 
ATOM      5  C   UNL     1      -6.409  -1.933 130.703  0.00  0.00    +0.000 C 
ATOM      6  C   UNL     1      -6.081  -2.233 132.082  0.00  0.00    +0.000 C 
ATOM      7  C   UNL     1      -5.365  -0.764 129.687  0.00  0.00    +0.000 C 
ATOM      8  C   UNL     1      -6.185  -0.399 128.175  0.00  0.00    +0.000 C 
ATOM      9  C   UNL     1      -7.063  -1.605 127.386  0.00  0.00    +0.000 C 
ATOM     10  C   UNL     1      -8.208  -2.480 128.315  0.00  0.00    +0.000 C 
ATOM     11  C   UNL     1      -8.793  -3.644 127.553  0.00  0.00    +0.000 C 
ATOM     12  C   UNL     1      -9.330  -3.197 126.217  0.00  0.00    +0.000 C 
ATOM     13  C   UNL     1      -8.306  -2.488 125.328  0.00  0.00    +0.000 C 
ATOM     14  C   UNL     1      -7.325  -3.501 124.771  0.00  0.00    +0.000 C 
ATOM     15  C   UNL     1      -6.547  -2.776 123.692  0.00  0.00    +0.000 C 
ATOM     16  O   UNL     1      -7.026  -2.172 122.740  0.00  0.00    +0.000 OA
ATOM     17  C   UNL     1      -5.168  -2.530 124.110  0.00  0.00    +0.000 C 
ATOM     18  C   UNL     1      -4.707  -4.166 123.794  0.00  0.00    +0.000 C 
ATOM     19  C   UNL     1      -5.993  -1.189 125.066  0.00  0.00    +0.000 C 
ATOM     20  C   UNL     1      -7.518  -1.309 125.971  0.00  0.00    +0.000 C 
ATOM     21  C   UNL     1      -8.563  -0.163 126.251  0.00  0.00    +0.000 C 
ENDROOT
BRANCH   4  22
ATOM     22  O   UNL     1      -7.086   0.213 131.026  0.00  0.00    +0.000 OA
BRANCH  22  23
ATOM     23  C   UNL     1      -8.037   1.036 131.702  0.00  0.00    +0.000 C 
ATOM     24  O   UNL     1      -8.172   1.020 132.923  0.00  0.00    +0.000 OA
BRANCH  23  25
ATOM     25  C   UNL     1      -8.980   2.025 130.818  0.00  0.00    +0.000 C 
ATOM     26  C   UNL     1      -8.641   2.153 129.279  0.00  0.00    +0.000 C 
ENDBRANCH  23  25
ENDBRANCH  22  23
ENDBRANCH   4  22
TORSDOF 3
ENDMDL
MODEL 2
REMARK VINA RESULT:      -8.4      3.301      5.695
REMARK  Name = Drostanolone propionate
REMARK  7 active torsions:
REMARK  status: ('A' for Active; 'I' for Inactive)
REMARK    1  A    between atoms: C_5  and  O_6
REMARK    2  A    between atoms: O_6  and  C_7
REMARK    3  A    between atoms: C_7  and  C_9
REMARK    4  A    between atoms: C_9  and  C_10
REMARK    5  A    between atoms: C_11  and  C_12
REMARK    6  A    between atoms: C_26  and  C_27
REMARK    7  A    between atoms: C_29  and  C_30
REMARK                            x       y       z     vdW  Elec       q    Type
REMARK                         _______ _______ _______ _____ _____    ______ ____
ROOT
ATOM      1  C   UNL     1      -8.253  -1.779 123.840  0.00  0.00    +0.000 C 
ATOM      2  C   UNL     1      -7.312  -1.459 122.821  0.00  0.00    +0.000 C 
ATOM      3  C   UNL     1      -6.706  -1.249 124.175  0.00  0.00    +0.000 C 
ATOM      4  C   UNL     1      -7.835  -2.076 125.740  0.00  0.00    +0.000 C 
ATOM      5  C   UNL     1      -7.012  -2.725 124.834  0.00  0.00    +0.000 C 
ATOM      6  C   UNL     1      -6.773  -4.078 124.372  0.00  0.00    +0.000 C 
ATOM      7  C   UNL     1      -5.841  -1.882 126.020  0.00  0.00    +0.000 C 
ATOM      8  C   UNL     1      -6.558  -0.383 126.596  0.00  0.00    +0.000 C 
ATOM      9  C   UNL     1      -7.477   0.564 125.543  0.00  0.00    +0.000 C 
ATOM     10  C   UNL     1      -8.723  -0.219 124.665  0.00  0.00    +0.000 C 
ATOM     11  C   UNL     1      -9.348   0.684 123.630  0.00  0.00    +0.000 C 
ATOM     12  C   UNL     1      -9.786   1.988 124.248  0.00  0.00    +0.000 C 
ATOM     13  C   UNL     1      -8.674   2.753 124.967  0.00  0.00    +0.000 C 
ATOM     14  C   UNL     1      -7.738   3.371 123.947  0.00  0.00    +0.000 C 
ATOM     15  C   UNL     1      -6.859   4.335 124.718  0.00  0.00    +0.000 C 
ATOM     16  O   UNL     1      -7.248   5.238 125.449  0.00  0.00    +0.000 OA
ATOM     17  C   UNL     1      -5.490   3.836 124.819  0.00  0.00    +0.000 C 
ATOM     18  C   UNL     1      -5.126   4.302 123.195  0.00  0.00    +0.000 C 
ATOM     19  C   UNL     1      -6.267   2.780 126.113  0.00  0.00    +0.000 C 
ATOM     20  C   UNL     1      -7.839   1.958 126.013  0.00  0.00    +0.000 C 
ATOM     21  C   UNL     1      -8.816   1.604 127.199  0.00  0.00    +0.000 C 
ENDROOT
BRANCH   4  22
ATOM     22  O   UNL     1      -7.555  -3.242 126.980  0.00  0.00    +0.000 OA
BRANCH  22  23
ATOM     23  C   UNL     1      -8.329  -3.565 128.135  0.00  0.00    +0.000 C 
ATOM     24  O   UNL     1      -9.385  -4.190 128.067  0.00  0.00    +0.000 OA
BRANCH  23  25
ATOM     25  C   UNL     1      -7.794  -3.078 129.593  0.00  0.00    +0.000 C 
ATOM     26  C   UNL     1      -7.856  -1.529 129.899  0.00  0.00    +0.000 C 
ENDBRANCH  23  25
ENDBRANCH  22  23
ENDBRANCH   4  22
TORSDOF 3
ENDMDL
MODEL 3
REMARK VINA RESULT:      -8.2      2.181      6.311
REMARK  Name = Drostanolone propionate
REMARK  7 active torsions:
REMARK  status: ('A' for Active; 'I' for Inactive)
REMARK    1  A    between atoms: C_5  and  O_6
REMARK    2  A    between atoms: O_6  and  C_7
REMARK    3  A    between atoms: C_7  and  C_9
REMARK    4  A    between atoms: C_9  and  C_10
REMARK    5  A    between atoms: C_11  and  C_12
REMARK    6  A    between atoms: C_26  and  C_27
REMARK    7  A    between atoms: C_29  and  C_30
REMARK                            x       y       z     vdW  Elec       q    Type
REMARK                         _______ _______ _______ _____ _____    ______ ____
ROOT
ATOM      1  C   UNL     1      -7.345   1.112 127.297  0.00  0.00    +0.000 C 
ATOM      2  C   UNL     1      -6.156   1.724 127.785  0.00  0.00    +0.000 C 
ATOM      3  C   UNL     1      -5.844   0.392 127.174  0.00  0.00    +0.000 C 
ATOM      4  C   UNL     1      -7.427  -0.412 126.054  0.00  0.00    +0.000 C 
ATOM      5  C   UNL     1      -6.551   0.603 125.704  0.00  0.00    +0.000 C 
ATOM      6  C   UNL     1      -6.462   1.654 124.710  0.00  0.00    +0.000 C 
ATOM      7  C   UNL     1      -5.546  -0.964 125.554  0.00  0.00    +0.000 C 
ATOM      8  C   UNL     1      -6.093  -2.135 126.746  0.00  0.00    +0.000 C 
ATOM      9  C   UNL     1      -6.564  -1.611 128.279  0.00  0.00    +0.000 C 
ATOM     10  C   UNL     1      -7.699  -0.330 128.359  0.00  0.00    +0.000 C 
ATOM     11  C   UNL     1      -7.901   0.170 129.768  0.00  0.00    +0.000 C 
ATOM     12  C   UNL     1      -8.225  -0.969 130.702  0.00  0.00    +0.000 C 
ATOM     13  C   UNL     1      -7.184  -2.090 130.717  0.00  0.00    +0.000 C 
ATOM     14  C   UNL     1      -5.946  -1.627 131.461  0.00  0.00    +0.000 C 
ATOM     15  C   UNL     1      -5.106  -2.868 131.682  0.00  0.00    +0.000 C 
ATOM     16  O   UNL     1      -5.480  -3.908 132.211  0.00  0.00    +0.000 OA
ATOM     17  C   UNL     1      -3.908  -2.851 130.847  0.00  0.00    +0.000 C 
ATOM     18  C   UNL     1      -3.109  -1.732 131.894  0.00  0.00    +0.000 C 
ATOM     19  C   UNL     1      -5.134  -3.345 129.564  0.00  0.00    +0.000 C 
ATOM     20  C   UNL     1      -6.765  -2.677 129.337  0.00  0.00    +0.000 C 
ATOM     21  C   UNL     1      -8.032  -3.410 128.752  0.00  0.00    +0.000 C 
ENDROOT
BRANCH   4  22
ATOM     22  O   UNL     1      -7.650  -0.918 124.420  0.00  0.00    +0.000 OA
BRANCH  22  23
ATOM     23  C   UNL     1      -8.816  -1.402 123.754  0.00  0.00    +0.000 C 
ATOM     24  O   UNL     1      -9.674  -0.650 123.298  0.00  0.00    +0.000 OA
BRANCH  23  25
ATOM     25  C   UNL     1      -9.017  -3.009 123.603  0.00  0.00    +0.000 C 
ATOM     26  C   UNL     1      -8.349  -3.923 124.707  0.00  0.00    +0.000 C 
ENDBRANCH  23  25
ENDBRANCH  22  23
ENDBRANCH   4  22
TORSDOF 3
ENDMDL
MODEL 4
REMARK VINA RESULT:      -7.9      3.271      6.761
REMARK  Name = Drostanolone propionate
REMARK  7 active torsions:
REMARK  status: ('A' for Active; 'I' for Inactive)
REMARK    1  A    between atoms: C_5  and  O_6
REMARK    2  A    between atoms: O_6  and  C_7
REMARK    3  A    between atoms: C_7  and  C_9
REMARK    4  A    between atoms: C_9  and  C_10
REMARK    5  A    between atoms: C_11  and  C_12
REMARK    6  A    between atoms: C_26  and  C_27
REMARK    7  A    between atoms: C_29  and  C_30
REMARK                            x       y       z     vdW  Elec       q    Type
REMARK                         _______ _______ _______ _____ _____    ______ ____
ROOT
ATOM      1  C   UNL     1      -8.142  -1.061 123.201  0.00  0.00    +0.000 C 
ATOM      2  C   UNL     1      -9.160  -1.866 123.786  0.00  0.00    +0.000 C 
ATOM      3  C   UNL     1      -9.050  -0.556 124.507  0.00  0.00    +0.000 C 
ATOM      4  C   UNL     1      -7.891   0.869 123.490  0.00  0.00    +0.000 C 
ATOM      5  C   UNL     1      -9.189   0.464 123.224  0.00  0.00    +0.000 C 
ATOM      6  C   UNL     1     -10.145   0.558 122.139  0.00  0.00    +0.000 C 
ATOM      7  C   UNL     1      -9.331   1.546 124.740  0.00  0.00    +0.000 C 
ATOM      8  C   UNL     1      -7.877   1.391 125.717  0.00  0.00    +0.000 C 
ATOM      9  C   UNL     1      -7.116  -0.109 125.852  0.00  0.00    +0.000 C 
ATOM     10  C   UNL     1      -6.770  -0.950 124.400  0.00  0.00    +0.000 C 
ATOM     11  C   UNL     1      -6.261  -2.348 124.655  0.00  0.00    +0.000 C 
ATOM     12  C   UNL     1      -5.104  -2.331 125.621  0.00  0.00    +0.000 C 
ATOM     13  C   UNL     1      -5.409  -1.662 126.963  0.00  0.00    +0.000 C 
ATOM     14  C   UNL     1      -6.294  -2.569 127.796  0.00  0.00    +0.000 C 
ATOM     15  C   UNL     1      -6.302  -1.976 129.190  0.00  0.00    +0.000 C 
ATOM     16  O   UNL     1      -5.315  -1.710 129.866  0.00  0.00    +0.000 OA
ATOM     17  C   UNL     1      -7.599  -1.382 129.504  0.00  0.00    +0.000 C 
ATOM     18  C   UNL     1      -8.312  -2.926 129.808  0.00  0.00    +0.000 C 
ATOM     19  C   UNL     1      -6.929  -0.040 128.433  0.00  0.00    +0.000 C 
ATOM     20  C   UNL     1      -6.038  -0.239 126.909  0.00  0.00    +0.000 C 
ATOM     21  C   UNL     1      -4.941   0.719 126.304  0.00  0.00    +0.000 C 
ENDROOT
BRANCH   4  22
ATOM     22  O   UNL     1      -8.153   2.457 122.870  0.00  0.00    +0.000 OA
BRANCH  22  23
ATOM     23  C   UNL     1      -7.246   3.367 122.250  0.00  0.00    +0.000 C 
ATOM     24  O   UNL     1      -6.263   3.818 122.833  0.00  0.00    +0.000 OA
BRANCH  23  25
ATOM     25  C   UNL     1      -7.531   3.828 120.715  0.00  0.00    +0.000 C 
ATOM     26  C   UNL     1      -9.038   3.849 120.241  0.00  0.00    +0.000 C 
ENDBRANCH  23  25
ENDBRANCH  22  23
ENDBRANCH   4  22
TORSDOF 3
ENDMDL
MODEL 5
REMARK VINA RESULT:      -7.7      2.278      6.849
REMARK  Name = Drostanolone propionate
REMARK  7 active torsions:
REMARK  status: ('A' for Active; 'I' for Inactive)
REMARK    1  A    between atoms: C_5  and  O_6
REMARK    2  A    between atoms: O_6  and  C_7
REMARK    3  A    between atoms: C_7  and  C_9
REMARK    4  A    between atoms: C_9  and  C_10
REMARK    5  A    between atoms: C_11  and  C_12
REMARK    6  A    between atoms: C_26  and  C_27
REMARK    7  A    between atoms: C_29  and  C_30
REMARK                            x       y       z     vdW  Elec       q    Type
REMARK                         _______ _______ _______ _____ _____    ______ ____
ROOT
ATOM      1  C   UNL     1      -6.734  -2.165 127.811  0.00  0.00    +0.000 C 
ATOM      2  C   UNL     1      -7.828  -1.975 128.702  0.00  0.00    +0.000 C 
ATOM      3  C   UNL     1      -8.030  -1.178 127.449  0.00  0.00    +0.000 C 
ATOM      4  C   UNL     1      -6.710  -1.695 125.901  0.00  0.00    +0.000 C 
ATOM      5  C   UNL     1      -7.835  -2.376 126.339  0.00  0.00    +0.000 C 
ATOM      6  C   UNL     1      -8.416  -3.696 126.203  0.00  0.00    +0.000 C 
ATOM      7  C   UNL     1      -8.505  -0.916 125.386  0.00  0.00    +0.000 C 
ATOM      8  C   UNL     1      -7.414   0.453 125.554  0.00  0.00    +0.000 C 
ATOM      9  C   UNL     1      -6.636   0.727 127.026  0.00  0.00    +0.000 C 
ATOM     10  C   UNL     1      -5.806  -0.595 127.735  0.00  0.00    +0.000 C 
ATOM     11  C   UNL     1      -5.311  -0.279 129.125  0.00  0.00    +0.000 C 
ATOM     12  C   UNL     1      -4.510   0.998 129.134  0.00  0.00    +0.000 C 
ATOM     13  C   UNL     1      -5.255   2.217 128.586  0.00  0.00    +0.000 C 
ATOM     14  C   UNL     1      -6.292   2.676 129.592  0.00  0.00    +0.000 C 
ATOM     15  C   UNL     1      -6.766   4.032 129.111  0.00  0.00    +0.000 C 
ATOM     16  O   UNL     1      -6.055   4.996 128.856  0.00  0.00    +0.000 OA
ATOM     17  C   UNL     1      -8.133   3.962 128.599  0.00  0.00    +0.000 C 
ATOM     18  C   UNL     1      -8.803   3.936 130.192  0.00  0.00    +0.000 C 
ATOM     19  C   UNL     1      -7.256   3.237 127.150  0.00  0.00    +0.000 C 
ATOM     20  C   UNL     1      -5.928   2.057 127.191  0.00  0.00    +0.000 C 
ATOM     21  C   UNL     1      -4.764   1.882 126.142  0.00  0.00    +0.000 C 
ENDROOT
BRANCH   4  22
ATOM     22  O   UNL     1      -6.873  -2.268 124.282  0.00  0.00    +0.000 OA
BRANCH  22  23
ATOM     23  C   UNL     1      -5.902  -2.381 123.242  0.00  0.00    +0.000 C 
ATOM     24  O   UNL     1      -6.075  -1.902 122.124  0.00  0.00    +0.000 OA
BRANCH  23  25
ATOM     25  C   UNL     1      -4.520  -3.183 123.549  0.00  0.00    +0.000 C 
ATOM     26  C   UNL     1      -4.615  -4.756 123.676  0.00  0.00    +0.000 C 
ENDBRANCH  23  25
ENDBRANCH  22  23
ENDBRANCH   4  22
TORSDOF 3
ENDMDL
MODEL 6
REMARK VINA RESULT:      -7.5      6.594      9.040
REMARK  Name = Drostanolone propionate
REMARK  7 active torsions:
REMARK  status: ('A' for Active; 'I' for Inactive)
REMARK    1  A    between atoms: C_5  and  O_6
REMARK    2  A    between atoms: O_6  and  C_7
REMARK    3  A    between atoms: C_7  and  C_9
REMARK    4  A    between atoms: C_9  and  C_10
REMARK    5  A    between atoms: C_11  and  C_12
REMARK    6  A    between atoms: C_26  and  C_27
REMARK    7  A    between atoms: C_29  and  C_30
REMARK                            x       y       z     vdW  Elec       q    Type
REMARK                         _______ _______ _______ _____ _____    ______ ____
ROOT
ATOM      1  C   UNL     1      -8.390   4.014 129.542  0.00  0.00    +0.000 C 
ATOM      2  C   UNL     1      -8.345   2.838 130.345  0.00  0.00    +0.000 C 
ATOM      3  C   UNL     1      -8.274   4.063 131.207  0.00  0.00    +0.000 C 
ATOM      4  C   UNL     1      -8.750   5.837 130.190  0.00  0.00    +0.000 C 
ATOM      5  C   UNL     1      -9.607   4.852 130.656  0.00  0.00    +0.000 C 
ATOM      6  C   UNL     1     -10.984   4.444 130.462  0.00  0.00    +0.000 C 
ATOM      7  C   UNL     1      -9.074   5.780 132.186  0.00  0.00    +0.000 C 
ATOM      8  C   UNL     1      -7.430   6.369 131.980  0.00  0.00    +0.000 C 
ATOM      9  C   UNL     1      -6.298   5.421 131.165  0.00  0.00    +0.000 C 
ATOM     10  C   UNL     1      -6.747   4.804 129.630  0.00  0.00    +0.000 C 
ATOM     11  C   UNL     1      -5.732   3.828 129.087  0.00  0.00    +0.000 C 
ATOM     12  C   UNL     1      -4.347   4.426 129.105  0.00  0.00    +0.000 C 
ATOM     13  C   UNL     1      -3.884   4.908 130.480  0.00  0.00    +0.000 C 
ATOM     14  C   UNL     1      -3.549   3.714 131.353  0.00  0.00    +0.000 C 
ATOM     15  C   UNL     1      -2.832   4.273 132.565  0.00  0.00    +0.000 C 
ATOM     16  O   UNL     1      -1.846   4.999 132.548  0.00  0.00    +0.000 OA
ATOM     17  C   UNL     1      -3.668   4.184 133.761  0.00  0.00    +0.000 C 
ATOM     18  C   UNL     1      -3.343   2.497 133.947  0.00  0.00    +0.000 C 
ATOM     19  C   UNL     1      -4.461   5.650 132.975  0.00  0.00    +0.000 C 
ATOM     20  C   UNL     1      -4.848   5.855 131.253  0.00  0.00    +0.000 C 
ATOM     21  C   UNL     1      -4.914   7.201 130.436  0.00  0.00    +0.000 C 
ENDROOT
BRANCH   4  22
ATOM     22  O   UNL     1      -9.925   7.086 130.374  0.00  0.00    +0.000 OA
BRANCH  22  23
ATOM     23  C   UNL     1     -10.625   7.847 129.390  0.00  0.00    +0.000 C 
ATOM     24  O   UNL     1     -10.053   8.386 128.445  0.00  0.00    +0.000 OA
BRANCH  23  25
ATOM     25  C   UNL     1     -12.238   8.009 129.532  0.00  0.00    +0.000 C 
ATOM     26  C   UNL     1     -13.135   7.057 128.645  0.00  0.00    +0.000 C 
ENDBRANCH  23  25
ENDBRANCH  22  23
ENDBRANCH   4  22
TORSDOF 3
ENDMDL
MODEL 7
REMARK VINA RESULT:      -7.5      3.120      6.931
REMARK  Name = Drostanolone propionate
REMARK  7 active torsions:
REMARK  status: ('A' for Active; 'I' for Inactive)
REMARK    1  A    between atoms: C_5  and  O_6
REMARK    2  A    between atoms: O_6  and  C_7
REMARK    3  A    between atoms: C_7  and  C_9
REMARK    4  A    between atoms: C_9  and  C_10
REMARK    5  A    between atoms: C_11  and  C_12
REMARK    6  A    between atoms: C_26  and  C_27
REMARK    7  A    between atoms: C_29  and  C_30
REMARK                            x       y       z     vdW  Elec       q    Type
REMARK                         _______ _______ _______ _____ _____    ______ ____
ROOT
ATOM      1  C   UNL     1      -7.746   1.643 124.973  0.00  0.00    +0.000 C 
ATOM      2  C   UNL     1      -6.732   2.352 124.267  0.00  0.00    +0.000 C 
ATOM      3  C   UNL     1      -6.119   1.314 125.157  0.00  0.00    +0.000 C 
ATOM      4  C   UNL     1      -7.506  -0.064 125.922  0.00  0.00    +0.000 C 
ATOM      5  C   UNL     1      -6.964  -0.003 124.648  0.00  0.00    +0.000 C 
ATOM      6  C   UNL     1      -7.234  -0.552 123.335  0.00  0.00    +0.000 C 
ATOM      7  C   UNL     1      -5.588  -0.675 125.718  0.00  0.00    +0.000 C 
ATOM      8  C   UNL     1      -5.711   0.003 127.336  0.00  0.00    +0.000 C 
ATOM      9  C   UNL     1      -6.191   1.609 127.536  0.00  0.00    +0.000 C 
ATOM     10  C   UNL     1      -7.620   2.109 126.733  0.00  0.00    +0.000 C 
ATOM     11  C   UNL     1      -7.844   3.597 126.838  0.00  0.00    +0.000 C 
ATOM     12  C   UNL     1      -7.780   4.052 128.274  0.00  0.00    +0.000 C 
ATOM     13  C   UNL     1      -6.478   3.695 128.993  0.00  0.00    +0.000 C 
ATOM     14  C   UNL     1      -5.359   4.590 128.497  0.00  0.00    +0.000 C 
ATOM     15  C   UNL     1      -4.202   4.377 129.451  0.00  0.00    +0.000 C 
ATOM     16  O   UNL     1      -4.243   4.488 130.671  0.00  0.00    +0.000 OA
ATOM     17  C   UNL     1      -3.117   3.637 128.810  0.00  0.00    +0.000 C 
ATOM     18  C   UNL     1      -2.573   5.038 127.955  0.00  0.00    +0.000 C 
ATOM     19  C   UNL     1      -4.257   2.228 129.142  0.00  0.00    +0.000 C 
ATOM     20  C   UNL     1      -6.019   2.209 128.917  0.00  0.00    +0.000 C 
ATOM     21  C   UNL     1      -7.082   1.364 129.719  0.00  0.00    +0.000 C 
ENDROOT
BRANCH   4  22
ATOM     22  O   UNL     1      -7.704  -1.777 125.862  0.00  0.00    +0.000 OA
BRANCH  22  23
ATOM     23  C   UNL     1      -8.802  -2.594 126.270  0.00  0.00    +0.000 C 
ATOM     24  O   UNL     1      -9.837  -2.681 125.615  0.00  0.00    +0.000 OA
BRANCH  23  25
ATOM     25  C   UNL     1      -8.675  -3.433 127.659  0.00  0.00    +0.000 C 
ATOM     26  C   UNL     1      -7.884  -2.745 128.842  0.00  0.00    +0.000 C 
ENDBRANCH  23  25
ENDBRANCH  22  23
ENDBRANCH   4  22
TORSDOF 3
ENDMDL
MODEL 8
REMARK VINA RESULT:      -7.4      3.905      6.011
REMARK  Name = Drostanolone propionate
REMARK  7 active torsions:
REMARK  status: ('A' for Active; 'I' for Inactive)
REMARK    1  A    between atoms: C_5  and  O_6
REMARK    2  A    between atoms: O_6  and  C_7
REMARK    3  A    between atoms: C_7  and  C_9
REMARK    4  A    between atoms: C_9  and  C_10
REMARK    5  A    between atoms: C_11  and  C_12
REMARK    6  A    between atoms: C_26  and  C_27
REMARK    7  A    between atoms: C_29  and  C_30
REMARK                            x       y       z     vdW  Elec       q    Type
REMARK                         _______ _______ _______ _____ _____    ______ ____
ROOT
ATOM      1  C   UNL     1      -4.991   3.558 129.354  0.00  0.00    +0.000 C 
ATOM      2  C   UNL     1      -3.979   2.908 130.116  0.00  0.00    +0.000 C 
ATOM      3  C   UNL     1      -3.964   2.416 128.700  0.00  0.00    +0.000 C 
ATOM      4  C   UNL     1      -5.113   3.587 127.391  0.00  0.00    +0.000 C 
ATOM      5  C   UNL     1      -3.862   3.860 127.920  0.00  0.00    +0.000 C 
ATOM      6  C   UNL     1      -2.982   5.002 128.072  0.00  0.00    +0.000 C 
ATOM      7  C   UNL     1      -3.552   2.562 126.613  0.00  0.00    +0.000 C 
ATOM      8  C   UNL     1      -4.938   1.486 126.506  0.00  0.00    +0.000 C 
ATOM      9  C   UNL     1      -5.769   1.050 127.908  0.00  0.00    +0.000 C 
ATOM     10  C   UNL     1      -6.265   2.314 128.954  0.00  0.00    +0.000 C 
ATOM     11  C   UNL     1      -6.831   1.793 130.252  0.00  0.00    +0.000 C 
ATOM     12  C   UNL     1      -7.913   0.774 129.998  0.00  0.00    +0.000 C 
ATOM     13  C   UNL     1      -7.475  -0.412 129.137  0.00  0.00    +0.000 C 
ATOM     14  C   UNL     1      -6.584  -1.331 129.949  0.00  0.00    +0.000 C 
ATOM     15  C   UNL     1      -6.443  -2.601 129.134  0.00  0.00    +0.000 C 
ATOM     16  O   UNL     1      -7.362  -3.281 128.694  0.00  0.00    +0.000 OA
ATOM     17  C   UNL     1      -5.096  -2.728 128.584  0.00  0.00    +0.000 C 
ATOM     18  C   UNL     1      -4.450  -3.248 130.101  0.00  0.00    +0.000 C 
ATOM     19  C   UNL     1      -5.765  -1.488 127.397  0.00  0.00    +0.000 C 
ATOM     20  C   UNL     1      -6.774  -0.078 127.787  0.00  0.00    +0.000 C 
ATOM     21  C   UNL     1      -7.856   0.613 126.872  0.00  0.00    +0.000 C 
ENDROOT
BRANCH   4  22
ATOM     22  O   UNL     1      -4.808   4.484 125.949  0.00  0.00    +0.000 OA
BRANCH  22  23
ATOM     23  C   UNL     1      -5.704   4.920 124.926  0.00  0.00    +0.000 C 
ATOM     24  O   UNL     1      -6.413   5.915 125.052  0.00  0.00    +0.000 OA
BRANCH  23  25
ATOM     25  C   UNL     1      -5.791   4.059 123.548  0.00  0.00    +0.000 C 
ATOM     26  C   UNL     1      -6.754   2.806 123.545  0.00  0.00    +0.000 C 
ENDBRANCH  23  25
ENDBRANCH  22  23
ENDBRANCH   4  22
TORSDOF 3
ENDMDL
MODEL 9
REMARK VINA RESULT:      -7.4      5.868      9.702
REMARK  Name = Drostanolone propionate
REMARK  7 active torsions:
REMARK  status: ('A' for Active; 'I' for Inactive)
REMARK    1  A    between atoms: C_5  and  O_6
REMARK    2  A    between atoms: O_6  and  C_7
REMARK    3  A    between atoms: C_7  and  C_9
REMARK    4  A    between atoms: C_9  and  C_10
REMARK    5  A    between atoms: C_11  and  C_12
REMARK    6  A    between atoms: C_26  and  C_27
REMARK    7  A    between atoms: C_29  and  C_30
REMARK                            x       y       z     vdW  Elec       q    Type
REMARK                         _______ _______ _______ _____ _____    ______ ____
ROOT
ATOM      1  C   UNL     1      -6.371   3.406 134.126  0.00  0.00    +0.000 C 
ATOM      2  C   UNL     1      -6.221   4.272 135.247  0.00  0.00    +0.000 C 
ATOM      3  C   UNL     1      -6.448   5.069 133.998  0.00  0.00    +0.000 C 
ATOM      4  C   UNL     1      -7.096   3.914 132.369  0.00  0.00    +0.000 C 
ATOM      5  C   UNL     1      -7.825   4.342 133.467  0.00  0.00    +0.000 C 
ATOM      6  C   UNL     1      -9.086   4.031 134.110  0.00  0.00    +0.000 C 
ATOM      7  C   UNL     1      -7.625   5.867 132.407  0.00  0.00    +0.000 C 
ATOM      8  C   UNL     1      -6.088   5.799 131.555  0.00  0.00    +0.000 C 
ATOM      9  C   UNL     1      -4.731   5.156 132.326  0.00  0.00    +0.000 C 
ATOM     10  C   UNL     1      -4.901   3.619 133.066  0.00  0.00    +0.000 C 
ATOM     11  C   UNL     1      -3.685   3.236 133.874  0.00  0.00    +0.000 C 
ATOM     12  C   UNL     1      -2.429   3.363 133.049  0.00  0.00    +0.000 C 
ATOM     13  C   UNL     1      -2.205   4.751 132.446  0.00  0.00    +0.000 C 
ATOM     14  C   UNL     1      -1.776   5.717 133.533  0.00  0.00    +0.000 C 
ATOM     15  C   UNL     1      -1.299   6.964 132.817  0.00  0.00    +0.000 C 
ATOM     16  O   UNL     1      -0.450   7.009 131.935  0.00  0.00    +0.000 OA
ATOM     17  C   UNL     1      -2.235   8.071 133.004  0.00  0.00    +0.000 C 
ATOM     18  C   UNL     1      -1.659   8.380 134.603  0.00  0.00    +0.000 C 
ATOM     19  C   UNL     1      -3.168   7.130 131.723  0.00  0.00    +0.000 C 
ATOM     20  C   UNL     1      -3.392   5.368 131.650  0.00  0.00    +0.000 C 
ATOM     21  C   UNL     1      -3.589   4.477 130.364  0.00  0.00    +0.000 C 
ENDROOT
BRANCH   4  22
ATOM     22  O   UNL     1      -8.474   3.909 131.332  0.00  0.00    +0.000 OA
BRANCH  22  23
ATOM     23  C   UNL     1      -8.809   3.045 130.246  0.00  0.00    +0.000 C 
ATOM     24  O   UNL     1      -9.158   3.472 129.148  0.00  0.00    +0.000 OA
BRANCH  23  25
ATOM     25  C   UNL     1      -8.730   1.436 130.477  0.00  0.00    +0.000 C 
ATOM     26  C   UNL     1      -9.337   0.874 131.824  0.00  0.00    +0.000 C 
ENDBRANCH  23  25
ENDBRANCH  22  23
ENDBRANCH   4  22
TORSDOF 3
ENDMDL
