MODEL 1
REMARK VINA RESULT:      -9.1      0.000      0.000
REMARK  Name = Drospirenone
REMARK  2 active torsions:
REMARK  status: ('A' for Active; 'I' for Inactive)
REMARK    1  A    between atoms: C_21  and  C_22
REMARK    2  A    between atoms: C_27  and  C_28
REMARK                            x       y       z     vdW  Elec       q    Type
REMARK                         _______ _______ _______ _____ _____    ______ ____
ROOT
ATOM      1  C   UNL     1      -9.166  -3.490 127.233  0.00  0.00    +0.000 C 
ATOM      2  C   UNL     1      -8.693  -4.716 128.098  0.00  0.00    +0.000 C 
ATOM      3  C   UNL     1      -8.638  -3.388 128.732  0.00  0.00    +0.000 C 
ATOM      4  C   UNL     1      -7.295  -2.830 129.072  0.00  0.00    +0.000 C 
ATOM      5  C   UNL     1      -6.471  -3.553 130.147  0.00  0.00    +0.000 C 
ATOM      6  C   UNL     1      -7.060  -3.283 131.480  0.00  0.00    +0.000 C 
ATOM      7  C   UNL     1      -6.336  -2.862 132.769  0.00  0.00    +0.000 C 
ATOM      8  C   UNL     1      -6.744  -1.831 131.797  0.00  0.00    +0.000 C 
ATOM      9  C   UNL     1      -5.501  -1.366 130.758  0.00  0.00    +0.000 C 
ATOM     10  C   UNL     1      -4.138  -0.684 130.952  0.00  0.00    +0.000 C 
ATOM     11  C   UNL     1      -4.272   0.777 130.601  0.00  0.00    +0.000 C 
ATOM     12  C   UNL     1      -5.400   0.730 129.641  0.00  0.00    +0.000 C 
ATOM     13  O   UNL     1      -5.659   1.599 128.823  0.00  0.00    +0.000 OA
ATOM     14  O   UNL     1      -6.103  -0.433 129.815  0.00  0.00    +0.000 OA
ATOM     15  C   UNL     1      -5.088  -2.887 130.271  0.00  0.00    +0.000 C 
ATOM     16  C   UNL     1      -4.179  -3.721 131.225  0.00  0.00    +0.000 C 
ATOM     17  C   UNL     1      -4.314  -3.012 128.991  0.00  0.00    +0.000 C 
ATOM     18  C   UNL     1      -5.017  -2.289 127.940  0.00  0.00    +0.000 C 
ATOM     19  C   UNL     1      -6.453  -2.764 127.847  0.00  0.00    +0.000 C 
ATOM     20  C   UNL     1      -7.225  -1.914 126.899  0.00  0.00    +0.000 C 
ATOM     21  C   UNL     1      -7.574  -0.454 127.181  0.00  0.00    +0.000 C 
ATOM     22  C   UNL     1      -6.330  -1.811 125.817  0.00  0.00    +0.000 C 
ATOM     23  C   UNL     1      -5.263  -1.366 125.035  0.00  0.00    +0.000 C 
ATOM     24  C   UNL     1      -6.246  -2.235 123.952  0.00  0.00    +0.000 C 
ATOM     25  O   UNL     1      -5.736  -2.537 122.923  0.00  0.00    +0.000 OA
ATOM     26  C   UNL     1      -7.908  -2.898 124.696  0.00  0.00    +0.000 C 
ATOM     27  C   UNL     1      -8.208  -2.814 126.119  0.00  0.00    +0.000 C 
ENDROOT
TORSDOF 0
ENDMDL
MODEL 2
REMARK VINA RESULT:      -8.9      3.055      6.260
REMARK  Name = Drospirenone
REMARK  2 active torsions:
REMARK  status: ('A' for Active; 'I' for Inactive)
REMARK    1  A    between atoms: C_21  and  C_22
REMARK    2  A    between atoms: C_27  and  C_28
REMARK                            x       y       z     vdW  Elec       q    Type
REMARK                         _______ _______ _______ _____ _____    ______ ____
ROOT
ATOM      1  C   UNL     1      -7.080   3.222 123.683  0.00  0.00    +0.000 C 
ATOM      2  C   UNL     1      -6.817   2.254 122.472  0.00  0.00    +0.000 C 
ATOM      3  C   UNL     1      -7.730   1.778 123.526  0.00  0.00    +0.000 C 
ATOM      4  C   UNL     1      -7.299   0.610 124.351  0.00  0.00    +0.000 C 
ATOM      5  C   UNL     1      -7.148  -0.746 123.648  0.00  0.00    +0.000 C 
ATOM      6  C   UNL     1      -8.491  -1.295 123.347  0.00  0.00    +0.000 C 
ATOM      7  C   UNL     1      -9.013  -2.720 123.597  0.00  0.00    +0.000 C 
ATOM      8  C   UNL     1      -9.084  -1.721 124.680  0.00  0.00    +0.000 C 
ATOM      9  C   UNL     1      -7.802  -1.827 125.769  0.00  0.00    +0.000 C 
ATOM     10  C   UNL     1      -7.316  -2.901 126.755  0.00  0.00    +0.000 C 
ATOM     11  C   UNL     1      -7.781  -2.534 128.142  0.00  0.00    +0.000 C 
ATOM     12  C   UNL     1      -7.887  -1.061 128.019  0.00  0.00    +0.000 C 
ATOM     13  O   UNL     1      -7.893  -0.279 128.957  0.00  0.00    +0.000 OA
ATOM     14  O   UNL     1      -7.979  -0.717 126.696  0.00  0.00    +0.000 OA
ATOM     15  C   UNL     1      -6.597  -1.784 124.643  0.00  0.00    +0.000 C 
ATOM     16  C   UNL     1      -6.268  -3.114 123.899  0.00  0.00    +0.000 C 
ATOM     17  C   UNL     1      -5.226  -1.399 125.118  0.00  0.00    +0.000 C 
ATOM     18  C   UNL     1      -5.314  -0.144 125.852  0.00  0.00    +0.000 C 
ATOM     19  C   UNL     1      -5.997   0.911 125.006  0.00  0.00    +0.000 C 
ATOM     20  C   UNL     1      -6.248   2.142 125.806  0.00  0.00    +0.000 C 
ATOM     21  C   UNL     1      -7.255   2.201 126.952  0.00  0.00    +0.000 C 
ATOM     22  C   UNL     1      -5.018   2.303 126.471  0.00  0.00    +0.000 C 
ATOM     23  C   UNL     1      -4.006   2.133 127.418  0.00  0.00    +0.000 C 
ATOM     24  C   UNL     1      -3.602   3.582 126.623  0.00  0.00    +0.000 C 
ATOM     25  O   UNL     1      -2.490   3.966 126.787  0.00  0.00    +0.000 OA
ATOM     26  C   UNL     1      -4.888   4.188 125.306  0.00  0.00    +0.000 C 
ATOM     27  C   UNL     1      -6.023   3.372 124.899  0.00  0.00    +0.000 C 
ENDROOT
TORSDOF 0
ENDMDL
MODEL 3
REMARK VINA RESULT:      -8.8      2.555      6.170
REMARK  Name = Drospirenone
REMARK  2 active torsions:
REMARK  status: ('A' for Active; 'I' for Inactive)
REMARK    1  A    between atoms: C_21  and  C_22
REMARK    2  A    between atoms: C_27  and  C_28
REMARK                            x       y       z     vdW  Elec       q    Type
REMARK                         _______ _______ _______ _____ _____    ______ ____
ROOT
ATOM      1  C   UNL     1      -7.414  -2.670 128.995  0.00  0.00    +0.000 C 
ATOM      2  C   UNL     1      -8.431  -3.273 127.959  0.00  0.00    +0.000 C 
ATOM      3  C   UNL     1      -7.264  -2.557 127.414  0.00  0.00    +0.000 C 
ATOM      4  C   UNL     1      -7.506  -1.283 126.674  0.00  0.00    +0.000 C 
ATOM      5  C   UNL     1      -8.277  -1.361 125.349  0.00  0.00    +0.000 C 
ATOM      6  C   UNL     1      -7.402  -1.945 124.306  0.00  0.00    +0.000 C 
ATOM      7  C   UNL     1      -7.164  -1.440 122.874  0.00  0.00    +0.000 C 
ATOM      8  C   UNL     1      -6.364  -0.884 123.980  0.00  0.00    +0.000 C 
ATOM      9  C   UNL     1      -6.963   0.578 124.566  0.00  0.00    +0.000 C 
ATOM     10  C   UNL     1      -7.155   1.978 123.964  0.00  0.00    +0.000 C 
ATOM     11  C   UNL     1      -6.020   2.862 124.417  0.00  0.00    +0.000 C 
ATOM     12  C   UNL     1      -5.652   2.209 125.695  0.00  0.00    +0.000 C 
ATOM     13  O   UNL     1      -5.025   2.741 126.598  0.00  0.00    +0.000 OA
ATOM     14  O   UNL     1      -6.121   0.922 125.704  0.00  0.00    +0.000 OA
ATOM     15  C   UNL     1      -8.511   0.061 124.806  0.00  0.00    +0.000 C 
ATOM     16  C   UNL     1      -9.447   0.008 123.559  0.00  0.00    +0.000 C 
ATOM     17  C   UNL     1      -9.366   0.862 125.744  0.00  0.00    +0.000 C 
ATOM     18  C   UNL     1      -8.658   1.025 127.007  0.00  0.00    +0.000 C 
ATOM     19  C   UNL     1      -8.236  -0.325 127.549  0.00  0.00    +0.000 C 
ATOM     20  C   UNL     1      -7.364  -0.160 128.745  0.00  0.00    +0.000 C 
ATOM     21  C   UNL     1      -5.951   0.415 128.674  0.00  0.00    +0.000 C 
ATOM     22  C   UNL     1      -8.059   0.827 129.469  0.00  0.00    +0.000 C 
ATOM     23  C   UNL     1      -8.511   2.085 129.871  0.00  0.00    +0.000 C 
ATOM     24  C   UNL     1      -8.901   1.060 131.172  0.00  0.00    +0.000 C 
ATOM     25  O   UNL     1      -9.682   1.495 131.954  0.00  0.00    +0.000 OA
ATOM     26  C   UNL     1      -8.292  -0.770 130.993  0.00  0.00    +0.000 C 
ATOM     27  C   UNL     1      -7.704  -1.274 129.759  0.00  0.00    +0.000 C 
ENDROOT
TORSDOF 0
ENDMDL
MODEL 4
REMARK VINA RESULT:      -8.8      2.823      5.650
REMARK  Name = Drospirenone
REMARK  2 active torsions:
REMARK  status: ('A' for Active; 'I' for Inactive)
REMARK    1  A    between atoms: C_21  and  C_22
REMARK    2  A    between atoms: C_27  and  C_28
REMARK                            x       y       z     vdW  Elec       q    Type
REMARK                         _______ _______ _______ _____ _____    ______ ____
ROOT
ATOM      1  C   UNL     1      -9.491   2.071 124.076  0.00  0.00    +0.000 C 
ATOM      2  C   UNL     1      -8.970   1.173 122.895  0.00  0.00    +0.000 C 
ATOM      3  C   UNL     1      -9.365   0.485 124.136  0.00  0.00    +0.000 C 
ATOM      4  C   UNL     1      -8.301  -0.206 124.923  0.00  0.00    +0.000 C 
ATOM      5  C   UNL     1      -7.610  -1.418 124.283  0.00  0.00    +0.000 C 
ATOM      6  C   UNL     1      -8.539  -2.572 124.291  0.00  0.00    +0.000 C 
ATOM      7  C   UNL     1      -8.252  -4.020 124.722  0.00  0.00    +0.000 C 
ATOM      8  C   UNL     1      -8.643  -3.025 125.738  0.00  0.00    +0.000 C 
ATOM      9  C   UNL     1      -7.329  -2.352 126.552  0.00  0.00    +0.000 C 
ATOM     10  C   UNL     1      -6.240  -2.912 127.479  0.00  0.00    +0.000 C 
ATOM     11  C   UNL     1      -6.614  -2.607 128.908  0.00  0.00    +0.000 C 
ATOM     12  C   UNL     1      -7.445  -1.394 128.725  0.00  0.00    +0.000 C 
ATOM     13  O   UNL     1      -7.695  -0.578 129.598  0.00  0.00    +0.000 OA
ATOM     14  O   UNL     1      -7.888  -1.333 127.429  0.00  0.00    +0.000 OA
ATOM     15  C   UNL     1      -6.481  -1.914 125.206  0.00  0.00    +0.000 C 
ATOM     16  C   UNL     1      -5.656  -3.026 124.488  0.00  0.00    +0.000 C 
ATOM     17  C   UNL     1      -5.422  -0.864 125.372  0.00  0.00    +0.000 C 
ATOM     18  C   UNL     1      -6.004   0.295 126.036  0.00  0.00    +0.000 C 
ATOM     19  C   UNL     1      -7.233   0.766 125.285  0.00  0.00    +0.000 C 
ATOM     20  C   UNL     1      -7.933   1.837 126.047  0.00  0.00    +0.000 C 
ATOM     21  C   UNL     1      -8.659   1.584 127.367  0.00  0.00    +0.000 C 
ATOM     22  C   UNL     1      -6.857   2.654 126.440  0.00  0.00    +0.000 C 
ATOM     23  C   UNL     1      -5.765   3.123 127.173  0.00  0.00    +0.000 C 
ATOM     24  C   UNL     1      -6.245   4.456 126.231  0.00  0.00    +0.000 C 
ATOM     25  O   UNL     1      -5.455   5.338 126.145  0.00  0.00    +0.000 OA
ATOM     26  C   UNL     1      -7.841   4.183 125.167  0.00  0.00    +0.000 C 
ATOM     27  C   UNL     1      -8.477   2.878 125.044  0.00  0.00    +0.000 C 
ENDROOT
TORSDOF 0
ENDMDL
MODEL 5
REMARK VINA RESULT:      -8.6      2.357      6.230
REMARK  Name = Drospirenone
REMARK  2 active torsions:
REMARK  status: ('A' for Active; 'I' for Inactive)
REMARK    1  A    between atoms: C_21  and  C_22
REMARK    2  A    between atoms: C_27  and  C_28
REMARK                            x       y       z     vdW  Elec       q    Type
REMARK                         _______ _______ _______ _____ _____    ______ ____
ROOT
ATOM      1  C   UNL     1      -6.858   1.186 129.976  0.00  0.00    +0.000 C 
ATOM      2  C   UNL     1      -6.609   2.324 128.919  0.00  0.00    +0.000 C 
ATOM      3  C   UNL     1      -7.714   1.388 128.648  0.00  0.00    +0.000 C 
ATOM      4  C   UNL     1      -7.590   0.481 127.469  0.00  0.00    +0.000 C 
ATOM      5  C   UNL     1      -7.577   1.119 126.073  0.00  0.00    +0.000 C 
ATOM      6  C   UNL     1      -8.944   1.580 125.732  0.00  0.00    +0.000 C 
ATOM      7  C   UNL     1      -9.721   1.361 124.423  0.00  0.00    +0.000 C 
ATOM      8  C   UNL     1      -9.762   0.326 125.473  0.00  0.00    +0.000 C 
ATOM      9  C   UNL     1      -8.663  -0.926 125.217  0.00  0.00    +0.000 C 
ATOM     10  C   UNL     1      -8.491  -1.997 124.129  0.00  0.00    +0.000 C 
ATOM     11  C   UNL     1      -9.059  -3.300 124.634  0.00  0.00    +0.000 C 
ATOM     12  C   UNL     1      -8.905  -3.122 126.097  0.00  0.00    +0.000 C 
ATOM     13  O   UNL     1      -8.900  -4.029 126.915  0.00  0.00    +0.000 OA
ATOM     14  O   UNL     1      -8.770  -1.790 126.386  0.00  0.00    +0.000 OA
ATOM     15  C   UNL     1      -7.336   0.030 125.011  0.00  0.00    +0.000 C 
ATOM     16  C   UNL     1      -7.139   0.687 123.610  0.00  0.00    +0.000 C 
ATOM     17  C   UNL     1      -5.991  -0.611 125.193  0.00  0.00    +0.000 C 
ATOM     18  C   UNL     1      -5.962  -1.291 126.481  0.00  0.00    +0.000 C 
ATOM     19  C   UNL     1      -6.349  -0.332 127.589  0.00  0.00    +0.000 C 
ATOM     20  C   UNL     1      -6.492  -1.057 128.882  0.00  0.00    +0.000 C 
ATOM     21  C   UNL     1      -7.612  -2.058 129.159  0.00  0.00    +0.000 C 
ATOM     22  C   UNL     1      -5.346  -1.875 128.877  0.00  0.00    +0.000 C 
ATOM     23  C   UNL     1      -4.504  -2.952 128.594  0.00  0.00    +0.000 C 
ATOM     24  C   UNL     1      -3.769  -2.177 129.918  0.00  0.00    +0.000 C 
ATOM     25  O   UNL     1      -2.638  -2.476 130.127  0.00  0.00    +0.000 OA
ATOM     26  C   UNL     1      -4.760  -0.685 130.657  0.00  0.00    +0.000 C 
ATOM     27  C   UNL     1      -5.954  -0.154 130.014  0.00  0.00    +0.000 C 
ENDROOT
TORSDOF 0
ENDMDL
MODEL 6
REMARK VINA RESULT:      -8.5      6.062      8.332
REMARK  Name = Drospirenone
REMARK  2 active torsions:
REMARK  status: ('A' for Active; 'I' for Inactive)
REMARK    1  A    between atoms: C_21  and  C_22
REMARK    2  A    between atoms: C_27  and  C_28
REMARK                            x       y       z     vdW  Elec       q    Type
REMARK                         _______ _______ _______ _____ _____    ______ ____
ROOT
ATOM      1  C   UNL     1      -8.184   5.726 134.089  0.00  0.00    +0.000 C 
ATOM      2  C   UNL     1      -7.796   4.307 134.644  0.00  0.00    +0.000 C 
ATOM      3  C   UNL     1      -6.718   5.107 134.038  0.00  0.00    +0.000 C 
ATOM      4  C   UNL     1      -6.102   4.609 132.772  0.00  0.00    +0.000 C 
ATOM      5  C   UNL     1      -5.310   3.296 132.831  0.00  0.00    +0.000 C 
ATOM      6  C   UNL     1      -4.016   3.533 133.514  0.00  0.00    +0.000 C 
ATOM      7  C   UNL     1      -2.613   3.083 133.073  0.00  0.00    +0.000 C 
ATOM      8  C   UNL     1      -3.168   4.344 132.547  0.00  0.00    +0.000 C 
ATOM      9  C   UNL     1      -3.874   4.177 131.025  0.00  0.00    +0.000 C 
ATOM     10  C   UNL     1      -3.346   3.796 129.633  0.00  0.00    +0.000 C 
ATOM     11  C   UNL     1      -3.148   5.054 128.827  0.00  0.00    +0.000 C 
ATOM     12  C   UNL     1      -4.137   5.954 129.467  0.00  0.00    +0.000 C 
ATOM     13  O   UNL     1      -4.597   6.964 128.958  0.00  0.00    +0.000 OA
ATOM     14  O   UNL     1      -4.451   5.478 130.713  0.00  0.00    +0.000 OA
ATOM     15  C   UNL     1      -4.852   2.907 131.412  0.00  0.00    +0.000 C 
ATOM     16  C   UNL     1      -4.206   1.487 131.432  0.00  0.00    +0.000 C 
ATOM     17  C   UNL     1      -6.031   2.649 130.519  0.00  0.00    +0.000 C 
ATOM     18  C   UNL     1      -6.792   3.883 130.372  0.00  0.00    +0.000 C 
ATOM     19  C   UNL     1      -7.155   4.439 131.734  0.00  0.00    +0.000 C 
ATOM     20  C   UNL     1      -7.779   5.785 131.600  0.00  0.00    +0.000 C 
ATOM     21  C   UNL     1      -7.009   7.020 131.139  0.00  0.00    +0.000 C 
ATOM     22  C   UNL     1      -8.682   5.574 130.540  0.00  0.00    +0.000 C 
ATOM     23  C   UNL     1      -9.168   5.438 129.239  0.00  0.00    +0.000 C 
ATOM     24  C   UNL     1     -10.561   5.664 130.189  0.00  0.00    +0.000 C 
ATOM     25  O   UNL     1     -11.590   5.376 129.671  0.00  0.00    +0.000 OA
ATOM     26  C   UNL     1     -10.232   6.014 132.066  0.00  0.00    +0.000 C 
ATOM     27  C   UNL     1      -8.903   5.912 132.652  0.00  0.00    +0.000 C 
ENDROOT
TORSDOF 0
ENDMDL
MODEL 7
REMARK VINA RESULT:      -8.3      2.286      2.999
REMARK  Name = Drospirenone
REMARK  2 active torsions:
REMARK  status: ('A' for Active; 'I' for Inactive)
REMARK    1  A    between atoms: C_21  and  C_22
REMARK    2  A    between atoms: C_27  and  C_28
REMARK                            x       y       z     vdW  Elec       q    Type
REMARK                         _______ _______ _______ _____ _____    ______ ____
ROOT
ATOM      1  C   UNL     1      -9.006  -2.243 124.578  0.00  0.00    +0.000 C 
ATOM      2  C   UNL     1      -7.960  -3.345 124.984  0.00  0.00    +0.000 C 
ATOM      3  C   UNL     1      -8.676  -2.666 126.077  0.00  0.00    +0.000 C 
ATOM      4  C   UNL     1      -7.885  -1.798 127.000  0.00  0.00    +0.000 C 
ATOM      5  C   UNL     1      -6.835  -2.473 127.893  0.00  0.00    +0.000 C 
ATOM      6  C   UNL     1      -7.518  -3.217 128.977  0.00  0.00    +0.000 C 
ATOM      7  C   UNL     1      -7.197  -3.211 130.481  0.00  0.00    +0.000 C 
ATOM      8  C   UNL     1      -8.077  -2.167 129.925  0.00  0.00    +0.000 C 
ATOM      9  C   UNL     1      -7.269  -0.727 129.584  0.00  0.00    +0.000 C 
ATOM     10  C   UNL     1      -6.527   0.314 130.435  0.00  0.00    +0.000 C 
ATOM     11  C   UNL     1      -7.440   1.491 130.670  0.00  0.00    +0.000 C 
ATOM     12  C   UNL     1      -8.317   1.405 129.479  0.00  0.00    +0.000 C 
ATOM     13  O   UNL     1      -8.989   2.324 129.037  0.00  0.00    +0.000 OA
ATOM     14  O   UNL     1      -8.257   0.140 128.956  0.00  0.00    +0.000 OA
ATOM     15  C   UNL     1      -6.063  -1.400 128.683  0.00  0.00    +0.000 C 
ATOM     16  C   UNL     1      -4.876  -2.055 129.453  0.00  0.00    +0.000 C 
ATOM     17  C   UNL     1      -5.308  -0.490 127.757  0.00  0.00    +0.000 C 
ATOM     18  C   UNL     1      -6.259   0.230 126.921  0.00  0.00    +0.000 C 
ATOM     19  C   UNL     1      -7.182  -0.744 126.219  0.00  0.00    +0.000 C 
ATOM     20  C   UNL     1      -8.264  -0.015 125.501  0.00  0.00    +0.000 C 
ATOM     21  C   UNL     1      -9.377   0.745 126.220  0.00  0.00    +0.000 C 
ATOM     22  C   UNL     1      -7.543   1.018 124.874  0.00  0.00    +0.000 C 
ATOM     23  C   UNL     1      -6.879   2.234 124.697  0.00  0.00    +0.000 C 
ATOM     24  C   UNL     1      -7.172   1.677 123.116  0.00  0.00    +0.000 C 
ATOM     25  O   UNL     1      -6.546   2.208 122.258  0.00  0.00    +0.000 OA
ATOM     26  C   UNL     1      -8.207   0.043 122.995  0.00  0.00    +0.000 C 
ATOM     27  C   UNL     1      -8.550  -0.746 124.171  0.00  0.00    +0.000 C 
ENDROOT
TORSDOF 0
ENDMDL
MODEL 8
REMARK VINA RESULT:      -8.2      5.466      8.309
REMARK  Name = Drospirenone
REMARK  2 active torsions:
REMARK  status: ('A' for Active; 'I' for Inactive)
REMARK    1  A    between atoms: C_21  and  C_22
REMARK    2  A    between atoms: C_27  and  C_28
REMARK                            x       y       z     vdW  Elec       q    Type
REMARK                         _______ _______ _______ _____ _____    ______ ____
ROOT
ATOM      1  C   UNL     1      -3.580   6.907 130.709  0.00  0.00    +0.000 C 
ATOM      2  C   UNL     1      -4.789   7.844 130.342  0.00  0.00    +0.000 C 
ATOM      3  C   UNL     1      -5.035   6.793 131.345  0.00  0.00    +0.000 C 
ATOM      4  C   UNL     1      -5.981   5.694 130.989  0.00  0.00    +0.000 C 
ATOM      5  C   UNL     1      -7.457   6.060 130.779  0.00  0.00    +0.000 C 
ATOM      6  C   UNL     1      -8.084   6.344 132.091  0.00  0.00    +0.000 C 
ATOM      7  C   UNL     1      -9.426   5.827 132.634  0.00  0.00    +0.000 C 
ATOM      8  C   UNL     1      -8.213   5.005 132.798  0.00  0.00    +0.000 C 
ATOM      9  C   UNL     1      -8.049   3.814 131.617  0.00  0.00    +0.000 C 
ATOM     10  C   UNL     1      -8.867   2.576 131.221  0.00  0.00    +0.000 C 
ATOM     11  C   UNL     1      -8.209   1.351 131.805  0.00  0.00    +0.000 C 
ATOM     12  C   UNL     1      -6.803   1.809 131.898  0.00  0.00    +0.000 C 
ATOM     13  O   UNL     1      -5.832   1.074 131.986  0.00  0.00    +0.000 OA
ATOM     14  O   UNL     1      -6.764   3.178 131.873  0.00  0.00    +0.000 OA
ATOM     15  C   UNL     1      -8.236   4.814 130.318  0.00  0.00    +0.000 C 
ATOM     16  C   UNL     1      -9.692   5.211 129.926  0.00  0.00    +0.000 C 
ATOM     17  C   UNL     1      -7.730   4.322 128.994  0.00  0.00    +0.000 C 
ATOM     18  C   UNL     1      -6.345   3.897 129.144  0.00  0.00    +0.000 C 
ATOM     19  C   UNL     1      -5.518   5.013 129.749  0.00  0.00    +0.000 C 
ATOM     20  C   UNL     1      -4.144   4.533 130.067  0.00  0.00    +0.000 C 
ATOM     21  C   UNL     1      -3.849   3.520 131.172  0.00  0.00    +0.000 C 
ATOM     22  C   UNL     1      -3.816   3.819 128.900  0.00  0.00    +0.000 C 
ATOM     23  C   UNL     1      -3.752   2.775 127.976  0.00  0.00    +0.000 C 
ATOM     24  C   UNL     1      -2.509   3.836 127.502  0.00  0.00    +0.000 C 
ATOM     25  O   UNL     1      -2.078   3.668 126.408  0.00  0.00    +0.000 OA
ATOM     26  C   UNL     1      -2.236   5.360 128.666  0.00  0.00    +0.000 C 
ATOM     27  C   UNL     1      -3.144   5.670 129.763  0.00  0.00    +0.000 C 
ENDROOT
TORSDOF 0
ENDMDL
MODEL 9
REMARK VINA RESULT:      -8.1      5.048      8.138
REMARK  Name = Drospirenone
REMARK  2 active torsions:
REMARK  status: ('A' for Active; 'I' for Inactive)
REMARK    1  A    between atoms: C_21  and  C_22
REMARK    2  A    between atoms: C_27  and  C_28
REMARK                            x       y       z     vdW  Elec       q    Type
REMARK                         _______ _______ _______ _____ _____    ______ ____
ROOT
ATOM      1  C   UNL     1      -8.790   5.350 132.578  0.00  0.00    +0.000 C 
ATOM      2  C   UNL     1      -7.646   5.696 133.600  0.00  0.00    +0.000 C 
ATOM      3  C   UNL     1      -7.437   6.097 132.198  0.00  0.00    +0.000 C 
ATOM      4  C   UNL     1      -6.340   5.431 131.435  0.00  0.00    +0.000 C 
ATOM      5  C   UNL     1      -4.896   5.684 131.889  0.00  0.00    +0.000 C 
ATOM      6  C   UNL     1      -4.496   7.058 131.507  0.00  0.00    +0.000 C 
ATOM      7  C   UNL     1      -3.198   7.513 130.819  0.00  0.00    +0.000 C 
ATOM      8  C   UNL     1      -4.329   7.048 129.996  0.00  0.00    +0.000 C 
ATOM      9  C   UNL     1      -4.198   5.433 129.534  0.00  0.00    +0.000 C 
ATOM     10  C   UNL     1      -3.207   4.642 128.666  0.00  0.00    +0.000 C 
ATOM     11  C   UNL     1      -3.810   4.442 127.299  0.00  0.00    +0.000 C 
ATOM     12  C   UNL     1      -5.255   4.495 127.622  0.00  0.00    +0.000 C 
ATOM     13  O   UNL     1      -6.147   4.047 126.918  0.00  0.00    +0.000 OA
ATOM     14  O   UNL     1      -5.433   5.123 128.827  0.00  0.00    +0.000 OA
ATOM     15  C   UNL     1      -3.933   4.828 131.045  0.00  0.00    +0.000 C 
ATOM     16  C   UNL     1      -2.485   4.936 131.615  0.00  0.00    +0.000 C 
ATOM     17  C   UNL     1      -4.191   3.364 131.255  0.00  0.00    +0.000 C 
ATOM     18  C   UNL     1      -5.532   3.047 130.781  0.00  0.00    +0.000 C 
ATOM     19  C   UNL     1      -6.548   3.957 131.440  0.00  0.00    +0.000 C 
ATOM     20  C   UNL     1      -7.895   3.760 130.836  0.00  0.00    +0.000 C 
ATOM     21  C   UNL     1      -8.238   4.172 129.406  0.00  0.00    +0.000 C 
ATOM     22  C   UNL     1      -7.978   2.356 130.778  0.00  0.00    +0.000 C 
ATOM     23  C   UNL     1      -7.800   1.049 130.320  0.00  0.00    +0.000 C 
ATOM     24  C   UNL     1      -9.066   0.932 131.451  0.00  0.00    +0.000 C 
ATOM     25  O   UNL     1      -9.317  -0.164 131.831  0.00  0.00    +0.000 OA
ATOM     26  C   UNL     1      -9.660   2.616 132.202  0.00  0.00    +0.000 C 
ATOM     27  C   UNL     1      -8.956   3.867 131.954  0.00  0.00    +0.000 C 
ENDROOT
TORSDOF 0
ENDMDL
