MODEL 1
REMARK VINA RESULT:      -7.7      0.000      0.000
REMARK  Name = Drotaverine
REMARK  13 active torsions:
REMARK  status: ('A' for Active; 'I' for Inactive)
REMARK    1  A    between atoms: C_1  and  C_2
REMARK    2  A    between atoms: C_2  and  O_3
REMARK    3  A    between atoms: O_3  and  C_4
REMARK    4  A    between atoms: C_5  and  O_6
REMARK    5  A    between atoms: O_6  and  C_7
REMARK    6  A    between atoms: C_7  and  C_8
REMARK    7  A    between atoms: C_10  and  C_11
REMARK    8  A    between atoms: C_18  and  O_19
REMARK    9  A    between atoms: O_19  and  C_20
REMARK   10  A    between atoms: C_20  and  C_21
REMARK   11  A    between atoms: C_22  and  O_23
REMARK   12  A    between atoms: O_23  and  C_24
REMARK   13  A    between atoms: C_24  and  C_25
REMARK                            x       y       z     vdW  Elec       q    Type
REMARK                         _______ _______ _______ _____ _____    ______ ____
ROOT
ATOM      1  C   UNL     1      -9.395   4.898 132.356  0.00  0.00    +0.000 C 
ATOM      2  C   UNL     1      -8.520   3.525 132.305  0.00  0.00    +0.000 C 
ATOM      3  N   UNL     1      -9.524   3.334 131.295  0.00  0.00    +0.000 N 
ATOM      4  C   UNL     1      -9.402   2.028 130.984  0.00  0.00    +0.000 C 
ATOM      5  C   UNL     1      -8.214   2.350 129.965  0.00  0.00    +0.000 C 
ATOM      6  C   UNL     1      -7.584   1.330 130.683  0.00  0.00    +0.000 A 
ATOM      7  C   UNL     1      -7.906  -0.088 129.948  0.00  0.00    +0.000 A 
ATOM      8  C   UNL     1      -7.603  -1.341 130.397  0.00  0.00    +0.000 A 
ATOM      9  C   UNL     1      -6.650  -1.171 131.364  0.00  0.00    +0.000 A 
ATOM     10  C   UNL     1      -6.577   0.406 132.132  0.00  0.00    +0.000 A 
ATOM     11  C   UNL     1      -7.185   1.959 131.935  0.00  0.00    +0.000 A 
ATOM     12  H   UNL     1      -9.229   3.902 130.488  0.00  0.00    +0.000 HD
ENDROOT
BRANCH   1  16
ATOM     13  C   UNL     1     -12.161   7.969 129.947  0.00  0.00    +0.000 A 
ATOM     14  C   UNL     1     -10.931   7.923 129.297  0.00  0.00    +0.000 A 
ATOM     15  C   UNL     1      -9.825   7.040 129.925  0.00  0.00    +0.000 A 
ATOM     16  C   UNL     1     -10.018   6.239 131.226  0.00  0.00    +0.000 A 
ATOM     17  C   UNL     1     -11.246   6.560 131.718  0.00  0.00    +0.000 A 
ATOM     18  C   UNL     1     -12.242   7.361 131.171  0.00  0.00    +0.000 A 
BRANCH  13  19
ATOM     19  O   UNL     1     -13.336   8.381 129.374  0.00  0.00    +0.000 OA
BRANCH  19  21
ATOM     20  C   UNL     1     -13.426  10.667 130.037  0.00  0.00    +0.000 C 
ATOM     21  C   UNL     1     -13.334   9.716 128.861  0.00  0.00    +0.000 C 
ENDBRANCH  19  21
ENDBRANCH  13  19
BRANCH  14  22
ATOM     22  O   UNL     1     -10.743   8.650 128.097  0.00  0.00    +0.000 OA
BRANCH  22  23
ATOM     23  C   UNL     1     -10.630   7.873 126.842  0.00  0.00    +0.000 C 
ATOM     24  C   UNL     1     -11.942   7.245 126.388  0.00  0.00    +0.000 C 
ENDBRANCH  22  23
ENDBRANCH  14  22
ENDBRANCH   1  16
BRANCH   8  25
ATOM     25  O   UNL     1      -8.221  -2.442 129.866  0.00  0.00    +0.000 OA
BRANCH  25  26
ATOM     26  C   UNL     1      -7.919  -2.872 128.514  0.00  0.00    +0.000 C 
ATOM     27  C   UNL     1      -8.860  -3.981 128.036  0.00  0.00    +0.000 C 
ENDBRANCH  25  26
ENDBRANCH   8  25
BRANCH   9  28
ATOM     28  O   UNL     1      -5.870  -2.373 131.314  0.00  0.00    +0.000 OA
BRANCH  28  29
ATOM     29  C   UNL     1      -5.810  -3.679 131.935  0.00  0.00    +0.000 C 
ATOM     30  C   UNL     1      -5.388  -4.965 131.080  0.00  0.00    +0.000 C 
ENDBRANCH  28  29
ENDBRANCH   9  28
TORSDOF 9
ENDMDL
MODEL 2
REMARK VINA RESULT:      -7.2      6.750      9.465
REMARK  Name = Drotaverine
REMARK  13 active torsions:
REMARK  status: ('A' for Active; 'I' for Inactive)
REMARK    1  A    between atoms: C_1  and  C_2
REMARK    2  A    between atoms: C_2  and  O_3
REMARK    3  A    between atoms: O_3  and  C_4
REMARK    4  A    between atoms: C_5  and  O_6
REMARK    5  A    between atoms: O_6  and  C_7
REMARK    6  A    between atoms: C_7  and  C_8
REMARK    7  A    between atoms: C_10  and  C_11
REMARK    8  A    between atoms: C_18  and  O_19
REMARK    9  A    between atoms: O_19  and  C_20
REMARK   10  A    between atoms: C_20  and  C_21
REMARK   11  A    between atoms: C_22  and  O_23
REMARK   12  A    between atoms: O_23  and  C_24
REMARK   13  A    between atoms: C_24  and  C_25
REMARK                            x       y       z     vdW  Elec       q    Type
REMARK                         _______ _______ _______ _____ _____    ______ ____
ROOT
ATOM      1  C   UNL     1      -3.066   3.903 127.318  0.00  0.00    +0.000 C 
ATOM      2  C   UNL     1      -4.033   3.886 126.008  0.00  0.00    +0.000 C 
ATOM      3  N   UNL     1      -4.869   3.381 127.063  0.00  0.00    +0.000 N 
ATOM      4  C   UNL     1      -5.946   2.912 126.403  0.00  0.00    +0.000 C 
ATOM      5  C   UNL     1      -6.600   4.370 126.371  0.00  0.00    +0.000 C 
ATOM      6  C   UNL     1      -6.736   4.065 125.014  0.00  0.00    +0.000 A 
ATOM      7  C   UNL     1      -8.183   3.350 124.793  0.00  0.00    +0.000 A 
ATOM      8  C   UNL     1      -8.655   2.769 123.651  0.00  0.00    +0.000 A 
ATOM      9  C   UNL     1      -7.863   3.239 122.639  0.00  0.00    +0.000 A 
ATOM     10  C   UNL     1      -6.274   3.832 123.090  0.00  0.00    +0.000 A 
ATOM     11  C   UNL     1      -5.399   4.240 124.464  0.00  0.00    +0.000 A 
ATOM     12  H   UNL     1      -5.146   4.199 127.623  0.00  0.00    +0.000 HD
ENDROOT
BRANCH   1  16
ATOM     13  C   UNL     1      -1.938   6.164 131.380  0.00  0.00    +0.000 A 
ATOM     14  C   UNL     1      -2.802   5.125 131.712  0.00  0.00    +0.000 A 
ATOM     15  C   UNL     1      -3.370   4.272 130.552  0.00  0.00    +0.000 A 
ATOM     16  C   UNL     1      -3.041   4.531 129.070  0.00  0.00    +0.000 A 
ATOM     17  C   UNL     1      -2.294   5.667 129.017  0.00  0.00    +0.000 A 
ATOM     18  C   UNL     1      -1.788   6.449 130.050  0.00  0.00    +0.000 A 
BRANCH  13  19
ATOM     19  O   UNL     1      -1.073   6.774 132.252  0.00  0.00    +0.000 OA
BRANCH  19  21
ATOM     20  C   UNL     1      -0.230   8.697 133.377  0.00  0.00    +0.000 C 
ATOM     21  C   UNL     1      -1.383   8.134 132.573  0.00  0.00    +0.000 C 
ENDBRANCH  19  21
ENDBRANCH  13  19
BRANCH  14  22
ATOM     22  O   UNL     1      -3.107   4.871 133.071  0.00  0.00    +0.000 OA
BRANCH  22  23
ATOM     23  C   UNL     1      -3.949   5.863 133.776  0.00  0.00    +0.000 C 
ATOM     24  C   UNL     1      -5.436   5.735 133.470  0.00  0.00    +0.000 C 
ENDBRANCH  22  23
ENDBRANCH  14  22
ENDBRANCH   1  16
BRANCH   8  25
ATOM     25  O   UNL     1      -9.724   1.915 123.691  0.00  0.00    +0.000 OA
BRANCH  25  26
ATOM     26  C   UNL     1      -9.522   0.495 123.911  0.00  0.00    +0.000 C 
ATOM     27  C   UNL     1      -9.468   0.142 125.400  0.00  0.00    +0.000 C 
ENDBRANCH  25  26
ENDBRANCH   8  25
BRANCH   9  28
ATOM     28  O   UNL     1      -8.715   3.236 121.486  0.00  0.00    +0.000 OA
BRANCH  28  29
ATOM     29  C   UNL     1      -8.879   3.936 120.230  0.00  0.00    +0.000 C 
ATOM     30  C   UNL     1      -7.606   4.290 119.326  0.00  0.00    +0.000 C 
ENDBRANCH  28  29
ENDBRANCH   9  28
TORSDOF 9
ENDMDL
MODEL 3
REMARK VINA RESULT:      -7.2      6.374     10.009
REMARK  Name = Drotaverine
REMARK  13 active torsions:
REMARK  status: ('A' for Active; 'I' for Inactive)
REMARK    1  A    between atoms: C_1  and  C_2
REMARK    2  A    between atoms: C_2  and  O_3
REMARK    3  A    between atoms: O_3  and  C_4
REMARK    4  A    between atoms: C_5  and  O_6
REMARK    5  A    between atoms: O_6  and  C_7
REMARK    6  A    between atoms: C_7  and  C_8
REMARK    7  A    between atoms: C_10  and  C_11
REMARK    8  A    between atoms: C_18  and  O_19
REMARK    9  A    between atoms: O_19  and  C_20
REMARK   10  A    between atoms: C_20  and  C_21
REMARK   11  A    between atoms: C_22  and  O_23
REMARK   12  A    between atoms: O_23  and  C_24
REMARK   13  A    between atoms: C_24  and  C_25
REMARK                            x       y       z     vdW  Elec       q    Type
REMARK                         _______ _______ _______ _____ _____    ______ ____
ROOT
ATOM      1  C   UNL     1      -5.169   3.607 125.624  0.00  0.00    +0.000 C 
ATOM      2  C   UNL     1      -4.255   4.419 126.699  0.00  0.00    +0.000 C 
ATOM      3  N   UNL     1      -5.226   3.740 127.512  0.00  0.00    +0.000 N 
ATOM      4  C   UNL     1      -5.059   4.304 128.725  0.00  0.00    +0.000 C 
ATOM      5  C   UNL     1      -3.854   3.309 129.056  0.00  0.00    +0.000 C 
ATOM      6  C   UNL     1      -3.215   4.506 129.389  0.00  0.00    +0.000 A 
ATOM      7  C   UNL     1      -3.477   4.805 130.969  0.00  0.00    +0.000 A 
ATOM      8  C   UNL     1      -3.152   5.934 131.664  0.00  0.00    +0.000 A 
ATOM      9  C   UNL     1      -2.230   6.593 130.896  0.00  0.00    +0.000 A 
ATOM     10  C   UNL     1      -2.222   6.221 129.180  0.00  0.00    +0.000 A 
ATOM     11  C   UNL     1      -2.867   5.103 128.106  0.00  0.00    +0.000 A 
ATOM     12  H   UNL     1      -4.924   2.756 127.554  0.00  0.00    +0.000 HD
ENDROOT
BRANCH   1  16
ATOM     13  C   UNL     1      -7.866  -0.150 124.399  0.00  0.00    +0.000 A 
ATOM     14  C   UNL     1      -6.822  -0.629 125.186  0.00  0.00    +0.000 A 
ATOM     15  C   UNL     1      -5.761   0.393 125.662  0.00  0.00    +0.000 A 
ATOM     16  C   UNL     1      -5.798   1.887 125.292  0.00  0.00    +0.000 A 
ATOM     17  C   UNL     1      -6.830   2.060 124.422  0.00  0.00    +0.000 A 
ATOM     18  C   UNL     1      -7.782   1.149 123.977  0.00  0.00    +0.000 A 
BRANCH  13  19
ATOM     19  O   UNL     1      -9.056  -0.799 124.196  0.00  0.00    +0.000 OA
BRANCH  19  21
ATOM     20  C   UNL     1      -9.374  -3.024 123.405  0.00  0.00    +0.000 C 
ATOM     21  C   UNL     1      -9.131  -1.584 123.002  0.00  0.00    +0.000 C 
ENDBRANCH  19  21
ENDBRANCH  13  19
BRANCH  14  22
ATOM     22  O   UNL     1      -6.779  -2.000 125.539  0.00  0.00    +0.000 OA
BRANCH  22  23
ATOM     23  C   UNL     1      -5.633  -2.794 125.042  0.00  0.00    +0.000 C 
ATOM     24  C   UNL     1      -5.510  -2.811 123.523  0.00  0.00    +0.000 C 
ENDBRANCH  22  23
ENDBRANCH  14  22
ENDBRANCH   1  16
BRANCH   8  25
ATOM     25  O   UNL     1      -3.725   6.195 132.880  0.00  0.00    +0.000 OA
BRANCH  25  26
ATOM     26  C   UNL     1      -4.412   5.145 133.608  0.00  0.00    +0.000 C 
ATOM     27  C   UNL     1      -5.861   5.517 133.929  0.00  0.00    +0.000 C 
ENDBRANCH  25  26
ENDBRANCH   8  25
BRANCH   9  28
ATOM     28  O   UNL     1      -1.417   7.300 131.840  0.00  0.00    +0.000 OA
BRANCH  28  29
ATOM     29  C   UNL     1      -0.297   7.069 132.728  0.00  0.00    +0.000 C 
ATOM     30  C   UNL     1       0.137   8.183 133.794  0.00  0.00    +0.000 C 
ENDBRANCH  28  29
ENDBRANCH   9  28
TORSDOF 9
ENDMDL
MODEL 4
REMARK VINA RESULT:      -7.1      6.391     10.544
REMARK  Name = Drotaverine
REMARK  13 active torsions:
REMARK  status: ('A' for Active; 'I' for Inactive)
REMARK    1  A    between atoms: C_1  and  C_2
REMARK    2  A    between atoms: C_2  and  O_3
REMARK    3  A    between atoms: O_3  and  C_4
REMARK    4  A    between atoms: C_5  and  O_6
REMARK    5  A    between atoms: O_6  and  C_7
REMARK    6  A    between atoms: C_7  and  C_8
REMARK    7  A    between atoms: C_10  and  C_11
REMARK    8  A    between atoms: C_18  and  O_19
REMARK    9  A    between atoms: O_19  and  C_20
REMARK   10  A    between atoms: C_20  and  C_21
REMARK   11  A    between atoms: C_22  and  O_23
REMARK   12  A    between atoms: O_23  and  C_24
REMARK   13  A    between atoms: C_24  and  C_25
REMARK                            x       y       z     vdW  Elec       q    Type
REMARK                         _______ _______ _______ _____ _____    ______ ____
ROOT
ATOM      1  C   UNL     1      -5.884   2.395 125.598  0.00  0.00    +0.000 C 
ATOM      2  C   UNL     1      -4.879   3.303 126.502  0.00  0.00    +0.000 C 
ATOM      3  N   UNL     1      -5.775   2.717 127.461  0.00  0.00    +0.000 N 
ATOM      4  C   UNL     1      -5.502   3.398 128.592  0.00  0.00    +0.000 C 
ATOM      5  C   UNL     1      -4.272   2.430 128.915  0.00  0.00    +0.000 C 
ATOM      6  C   UNL     1      -3.607   3.650 129.069  0.00  0.00    +0.000 A 
ATOM      7  C   UNL     1      -3.730   4.107 130.628  0.00  0.00    +0.000 A 
ATOM      8  C   UNL     1      -3.345   5.297 131.175  0.00  0.00    +0.000 A 
ATOM      9  C   UNL     1      -2.494   5.868 130.267  0.00  0.00    +0.000 A 
ATOM     10  C   UNL     1      -2.637   5.326 128.603  0.00  0.00    +0.000 A 
ATOM     11  C   UNL     1      -3.374   4.112 127.707  0.00  0.00    +0.000 A 
ATOM     12  H   UNL     1      -5.471   1.740 127.575  0.00  0.00    +0.000 HD
ENDROOT
BRANCH   1  16
ATOM     13  C   UNL     1      -6.348  -2.314 124.894  0.00  0.00    +0.000 A 
ATOM     14  C   UNL     1      -7.631  -1.782 124.994  0.00  0.00    +0.000 A 
ATOM     15  C   UNL     1      -7.754  -0.268 125.291  0.00  0.00    +0.000 A 
ATOM     16  C   UNL     1      -6.540   0.657 125.497  0.00  0.00    +0.000 A 
ATOM     17  C   UNL     1      -5.429  -0.130 125.478  0.00  0.00    +0.000 A 
ATOM     18  C   UNL     1      -5.305  -1.491 125.225  0.00  0.00    +0.000 A 
BRANCH  13  19
ATOM     19  O   UNL     1      -6.038  -3.507 124.294  0.00  0.00    +0.000 OA
BRANCH  19  21
ATOM     20  C   UNL     1      -4.264  -4.890 123.510  0.00  0.00    +0.000 C 
ATOM     21  C   UNL     1      -4.860  -3.498 123.482  0.00  0.00    +0.000 C 
ENDBRANCH  19  21
ENDBRANCH  13  19
BRANCH  14  22
ATOM     22  O   UNL     1      -8.755  -2.620 124.801  0.00  0.00    +0.000 OA
BRANCH  22  23
ATOM     23  C   UNL     1      -9.549  -2.980 125.997  0.00  0.00    +0.000 C 
ATOM     24  C   UNL     1      -8.704  -3.434 127.181  0.00  0.00    +0.000 C 
ENDBRANCH  22  23
ENDBRANCH  14  22
ENDBRANCH   1  16
BRANCH   8  25
ATOM     25  O   UNL     1      -3.809   5.683 132.404  0.00  0.00    +0.000 OA
BRANCH  25  26
ATOM     26  C   UNL     1      -3.538   4.875 133.577  0.00  0.00    +0.000 C 
ATOM     27  C   UNL     1      -3.143   5.726 134.788  0.00  0.00    +0.000 C 
ENDBRANCH  25  26
ENDBRANCH   8  25
BRANCH   9  28
ATOM     28  O   UNL     1      -1.601   6.659 131.061  0.00  0.00    +0.000 OA
BRANCH  28  29
ATOM     29  C   UNL     1      -0.553   6.492 132.045  0.00  0.00    +0.000 C 
ATOM     30  C   UNL     1      -0.211   7.670 133.075  0.00  0.00    +0.000 C 
ENDBRANCH  28  29
ENDBRANCH   9  28
TORSDOF 9
ENDMDL
MODEL 5
REMARK VINA RESULT:      -7.1      4.080      9.934
REMARK  Name = Drotaverine
REMARK  13 active torsions:
REMARK  status: ('A' for Active; 'I' for Inactive)
REMARK    1  A    between atoms: C_1  and  C_2
REMARK    2  A    between atoms: C_2  and  O_3
REMARK    3  A    between atoms: O_3  and  C_4
REMARK    4  A    between atoms: C_5  and  O_6
REMARK    5  A    between atoms: O_6  and  C_7
REMARK    6  A    between atoms: C_7  and  C_8
REMARK    7  A    between atoms: C_10  and  C_11
REMARK    8  A    between atoms: C_18  and  O_19
REMARK    9  A    between atoms: O_19  and  C_20
REMARK   10  A    between atoms: C_20  and  C_21
REMARK   11  A    between atoms: C_22  and  O_23
REMARK   12  A    between atoms: O_23  and  C_24
REMARK   13  A    between atoms: C_24  and  C_25
REMARK                            x       y       z     vdW  Elec       q    Type
REMARK                         _______ _______ _______ _____ _____    ______ ____
ROOT
ATOM      1  C   UNL     1      -5.519   1.621 127.128  0.00  0.00    +0.000 C 
ATOM      2  C   UNL     1      -5.890   2.387 128.516  0.00  0.00    +0.000 C 
ATOM      3  N   UNL     1      -7.044   2.596 127.685  0.00  0.00    +0.000 N 
ATOM      4  C   UNL     1      -7.748   3.524 128.364  0.00  0.00    +0.000 C 
ATOM      5  C   UNL     1      -8.415   2.394 129.276  0.00  0.00    +0.000 C 
ATOM      6  C   UNL     1      -7.990   3.245 130.300  0.00  0.00    +0.000 A 
ATOM      7  C   UNL     1      -9.191   4.297 130.624  0.00  0.00    +0.000 A 
ATOM      8  C   UNL     1      -9.142   5.381 131.453  0.00  0.00    +0.000 A 
ATOM      9  C   UNL     1      -8.044   5.195 132.247  0.00  0.00    +0.000 A 
ATOM     10  C   UNL     1      -6.796   4.126 131.629  0.00  0.00    +0.000 A 
ATOM     11  C   UNL     1      -6.555   3.009 130.399  0.00  0.00    +0.000 A 
ATOM     12  H   UNL     1      -7.565   1.707 127.691  0.00  0.00    +0.000 HD
ENDROOT
BRANCH   1  16
ATOM     13  C   UNL     1      -6.314  -2.365 124.604  0.00  0.00    +0.000 A 
ATOM     14  C   UNL     1      -7.024  -1.338 123.989  0.00  0.00    +0.000 A 
ATOM     15  C   UNL     1      -6.983   0.058 124.659  0.00  0.00    +0.000 A 
ATOM     16  C   UNL     1      -6.220   0.349 125.964  0.00  0.00    +0.000 A 
ATOM     17  C   UNL     1      -5.732  -0.838 126.417  0.00  0.00    +0.000 A 
ATOM     18  C   UNL     1      -5.772  -2.099 125.833  0.00  0.00    +0.000 A 
BRANCH  13  19
ATOM     19  O   UNL     1      -5.937  -3.533 123.993  0.00  0.00    +0.000 OA
BRANCH  19  21
ATOM     20  C   UNL     1      -3.980  -4.831 123.592  0.00  0.00    +0.000 C 
ATOM     21  C   UNL     1      -4.663  -3.502 123.343  0.00  0.00    +0.000 C 
ENDBRANCH  19  21
ENDBRANCH  13  19
BRANCH  14  22
ATOM     22  O   UNL     1      -7.724  -1.590 122.785  0.00  0.00    +0.000 OA
BRANCH  22  23
ATOM     23  C   UNL     1      -9.181  -1.832 122.883  0.00  0.00    +0.000 C 
ATOM     24  C   UNL     1      -9.540  -3.211 123.423  0.00  0.00    +0.000 C 
ENDBRANCH  22  23
ENDBRANCH  14  22
ENDBRANCH   1  16
BRANCH   8  25
ATOM     25  O   UNL     1     -10.093   6.363 131.374  0.00  0.00    +0.000 OA
BRANCH  25  26
ATOM     26  C   UNL     1     -11.503   6.020 131.352  0.00  0.00    +0.000 C 
ATOM     27  C   UNL     1     -12.381   7.209 130.951  0.00  0.00    +0.000 C 
ENDBRANCH  25  26
ENDBRANCH   8  25
BRANCH   9  28
ATOM     28  O   UNL     1      -8.372   5.858 133.474  0.00  0.00    +0.000 OA
BRANCH  28  29
ATOM     29  C   UNL     1      -7.916   5.937 134.845  0.00  0.00    +0.000 C 
ATOM     30  C   UNL     1      -6.943   4.814 135.443  0.00  0.00    +0.000 C 
ENDBRANCH  28  29
ENDBRANCH   9  28
TORSDOF 9
ENDMDL
MODEL 6
REMARK VINA RESULT:      -6.9      8.330      9.736
REMARK  Name = Drotaverine
REMARK  13 active torsions:
REMARK  status: ('A' for Active; 'I' for Inactive)
REMARK    1  A    between atoms: C_1  and  C_2
REMARK    2  A    between atoms: C_2  and  O_3
REMARK    3  A    between atoms: O_3  and  C_4
REMARK    4  A    between atoms: C_5  and  O_6
REMARK    5  A    between atoms: O_6  and  C_7
REMARK    6  A    between atoms: C_7  and  C_8
REMARK    7  A    between atoms: C_10  and  C_11
REMARK    8  A    between atoms: C_18  and  O_19
REMARK    9  A    between atoms: O_19  and  C_20
REMARK   10  A    between atoms: C_20  and  C_21
REMARK   11  A    between atoms: C_22  and  O_23
REMARK   12  A    between atoms: O_23  and  C_24
REMARK   13  A    between atoms: C_24  and  C_25
REMARK                            x       y       z     vdW  Elec       q    Type
REMARK                         _______ _______ _______ _____ _____    ______ ____
ROOT
ATOM      1  C   UNL     1      -3.478   7.229 132.256  0.00  0.00    +0.000 C 
ATOM      2  C   UNL     1      -3.668   5.937 131.283  0.00  0.00    +0.000 C 
ATOM      3  N   UNL     1      -3.503   7.037 130.372  0.00  0.00    +0.000 N 
ATOM      4  C   UNL     1      -3.835   6.500 129.180  0.00  0.00    +0.000 C 
ATOM      5  C   UNL     1      -2.357   5.921 128.995  0.00  0.00    +0.000 C 
ATOM      6  C   UNL     1      -3.062   4.745 128.725  0.00  0.00    +0.000 A 
ATOM      7  C   UNL     1      -3.351   4.678 127.123  0.00  0.00    +0.000 A 
ATOM      8  C   UNL     1      -4.129   3.772 126.459  0.00  0.00    +0.000 A 
ATOM      9  C   UNL     1      -4.297   2.722 127.319  0.00  0.00    +0.000 A 
ATOM     10  C   UNL     1      -4.078   3.058 129.028  0.00  0.00    +0.000 A 
ATOM     11  C   UNL     1      -3.491   4.269 130.034  0.00  0.00    +0.000 A 
ATOM     12  H   UNL     1      -2.497   7.259 130.373  0.00  0.00    +0.000 HD
ENDROOT
BRANCH   1  16
ATOM     13  C   UNL     1       0.125  10.009 133.730  0.00  0.00    +0.000 A 
ATOM     14  C   UNL     1      -0.860  10.847 133.215  0.00  0.00    +0.000 A 
ATOM     15  C   UNL     1      -2.118  10.180 132.607  0.00  0.00    +0.000 A 
ATOM     16  C   UNL     1      -2.314   8.655 132.530  0.00  0.00    +0.000 A 
ATOM     17  C   UNL     1      -1.164   8.079 132.975  0.00  0.00    +0.000 A 
ATOM     18  C   UNL     1      -0.024   8.666 133.511  0.00  0.00    +0.000 A 
BRANCH  13  19
ATOM     19  O   UNL     1       1.103  10.397 134.608  0.00  0.00    +0.000 OA
BRANCH  19  21
ATOM     20  C   UNL     1       0.114  10.580 136.768  0.00  0.00    +0.000 C 
ATOM     21  C   UNL     1       1.054   9.774 135.895  0.00  0.00    +0.000 C 
ENDBRANCH  19  21
ENDBRANCH  13  19
BRANCH  14  22
ATOM     22  O   UNL     1      -0.696  12.252 133.285  0.00  0.00    +0.000 OA
BRANCH  22  23
ATOM     23  C   UNL     1      -0.879  13.022 132.034  0.00  0.00    +0.000 C 
ATOM     24  C   UNL     1       0.317  12.957 131.092  0.00  0.00    +0.000 C 
ENDBRANCH  22  23
ENDBRANCH  14  22
ENDBRANCH   1  16
BRANCH   8  25
ATOM     25  O   UNL     1      -4.560   4.025 125.184  0.00  0.00    +0.000 OA
BRANCH  25  26
ATOM     26  C   UNL     1      -5.975   4.194 124.908  0.00  0.00    +0.000 C 
ATOM     27  C   UNL     1      -6.353   3.707 123.507  0.00  0.00    +0.000 C 
ENDBRANCH  25  26
ENDBRANCH   8  25
BRANCH   9  28
ATOM     28  O   UNL     1      -4.452   1.581 126.466  0.00  0.00    +0.000 OA
BRANCH  28  29
ATOM     29  C   UNL     1      -5.264   0.389 126.350  0.00  0.00    +0.000 C 
ATOM     30  C   UNL     1      -6.283   0.216 125.127  0.00  0.00    +0.000 C 
ENDBRANCH  28  29
ENDBRANCH   9  28
TORSDOF 9
ENDMDL
MODEL 7
REMARK VINA RESULT:      -6.9      5.009      7.375
REMARK  Name = Drotaverine
REMARK  13 active torsions:
REMARK  status: ('A' for Active; 'I' for Inactive)
REMARK    1  A    between atoms: C_1  and  C_2
REMARK    2  A    between atoms: C_2  and  O_3
REMARK    3  A    between atoms: O_3  and  C_4
REMARK    4  A    between atoms: C_5  and  O_6
REMARK    5  A    between atoms: O_6  and  C_7
REMARK    6  A    between atoms: C_7  and  C_8
REMARK    7  A    between atoms: C_10  and  C_11
REMARK    8  A    between atoms: C_18  and  O_19
REMARK    9  A    between atoms: O_19  and  C_20
REMARK   10  A    between atoms: C_20  and  C_21
REMARK   11  A    between atoms: C_22  and  O_23
REMARK   12  A    between atoms: O_23  and  C_24
REMARK   13  A    between atoms: C_24  and  C_25
REMARK                            x       y       z     vdW  Elec       q    Type
REMARK                         _______ _______ _______ _____ _____    ______ ____
ROOT
ATOM      1  C   UNL     1      -3.470   3.118 127.035  0.00  0.00    +0.000 C 
ATOM      2  C   UNL     1      -4.302   1.847 126.449  0.00  0.00    +0.000 C 
ATOM      3  N   UNL     1      -4.626   1.859 127.850  0.00  0.00    +0.000 N 
ATOM      4  C   UNL     1      -5.250   0.678 128.031  0.00  0.00    +0.000 C 
ATOM      5  C   UNL     1      -6.638   1.300 127.543  0.00  0.00    +0.000 C 
ATOM      6  C   UNL     1      -6.633   0.168 126.723  0.00  0.00    +0.000 A 
ATOM      7  C   UNL     1      -7.388  -1.039 127.514  0.00  0.00    +0.000 A 
ATOM      8  C   UNL     1      -7.479  -2.348 127.134  0.00  0.00    +0.000 A 
ATOM      9  C   UNL     1      -7.168  -2.374 125.803  0.00  0.00    +0.000 A 
ATOM     10  C   UNL     1      -6.215  -1.032 125.189  0.00  0.00    +0.000 A 
ATOM     11  C   UNL     1      -5.685   0.489 125.664  0.00  0.00    +0.000 A 
ATOM     12  H   UNL     1      -5.306   2.622 127.977  0.00  0.00    +0.000 HD
ENDROOT
BRANCH   1  16
ATOM     13  C   UNL     1      -2.959   6.779 130.072  0.00  0.00    +0.000 A 
ATOM     14  C   UNL     1      -4.312   6.688 129.758  0.00  0.00    +0.000 A 
ATOM     15  C   UNL     1      -4.734   5.610 128.730  0.00  0.00    +0.000 A 
ATOM     16  C   UNL     1      -3.737   4.663 128.037  0.00  0.00    +0.000 A 
ATOM     17  C   UNL     1      -2.488   5.047 128.418  0.00  0.00    +0.000 A 
ATOM     18  C   UNL     1      -2.095   6.020 129.329  0.00  0.00    +0.000 A 
BRANCH  13  19
ATOM     19  O   UNL     1      -2.452   7.394 131.188  0.00  0.00    +0.000 OA
BRANCH  19  21
ATOM     20  C   UNL     1      -1.696   6.201 133.106  0.00  0.00    +0.000 C 
ATOM     21  C   UNL     1      -1.298   6.771 131.760  0.00  0.00    +0.000 C 
ENDBRANCH  19  21
ENDBRANCH  13  19
BRANCH  14  22
ATOM     22  O   UNL     1      -5.240   7.548 130.393  0.00  0.00    +0.000 OA
BRANCH  22  23
ATOM     23  C   UNL     1      -6.340   6.917 131.156  0.00  0.00    +0.000 C 
ATOM     24  C   UNL     1      -5.868   6.113 132.362  0.00  0.00    +0.000 C 
ENDBRANCH  22  23
ENDBRANCH  14  22
ENDBRANCH   1  16
BRANCH   8  25
ATOM     25  O   UNL     1      -7.836  -3.314 128.038  0.00  0.00    +0.000 OA
BRANCH  25  26
ATOM     26  C   UNL     1      -8.079  -2.966 129.425  0.00  0.00    +0.000 C 
ATOM     27  C   UNL     1      -7.012  -3.539 130.361  0.00  0.00    +0.000 C 
ENDBRANCH  25  26
ENDBRANCH   8  25
BRANCH   9  28
ATOM     28  O   UNL     1      -7.907  -3.485 125.282  0.00  0.00    +0.000 OA
BRANCH  28  29
ATOM     29  C   UNL     1      -9.049  -3.755 124.435  0.00  0.00    +0.000 C 
ATOM     30  C   UNL     1      -9.360  -2.822 123.171  0.00  0.00    +0.000 C 
ENDBRANCH  28  29
ENDBRANCH   9  28
TORSDOF 9
ENDMDL
MODEL 8
REMARK VINA RESULT:      -6.8      5.373     11.339
REMARK  Name = Drotaverine
REMARK  13 active torsions:
REMARK  status: ('A' for Active; 'I' for Inactive)
REMARK    1  A    between atoms: C_1  and  C_2
REMARK    2  A    between atoms: C_2  and  O_3
REMARK    3  A    between atoms: O_3  and  C_4
REMARK    4  A    between atoms: C_5  and  O_6
REMARK    5  A    between atoms: O_6  and  C_7
REMARK    6  A    between atoms: C_7  and  C_8
REMARK    7  A    between atoms: C_10  and  C_11
REMARK    8  A    between atoms: C_18  and  O_19
REMARK    9  A    between atoms: O_19  and  C_20
REMARK   10  A    between atoms: C_20  and  C_21
REMARK   11  A    between atoms: C_22  and  O_23
REMARK   12  A    between atoms: O_23  and  C_24
REMARK   13  A    between atoms: C_24  and  C_25
REMARK                            x       y       z     vdW  Elec       q    Type
REMARK                         _______ _______ _______ _____ _____    ______ ____
ROOT
ATOM      1  C   UNL     1      -7.794  -3.034 128.336  0.00  0.00    +0.000 C 
ATOM      2  C   UNL     1      -7.568  -2.129 127.001  0.00  0.00    +0.000 C 
ATOM      3  N   UNL     1      -7.863  -1.166 128.027  0.00  0.00    +0.000 N 
ATOM      4  C   UNL     1      -8.053  -0.027 127.333  0.00  0.00    +0.000 C 
ATOM      5  C   UNL     1      -6.480   0.254 127.303  0.00  0.00    +0.000 C 
ATOM      6  C   UNL     1      -6.733   0.421 125.939  0.00  0.00    +0.000 A 
ATOM      7  C   UNL     1      -7.076   1.991 125.671  0.00  0.00    +0.000 A 
ATOM      8  C   UNL     1      -7.518   2.556 124.509  0.00  0.00    +0.000 A 
ATOM      9  C   UNL     1      -7.246   1.646 123.524  0.00  0.00    +0.000 A 
ATOM     10  C   UNL     1      -7.058  -0.026 124.025  0.00  0.00    +0.000 A 
ATOM     11  C   UNL     1      -6.883  -0.935 125.427  0.00  0.00    +0.000 A 
ATOM     12  H   UNL     1      -7.005  -1.079 128.591  0.00  0.00    +0.000 HD
ENDROOT
BRANCH   1  16
ATOM     13  C   UNL     1      -5.771  -4.496 132.417  0.00  0.00    +0.000 A 
ATOM     14  C   UNL     1      -6.688  -3.501 132.744  0.00  0.00    +0.000 A 
ATOM     15  C   UNL     1      -7.437  -2.812 131.578  0.00  0.00    +0.000 A 
ATOM     16  C   UNL     1      -7.202  -3.160 130.096  0.00  0.00    +0.000 A 
ATOM     17  C   UNL     1      -6.178  -4.055 130.052  0.00  0.00    +0.000 A 
ATOM     18  C   UNL     1      -5.489  -4.672 131.089  0.00  0.00    +0.000 A 
BRANCH  13  19
ATOM     19  O   UNL     1      -5.298  -5.443 133.288  0.00  0.00    +0.000 OA
BRANCH  19  21
ATOM     20  C   UNL     1      -3.528  -6.650 134.331  0.00  0.00    +0.000 C 
ATOM     21  C   UNL     1      -3.880  -5.449 133.478  0.00  0.00    +0.000 C 
ENDBRANCH  19  21
ENDBRANCH  13  19
BRANCH  14  22
ATOM     22  O   UNL     1      -6.918  -3.176 134.102  0.00  0.00    +0.000 OA
BRANCH  22  23
ATOM     23  C   UNL     1      -8.292  -3.358 134.621  0.00  0.00    +0.000 C 
ATOM     24  C   UNL     1      -8.505  -4.682 135.346  0.00  0.00    +0.000 C 
ENDBRANCH  22  23
ENDBRANCH  14  22
ENDBRANCH   1  16
BRANCH   8  25
ATOM     25  O   UNL     1      -8.087   3.801 124.510  0.00  0.00    +0.000 OA
BRANCH  25  26
ATOM     26  C   UNL     1      -7.650   4.807 125.460  0.00  0.00    +0.000 C 
ATOM     27  C   UNL     1      -6.262   5.357 125.123  0.00  0.00    +0.000 C 
ENDBRANCH  25  26
ENDBRANCH   8  25
BRANCH   9  28
ATOM     28  O   UNL     1      -7.035   2.440 122.350  0.00  0.00    +0.000 OA
BRANCH  28  29
ATOM     29  C   UNL     1      -6.079   3.382 121.809  0.00  0.00    +0.000 C 
ATOM     30  C   UNL     1      -6.321   4.050 120.374  0.00  0.00    +0.000 C 
ENDBRANCH  28  29
ENDBRANCH   9  28
TORSDOF 9
ENDMDL
MODEL 9
REMARK VINA RESULT:      -6.6      6.810      8.531
REMARK  Name = Drotaverine
REMARK  13 active torsions:
REMARK  status: ('A' for Active; 'I' for Inactive)
REMARK    1  A    between atoms: C_1  and  C_2
REMARK    2  A    between atoms: C_2  and  O_3
REMARK    3  A    between atoms: O_3  and  C_4
REMARK    4  A    between atoms: C_5  and  O_6
REMARK    5  A    between atoms: O_6  and  C_7
REMARK    6  A    between atoms: C_7  and  C_8
REMARK    7  A    between atoms: C_10  and  C_11
REMARK    8  A    between atoms: C_18  and  O_19
REMARK    9  A    between atoms: O_19  and  C_20
REMARK   10  A    between atoms: C_20  and  C_21
REMARK   11  A    between atoms: C_22  and  O_23
REMARK   12  A    between atoms: O_23  and  C_24
REMARK   13  A    between atoms: C_24  and  C_25
REMARK                            x       y       z     vdW  Elec       q    Type
REMARK                         _______ _______ _______ _____ _____    ______ ____
ROOT
ATOM      1  C   UNL     1      -4.859  -2.342 128.075  0.00  0.00    +0.000 C 
ATOM      2  C   UNL     1      -5.066  -3.182 129.454  0.00  0.00    +0.000 C 
ATOM      3  N   UNL     1      -5.718  -1.927 129.711  0.00  0.00    +0.000 N 
ATOM      4  C   UNL     1      -5.956  -1.970 131.037  0.00  0.00    +0.000 C 
ATOM      5  C   UNL     1      -7.301  -2.800 130.800  0.00  0.00    +0.000 C 
ATOM      6  C   UNL     1      -6.729  -3.628 131.770  0.00  0.00    +0.000 A 
ATOM      7  C   UNL     1      -7.231  -3.122 133.235  0.00  0.00    +0.000 A 
ATOM      8  C   UNL     1      -6.802  -3.561 134.455  0.00  0.00    +0.000 A 
ATOM      9  C   UNL     1      -6.174  -4.754 134.223  0.00  0.00    +0.000 A 
ATOM     10  C   UNL     1      -5.578  -5.029 132.595  0.00  0.00    +0.000 A 
ATOM     11  C   UNL     1      -5.699  -4.370 131.055  0.00  0.00    +0.000 A 
ATOM     12  H   UNL     1      -6.615  -1.964 129.206  0.00  0.00    +0.000 HD
ENDROOT
BRANCH   1  16
ATOM     13  C   UNL     1      -8.216  -0.942 124.968  0.00  0.00    +0.000 A 
ATOM     14  C   UNL     1      -7.072  -0.196 124.704  0.00  0.00    +0.000 A 
ATOM     15  C   UNL     1      -5.848  -0.417 125.625  0.00  0.00    +0.000 A 
ATOM     16  C   UNL     1      -5.848  -1.396 126.814  0.00  0.00    +0.000 A 
ATOM     17  C   UNL     1      -7.111  -1.890 126.927  0.00  0.00    +0.000 A 
ATOM     18  C   UNL     1      -8.222  -1.690 126.114  0.00  0.00    +0.000 A 
BRANCH  13  19
ATOM     19  O   UNL     1      -9.237  -1.154 124.078  0.00  0.00    +0.000 OA
BRANCH  19  21
ATOM     20  C   UNL     1      -9.592  -3.413 123.410  0.00  0.00    +0.000 C 
ATOM     21  C   UNL     1      -8.957  -2.090 123.033  0.00  0.00    +0.000 C 
ENDBRANCH  19  21
ENDBRANCH  13  19
BRANCH  14  22
ATOM     22  O   UNL     1      -7.056   0.703 123.610  0.00  0.00    +0.000 OA
BRANCH  22  23
ATOM     23  C   UNL     1      -7.497   2.093 123.865  0.00  0.00    +0.000 C 
ATOM     24  C   UNL     1      -8.922   2.378 123.407  0.00  0.00    +0.000 C 
ENDBRANCH  22  23
ENDBRANCH  14  22
ENDBRANCH   1  16
BRANCH   8  25
ATOM     25  O   UNL     1      -7.046  -2.828 135.586  0.00  0.00    +0.000 OA
BRANCH  25  26
ATOM     26  C   UNL     1      -5.966  -2.122 136.250  0.00  0.00    +0.000 C 
ATOM     27  C   UNL     1      -5.727  -0.734 135.649  0.00  0.00    +0.000 C 
ENDBRANCH  25  26
ENDBRANCH   8  25
BRANCH   9  28
ATOM     28  O   UNL     1      -6.364  -5.500 135.432  0.00  0.00    +0.000 OA
BRANCH  28  29
ATOM     29  C   UNL     1      -7.255  -6.496 135.989  0.00  0.00    +0.000 C 
ATOM     30  C   UNL     1      -8.703  -6.077 136.531  0.00  0.00    +0.000 C 
ENDBRANCH  28  29
ENDBRANCH   9  28
TORSDOF 9
ENDMDL
