MODEL 1
REMARK VINA RESULT:      -6.2      0.000      0.000
REMARK  Name = Droxidopa
REMARK  8 active torsions:
REMARK  status: ('A' for Active; 'I' for Inactive)
REMARK    1  A    between atoms: N_1  and  C_2
REMARK    2  A    between atoms: C_2  and  C_3
REMARK    3  A    between atoms: C_2  and  C_13
REMARK    4  A    between atoms: C_3  and  O_4
REMARK    5  A    between atoms: C_3  and  C_5
REMARK    6  A    between atoms: C_7  and  O_8
REMARK    7  A    between atoms: C_9  and  O_10
REMARK    8  A    between atoms: C_13  and  O_14
REMARK                            x       y       z     vdW  Elec       q    Type
REMARK                         _______ _______ _______ _____ _____    ______ ____
ROOT
ATOM      1  C   UNK     1     -11.335   8.547 128.453  0.00  0.00    +0.000 C 
ENDROOT
BRANCH   1   2
ATOM      2  C   UNK     1     -11.121   7.628 129.659  0.00  0.00    +0.000 A 
ATOM      3  C   UNK     1      -9.847   7.078 129.904  0.00  0.00    +0.000 A 
ATOM      4  C   UNK     1      -9.584   6.381 131.080  0.00  0.00    +0.000 A 
ATOM      5  C   UNK     1     -10.596   6.172 132.005  0.00  0.00    +0.000 A 
ATOM      6  C   UNK     1     -11.879   6.631 131.756  0.00  0.00    +0.000 A 
ATOM      7  C   UNK     1     -12.142   7.353 130.587  0.00  0.00    +0.000 A 
BRANCH   4   8
ATOM      8  O   UNK     1      -8.333   5.907 131.365  0.00  0.00    +0.000 OA
ATOM      9  H   UNK     1      -8.415   5.234 132.066  0.00  0.00    +0.000 HD
ENDBRANCH   4   8
BRANCH   5  10
ATOM     10  O   UNK     1     -10.350   5.514 133.174  0.00  0.00    +0.000 OA
ATOM     11  H   UNK     1     -10.207   4.583 132.915  0.00  0.00    +0.000 HD
ENDBRANCH   5  10
ENDBRANCH   1   2
BRANCH   1  12
ATOM     12  O   UNK     1     -10.087   9.142 128.056  0.00  0.00    +0.000 OA
ATOM     13  H   UNK     1     -10.186  10.105 128.114  0.00  0.00    +0.000 HD
ENDBRANCH   1  12
BRANCH   1  14
ATOM     14  C   UNK     1     -11.970   7.768 127.247  0.00  0.00    +0.000 C 
BRANCH  14  15
ATOM     15  N   UNK     1     -12.739   6.532 127.628  0.00  0.00    +0.000 NA
ATOM     16  H   UNK     1     -13.384   6.766 128.386  0.00  0.00    +0.000 HD
ATOM     17  H   UNK     1     -12.071   5.887 128.064  0.00  0.00    +0.000 HD
ENDBRANCH  14  15
BRANCH  14  18
ATOM     18  C   UNK     1     -10.878   7.376 126.232  0.00  0.00    +0.000 C 
ATOM     19  O   UNK     1     -10.083   6.452 126.376  0.00  0.00    +0.000 OA
BRANCH  18  20
ATOM     20  O   UNK     1     -10.831   8.180 125.143  0.00  0.00    +0.000 OA
ATOM     21  H   UNK     1     -11.203   9.058 125.385  0.00  0.00    +0.000 HD
ENDBRANCH  18  20
ENDBRANCH  14  18
ENDBRANCH   1  14
TORSDOF 8
ENDMDL
MODEL 2
REMARK VINA RESULT:      -5.9      1.890      5.220
REMARK  Name = Droxidopa
REMARK  8 active torsions:
REMARK  status: ('A' for Active; 'I' for Inactive)
REMARK    1  A    between atoms: N_1  and  C_2
REMARK    2  A    between atoms: C_2  and  C_3
REMARK    3  A    between atoms: C_2  and  C_13
REMARK    4  A    between atoms: C_3  and  O_4
REMARK    5  A    between atoms: C_3  and  C_5
REMARK    6  A    between atoms: C_7  and  O_8
REMARK    7  A    between atoms: C_9  and  O_10
REMARK    8  A    between atoms: C_13  and  O_14
REMARK                            x       y       z     vdW  Elec       q    Type
REMARK                         _______ _______ _______ _____ _____    ______ ____
ROOT
ATOM      1  C   UNK     1     -11.146   6.725 131.079  0.00  0.00    +0.000 C 
ENDROOT
BRANCH   1   2
ATOM      2  C   UNK     1     -11.501   6.952 129.607  0.00  0.00    +0.000 A 
ATOM      3  C   UNK     1     -10.503   6.832 128.620  0.00  0.00    +0.000 A 
ATOM      4  C   UNK     1     -10.829   6.865 127.266  0.00  0.00    +0.000 A 
ATOM      5  C   UNK     1     -12.143   7.074 126.874  0.00  0.00    +0.000 A 
ATOM      6  C   UNK     1     -13.134   7.276 127.821  0.00  0.00    +0.000 A 
ATOM      7  C   UNK     1     -12.814   7.220 129.181  0.00  0.00    +0.000 A 
BRANCH   4   8
ATOM      8  O   UNK     1      -9.883   6.674 126.298  0.00  0.00    +0.000 OA
ATOM      9  H   UNK     1      -9.160   6.143 126.678  0.00  0.00    +0.000 HD
ENDBRANCH   4   8
BRANCH   5  10
ATOM     10  O   UNK     1     -12.486   7.084 125.554  0.00  0.00    +0.000 OA
ATOM     11  H   UNK     1     -12.072   7.892 125.191  0.00  0.00    +0.000 HD
ENDBRANCH   5  10
ENDBRANCH   1   2
BRANCH   1  12
ATOM     12  O   UNK     1     -12.303   6.269 131.804  0.00  0.00    +0.000 OA
ATOM     13  H   UNK     1     -12.909   5.859 131.167  0.00  0.00    +0.000 HD
ENDBRANCH   1  12
BRANCH   1  14
ATOM     14  C   UNK     1      -9.972   5.693 131.232  0.00  0.00    +0.000 C 
BRANCH  14  15
ATOM     15  N   UNK     1     -10.408   4.262 131.397  0.00  0.00    +0.000 NA
ATOM     16  H   UNK     1     -11.321   4.143 130.953  0.00  0.00    +0.000 HD
ATOM     17  H   UNK     1     -10.599   4.121 132.395  0.00  0.00    +0.000 HD
ENDBRANCH  14  15
BRANCH  14  18
ATOM     18  C   UNK     1      -9.077   6.077 132.427  0.00  0.00    +0.000 C 
ATOM     19  O   UNK     1      -7.850   6.097 132.409  0.00  0.00    +0.000 OA
BRANCH  18  20
ATOM     20  O   UNK     1      -9.767   6.364 133.556  0.00  0.00    +0.000 OA
ATOM     21  H   UNK     1      -9.125   6.550 134.278  0.00  0.00    +0.000 HD
ENDBRANCH  18  20
ENDBRANCH  14  18
ENDBRANCH   1  14
TORSDOF 8
ENDMDL
MODEL 3
REMARK VINA RESULT:      -5.9      2.088      5.017
REMARK  Name = Droxidopa
REMARK  8 active torsions:
REMARK  status: ('A' for Active; 'I' for Inactive)
REMARK    1  A    between atoms: N_1  and  C_2
REMARK    2  A    between atoms: C_2  and  C_3
REMARK    3  A    between atoms: C_2  and  C_13
REMARK    4  A    between atoms: C_3  and  O_4
REMARK    5  A    between atoms: C_3  and  C_5
REMARK    6  A    between atoms: C_7  and  O_8
REMARK    7  A    between atoms: C_9  and  O_10
REMARK    8  A    between atoms: C_13  and  O_14
REMARK                            x       y       z     vdW  Elec       q    Type
REMARK                         _______ _______ _______ _____ _____    ______ ____
ROOT
ATOM      1  C   UNK     1     -10.067   5.663 131.558  0.00  0.00    +0.000 C 
ENDROOT
BRANCH   1   2
ATOM      2  C   UNK     1     -10.826   6.778 130.835  0.00  0.00    +0.000 A 
ATOM      3  C   UNK     1     -10.254   7.397 129.705  0.00  0.00    +0.000 A 
ATOM      4  C   UNK     1     -10.990   8.290 128.931  0.00  0.00    +0.000 A 
ATOM      5  C   UNK     1     -12.285   8.626 129.298  0.00  0.00    +0.000 A 
ATOM      6  C   UNK     1     -12.846   8.096 130.448  0.00  0.00    +0.000 A 
ATOM      7  C   UNK     1     -12.120   7.179 131.216  0.00  0.00    +0.000 A 
BRANCH   4   8
ATOM      8  O   UNK     1     -10.474   8.841 127.790  0.00  0.00    +0.000 OA
ATOM      9  H   UNK     1     -10.338   9.793 127.946  0.00  0.00    +0.000 HD
ENDBRANCH   4   8
BRANCH   5  10
ATOM     10  O   UNK     1     -13.029   9.479 128.538  0.00  0.00    +0.000 OA
ATOM     11  H   UNK     1     -13.823   8.969 128.288  0.00  0.00    +0.000 HD
ENDBRANCH   5  10
ENDBRANCH   1   2
BRANCH   1  12
ATOM     12  O   UNK     1     -10.644   5.429 132.855  0.00  0.00    +0.000 OA
ATOM     13  H   UNK     1     -11.522   5.843 132.868  0.00  0.00    +0.000 HD
ENDBRANCH   1  12
BRANCH   1  14
ATOM     14  C   UNK     1     -10.067   4.335 130.720  0.00  0.00    +0.000 C 
BRANCH  14  15
ATOM     15  N   UNK     1     -11.431   3.847 130.311  0.00  0.00    +0.000 NA
ATOM     16  H   UNK     1     -12.095   4.063 131.058  0.00  0.00    +0.000 HD
ATOM     17  H   UNK     1     -11.392   2.823 130.303  0.00  0.00    +0.000 HD
ENDBRANCH  14  15
BRANCH  14  18
ATOM     18  C   UNK     1      -9.356   3.212 131.501  0.00  0.00    +0.000 C 
ATOM     19  O   UNK     1      -8.182   2.889 131.355  0.00  0.00    +0.000 OA
BRANCH  18  20
ATOM     20  O   UNK     1     -10.163   2.554 132.367  0.00  0.00    +0.000 OA
ATOM     21  H   UNK     1     -10.368   1.666 131.994  0.00  0.00    +0.000 HD
ENDBRANCH  18  20
ENDBRANCH  14  18
ENDBRANCH   1  14
TORSDOF 8
ENDMDL
MODEL 4
REMARK VINA RESULT:      -5.8      1.668      2.438
REMARK  Name = Droxidopa
REMARK  8 active torsions:
REMARK  status: ('A' for Active; 'I' for Inactive)
REMARK    1  A    between atoms: N_1  and  C_2
REMARK    2  A    between atoms: C_2  and  C_3
REMARK    3  A    between atoms: C_2  and  C_13
REMARK    4  A    between atoms: C_3  and  O_4
REMARK    5  A    between atoms: C_3  and  C_5
REMARK    6  A    between atoms: C_7  and  O_8
REMARK    7  A    between atoms: C_9  and  O_10
REMARK    8  A    between atoms: C_13  and  O_14
REMARK                            x       y       z     vdW  Elec       q    Type
REMARK                         _______ _______ _______ _____ _____    ______ ____
ROOT
ATOM      1  C   UNK     1     -11.520   6.695 129.008  0.00  0.00    +0.000 C 
ENDROOT
BRANCH   1   2
ATOM      2  C   UNK     1     -10.514   6.585 130.157  0.00  0.00    +0.000 A 
ATOM      3  C   UNK     1     -10.845   5.842 131.308  0.00  0.00    +0.000 A 
ATOM      4  C   UNK     1      -9.892   5.584 132.290  0.00  0.00    +0.000 A 
ATOM      5  C   UNK     1      -8.612   6.107 132.171  0.00  0.00    +0.000 A 
ATOM      6  C   UNK     1      -8.281   6.909 131.091  0.00  0.00    +0.000 A 
ATOM      7  C   UNK     1      -9.228   7.150 130.090  0.00  0.00    +0.000 A 
BRANCH   4   8
ATOM      8  O   UNK     1     -10.176   4.801 133.375  0.00  0.00    +0.000 OA
ATOM      9  H   UNK     1      -9.340   4.600 133.834  0.00  0.00    +0.000 HD
ENDBRANCH   4   8
BRANCH   5  10
ATOM     10  O   UNK     1      -7.659   5.845 133.110  0.00  0.00    +0.000 OA
ATOM     11  H   UNK     1      -8.097   6.007 133.968  0.00  0.00    +0.000 HD
ENDBRANCH   5  10
ENDBRANCH   1   2
BRANCH   1  12
ATOM     12  O   UNK     1     -12.856   6.821 129.528  0.00  0.00    +0.000 OA
ATOM     13  H   UNK     1     -12.898   7.643 130.040  0.00  0.00    +0.000 HD
ENDBRANCH   1  12
BRANCH   1  14
ATOM     14  C   UNK     1     -11.187   7.911 128.072  0.00  0.00    +0.000 C 
BRANCH  14  15
ATOM     15  N   UNK     1     -11.997   9.151 128.338  0.00  0.00    +0.000 NA
ATOM     16  H   UNK     1     -12.171   9.627 127.450  0.00  0.00    +0.000 HD
ATOM     17  H   UNK     1     -11.390   9.800 128.850  0.00  0.00    +0.000 HD
ENDBRANCH  14  15
BRANCH  14  18
ATOM     18  C   UNK     1     -11.369   7.512 126.594  0.00  0.00    +0.000 C 
ATOM     19  O   UNK     1     -10.782   8.028 125.649  0.00  0.00    +0.000 OA
BRANCH  18  20
ATOM     20  O   UNK     1     -12.288   6.536 126.402  0.00  0.00    +0.000 OA
ATOM     21  H   UNK     1     -13.152   6.843 126.759  0.00  0.00    +0.000 HD
ENDBRANCH  18  20
ENDBRANCH  14  18
ENDBRANCH   1  14
TORSDOF 8
ENDMDL
MODEL 5
REMARK VINA RESULT:      -5.7      7.662     10.107
REMARK  Name = Droxidopa
REMARK  8 active torsions:
REMARK  status: ('A' for Active; 'I' for Inactive)
REMARK    1  A    between atoms: N_1  and  C_2
REMARK    2  A    between atoms: C_2  and  C_3
REMARK    3  A    between atoms: C_2  and  C_13
REMARK    4  A    between atoms: C_3  and  O_4
REMARK    5  A    between atoms: C_3  and  C_5
REMARK    6  A    between atoms: C_7  and  O_8
REMARK    7  A    between atoms: C_9  and  O_10
REMARK    8  A    between atoms: C_13  and  O_14
REMARK                            x       y       z     vdW  Elec       q    Type
REMARK                         _______ _______ _______ _____ _____    ______ ____
ROOT
ATOM      1  C   UNK     1      -8.620   2.460 123.647  0.00  0.00    +0.000 C 
ENDROOT
BRANCH   1   2
ATOM      2  C   UNK     1      -8.118   2.987 122.301  0.00  0.00    +0.000 A 
ATOM      3  C   UNK     1      -9.037   3.249 121.265  0.00  0.00    +0.000 A 
ATOM      4  C   UNK     1      -8.632   3.886 120.095  0.00  0.00    +0.000 A 
ATOM      5  C   UNK     1      -7.298   4.221 119.912  0.00  0.00    +0.000 A 
ATOM      6  C   UNK     1      -6.358   3.904 120.878  0.00  0.00    +0.000 A 
ATOM      7  C   UNK     1      -6.764   3.286 122.065  0.00  0.00    +0.000 A 
BRANCH   4   8
ATOM      8  O   UNK     1      -9.526   4.214 119.113  0.00  0.00    +0.000 OA
ATOM      9  H   UNK     1     -10.170   4.844 119.485  0.00  0.00    +0.000 HD
ENDBRANCH   4   8
BRANCH   5  10
ATOM     10  O   UNK     1      -6.888   4.868 118.784  0.00  0.00    +0.000 OA
ATOM     11  H   UNK     1      -6.526   4.166 118.208  0.00  0.00    +0.000 HD
ENDBRANCH   5  10
ENDBRANCH   1   2
BRANCH   1  12
ATOM     12  O   UNK     1      -9.009   3.555 124.496  0.00  0.00    +0.000 OA
ATOM     13  H   UNK     1      -8.217   3.864 124.962  0.00  0.00    +0.000 HD
ENDBRANCH   1  12
BRANCH   1  14
ATOM     14  C   UNK     1      -9.823   1.468 123.461  0.00  0.00    +0.000 C 
BRANCH  14  15
ATOM     15  N   UNK     1     -10.803   1.443 124.602  0.00  0.00    +0.000 NA
ATOM     16  H   UNK     1     -10.656   0.588 125.143  0.00  0.00    +0.000 HD
ATOM     17  H   UNK     1     -11.735   1.319 124.194  0.00  0.00    +0.000 HD
ENDBRANCH  14  15
BRANCH  14  18
ATOM     18  C   UNK     1      -9.302   0.035 123.227  0.00  0.00    +0.000 C 
ATOM     19  O   UNK     1      -8.175  -0.358 123.512  0.00  0.00    +0.000 OA
BRANCH  18  20
ATOM     20  O   UNK     1     -10.199  -0.781 122.625  0.00  0.00    +0.000 OA
ATOM     21  H   UNK     1     -10.981  -0.246 122.358  0.00  0.00    +0.000 HD
ENDBRANCH  18  20
ENDBRANCH  14  18
ENDBRANCH   1  14
TORSDOF 8
ENDMDL
MODEL 6
REMARK VINA RESULT:      -5.6      2.288      5.337
REMARK  Name = Droxidopa
REMARK  8 active torsions:
REMARK  status: ('A' for Active; 'I' for Inactive)
REMARK    1  A    between atoms: N_1  and  C_2
REMARK    2  A    between atoms: C_2  and  C_3
REMARK    3  A    between atoms: C_2  and  C_13
REMARK    4  A    between atoms: C_3  and  O_4
REMARK    5  A    between atoms: C_3  and  C_5
REMARK    6  A    between atoms: C_7  and  O_8
REMARK    7  A    between atoms: C_9  and  O_10
REMARK    8  A    between atoms: C_13  and  O_14
REMARK                            x       y       z     vdW  Elec       q    Type
REMARK                         _______ _______ _______ _____ _____    ______ ____
ROOT
ATOM      1  C   UNK     1     -10.765   5.336 130.930  0.00  0.00    +0.000 C 
ENDROOT
BRANCH   1   2
ATOM      2  C   UNK     1     -11.320   6.660 130.399  0.00  0.00    +0.000 A 
ATOM      3  C   UNK     1     -10.809   7.204 129.204  0.00  0.00    +0.000 A 
ATOM      4  C   UNK     1     -11.407   8.312 128.610  0.00  0.00    +0.000 A 
ATOM      5  C   UNK     1     -12.487   8.931 129.223  0.00  0.00    +0.000 A 
ATOM      6  C   UNK     1     -12.961   8.468 130.439  0.00  0.00    +0.000 A 
ATOM      7  C   UNK     1     -12.379   7.340 131.027  0.00  0.00    +0.000 A 
BRANCH   4   8
ATOM      8  O   UNK     1     -10.970   8.806 127.412  0.00  0.00    +0.000 OA
ATOM      9  H   UNK     1      -9.996   8.850 127.438  0.00  0.00    +0.000 HD
ENDBRANCH   4   8
BRANCH   5  10
ATOM     10  O   UNK     1     -13.102  10.001 128.644  0.00  0.00    +0.000 OA
ATOM     11  H   UNK     1     -13.394  10.560 129.390  0.00  0.00    +0.000 HD
ENDBRANCH   5  10
ENDBRANCH   1   2
BRANCH   1  12
ATOM     12  O   UNK     1      -9.982   4.683 129.915  0.00  0.00    +0.000 OA
ATOM     13  H   UNK     1     -10.427   4.818 129.064  0.00  0.00    +0.000 HD
ENDBRANCH   1  12
BRANCH   1  14
ATOM     14  C   UNK     1      -9.899   5.556 132.222  0.00  0.00    +0.000 C 
BRANCH  14  15
ATOM     15  N   UNK     1      -8.728   6.483 132.046  0.00  0.00    +0.000 NA
ATOM     16  H   UNK     1      -8.864   7.026 131.190  0.00  0.00    +0.000 HD
ATOM     17  H   UNK     1      -7.912   5.898 131.838  0.00  0.00    +0.000 HD
ENDBRANCH  14  15
BRANCH  14  18
ATOM     18  C   UNK     1      -9.383   4.204 132.754  0.00  0.00    +0.000 C 
ATOM     19  O   UNK     1      -8.673   3.426 132.125  0.00  0.00    +0.000 OA
BRANCH  18  20
ATOM     20  O   UNK     1      -9.819   3.906 134.001  0.00  0.00    +0.000 OA
ATOM     21  H   UNK     1     -10.425   3.132 133.945  0.00  0.00    +0.000 HD
ENDBRANCH  18  20
ENDBRANCH  14  18
ENDBRANCH   1  14
TORSDOF 8
ENDMDL
MODEL 7
REMARK VINA RESULT:      -5.4      1.689      2.698
REMARK  Name = Droxidopa
REMARK  8 active torsions:
REMARK  status: ('A' for Active; 'I' for Inactive)
REMARK    1  A    between atoms: N_1  and  C_2
REMARK    2  A    between atoms: C_2  and  C_3
REMARK    3  A    between atoms: C_2  and  C_13
REMARK    4  A    between atoms: C_3  and  O_4
REMARK    5  A    between atoms: C_3  and  C_5
REMARK    6  A    between atoms: C_7  and  O_8
REMARK    7  A    between atoms: C_9  and  O_10
REMARK    8  A    between atoms: C_13  and  O_14
REMARK                            x       y       z     vdW  Elec       q    Type
REMARK                         _______ _______ _______ _____ _____    ______ ____
ROOT
ATOM      1  C   UNK     1      -9.850   6.708 129.149  0.00  0.00    +0.000 C 
ENDROOT
BRANCH   1   2
ATOM      2  C   UNK     1      -9.576   5.842 130.380  0.00  0.00    +0.000 A 
ATOM      3  C   UNK     1      -9.357   6.452 131.631  0.00  0.00    +0.000 A 
ATOM      4  C   UNK     1      -9.275   5.690 132.794  0.00  0.00    +0.000 A 
ATOM      5  C   UNK     1      -9.352   4.307 132.724  0.00  0.00    +0.000 A 
ATOM      6  C   UNK     1      -9.486   3.673 131.500  0.00  0.00    +0.000 A 
ATOM      7  C   UNK     1      -9.594   4.436 130.332  0.00  0.00    +0.000 A 
BRANCH   4   8
ATOM      8  O   UNK     1      -9.138   6.273 134.023  0.00  0.00    +0.000 OA
ATOM      9  H   UNK     1     -10.011   6.606 134.301  0.00  0.00    +0.000 HD
ENDBRANCH   4   8
BRANCH   5  10
ATOM     10  O   UNK     1      -9.299   3.545 133.854  0.00  0.00    +0.000 OA
ATOM     11  H   UNK     1      -8.419   3.121 133.833  0.00  0.00    +0.000 HD
ENDBRANCH   5  10
ENDBRANCH   1   2
BRANCH   1  12
ATOM     12  O   UNK     1      -9.570   5.967 127.948  0.00  0.00    +0.000 OA
ATOM     13  H   UNK     1      -9.109   5.152 128.203  0.00  0.00    +0.000 HD
ENDBRANCH   1  12
BRANCH   1  14
ATOM     14  C   UNK     1     -11.333   7.224 129.131  0.00  0.00    +0.000 C 
BRANCH  14  15
ATOM     15  N   UNK     1     -12.363   6.172 128.821  0.00  0.00    +0.000 NA
ATOM     16  H   UNK     1     -13.243   6.635 128.583  0.00  0.00    +0.000 HD
ATOM     17  H   UNK     1     -12.569   5.688 129.701  0.00  0.00    +0.000 HD
ENDBRANCH  14  15
BRANCH  14  18
ATOM     18  C   UNK     1     -11.484   8.376 128.117  0.00  0.00    +0.000 C 
ATOM     19  O   UNK     1     -10.917   8.436 127.031  0.00  0.00    +0.000 OA
BRANCH  18  20
ATOM     20  O   UNK     1     -12.290   9.378 128.545  0.00  0.00    +0.000 OA
ATOM     21  H   UNK     1     -12.932   9.009 129.194  0.00  0.00    +0.000 HD
ENDBRANCH  18  20
ENDBRANCH  14  18
ENDBRANCH   1  14
TORSDOF 8
ENDMDL
MODEL 8
REMARK VINA RESULT:      -5.4      2.690      5.687
REMARK  Name = Droxidopa
REMARK  8 active torsions:
REMARK  status: ('A' for Active; 'I' for Inactive)
REMARK    1  A    between atoms: N_1  and  C_2
REMARK    2  A    between atoms: C_2  and  C_3
REMARK    3  A    between atoms: C_2  and  C_13
REMARK    4  A    between atoms: C_3  and  O_4
REMARK    5  A    between atoms: C_3  and  C_5
REMARK    6  A    between atoms: C_7  and  O_8
REMARK    7  A    between atoms: C_9  and  O_10
REMARK    8  A    between atoms: C_13  and  O_14
REMARK                            x       y       z     vdW  Elec       q    Type
REMARK                         _______ _______ _______ _____ _____    ______ ____
ROOT
ATOM      1  C   UNK     1      -8.745   5.997 132.349  0.00  0.00    +0.000 C 
ENDROOT
BRANCH   1   2
ATOM      2  C   UNK     1      -9.837   6.529 131.416  0.00  0.00    +0.000 A 
ATOM      3  C   UNK     1     -11.187   6.476 131.817  0.00  0.00    +0.000 A 
ATOM      4  C   UNK     1     -12.179   7.104 131.068  0.00  0.00    +0.000 A 
ATOM      5  C   UNK     1     -11.853   7.744 129.881  0.00  0.00    +0.000 A 
ATOM      6  C   UNK     1     -10.547   7.743 129.420  0.00  0.00    +0.000 A 
ATOM      7  C   UNK     1      -9.543   7.135 130.181  0.00  0.00    +0.000 A 
BRANCH   4   8
ATOM      8  O   UNK     1     -13.482   7.126 131.482  0.00  0.00    +0.000 OA
ATOM      9  H   UNK     1     -13.906   7.921 131.112  0.00  0.00    +0.000 HD
ENDBRANCH   4   8
BRANCH   5  10
ATOM     10  O   UNK     1     -12.807   8.385 129.147  0.00  0.00    +0.000 OA
ATOM     11  H   UNK     1     -13.004   9.202 129.646  0.00  0.00    +0.000 HD
ENDBRANCH   5  10
ENDBRANCH   1   2
BRANCH   1  12
ATOM     12  O   UNK     1      -9.097   6.252 133.721  0.00  0.00    +0.000 OA
ATOM     13  H   UNK     1      -9.285   7.200 133.807  0.00  0.00    +0.000 HD
ENDBRANCH   1  12
BRANCH   1  14
ATOM     14  C   UNK     1      -8.505   4.460 132.130  0.00  0.00    +0.000 C 
BRANCH  14  15
ATOM     15  N   UNK     1      -9.163   3.887 130.904  0.00  0.00    +0.000 NA
ATOM     16  H   UNK     1      -8.506   3.944 130.122  0.00  0.00    +0.000 HD
ATOM     17  H   UNK     1      -9.916   4.531 130.641  0.00  0.00    +0.000 HD
ENDBRANCH  14  15
BRANCH  14  18
ATOM     18  C   UNK     1      -8.982   3.666 133.362  0.00  0.00    +0.000 C 
ATOM     19  O   UNK     1      -8.472   3.724 134.477  0.00  0.00    +0.000 OA
BRANCH  18  20
ATOM     20  O   UNK     1     -10.022   2.836 133.108  0.00  0.00    +0.000 OA
ATOM     21  H   UNK     1      -9.867   1.985 133.576  0.00  0.00    +0.000 HD
ENDBRANCH  18  20
ENDBRANCH  14  18
ENDBRANCH   1  14
TORSDOF 8
ENDMDL
MODEL 9
REMARK VINA RESULT:      -5.3      1.913      3.120
REMARK  Name = Droxidopa
REMARK  8 active torsions:
REMARK  status: ('A' for Active; 'I' for Inactive)
REMARK    1  A    between atoms: N_1  and  C_2
REMARK    2  A    between atoms: C_2  and  C_3
REMARK    3  A    between atoms: C_2  and  C_13
REMARK    4  A    between atoms: C_3  and  O_4
REMARK    5  A    between atoms: C_3  and  C_5
REMARK    6  A    between atoms: C_7  and  O_8
REMARK    7  A    between atoms: C_9  and  O_10
REMARK    8  A    between atoms: C_13  and  O_14
REMARK                            x       y       z     vdW  Elec       q    Type
REMARK                         _______ _______ _______ _____ _____    ______ ____
ROOT
ATOM      1  C   UNK     1     -10.417   7.632 129.408  0.00  0.00    +0.000 C 
ENDROOT
BRANCH   1   2
ATOM      2  C   UNK     1      -9.590   7.051 130.558  0.00  0.00    +0.000 A 
ATOM      3  C   UNK     1     -10.226   6.313 131.576  0.00  0.00    +0.000 A 
ATOM      4  C   UNK     1      -9.483   5.633 132.537  0.00  0.00    +0.000 A 
ATOM      5  C   UNK     1      -8.099   5.721 132.535  0.00  0.00    +0.000 A 
ATOM      6  C   UNK     1      -7.448   6.503 131.596  0.00  0.00    +0.000 A 
ATOM      7  C   UNK     1      -8.189   7.169 130.614  0.00  0.00    +0.000 A 
BRANCH   4   8
ATOM      8  O   UNK     1     -10.084   4.852 133.485  0.00  0.00    +0.000 OA
ATOM      9  H   UNK     1      -9.399   4.301 133.905  0.00  0.00    +0.000 HD
ENDBRANCH   4   8
BRANCH   5  10
ATOM     10  O   UNK     1      -7.353   5.041 133.453  0.00  0.00    +0.000 OA
ATOM     11  H   UNK     1      -6.471   4.948 133.044  0.00  0.00    +0.000 HD
ENDBRANCH   5  10
ENDBRANCH   1   2
BRANCH   1  12
ATOM     12  O   UNK     1      -9.950   7.113 128.150  0.00  0.00    +0.000 OA
ATOM     13  H   UNK     1     -10.541   7.444 127.456  0.00  0.00    +0.000 HD
ENDBRANCH   1  12
BRANCH   1  14
ATOM     14  C   UNK     1     -11.945   7.319 129.588  0.00  0.00    +0.000 C 
BRANCH  14  15
ATOM     15  N   UNK     1     -12.472   6.220 128.705  0.00  0.00    +0.000 NA
ATOM     16  H   UNK     1     -13.177   6.613 128.077  0.00  0.00    +0.000 HD
ATOM     17  H   UNK     1     -13.004   5.583 129.306  0.00  0.00    +0.000 HD
ENDBRANCH  14  15
BRANCH  14  18
ATOM     18  C   UNK     1     -12.782   8.591 129.345  0.00  0.00    +0.000 C 
ATOM     19  O   UNK     1     -12.841   9.550 130.108  0.00  0.00    +0.000 OA
BRANCH  18  20
ATOM     20  O   UNK     1     -13.507   8.557 128.202  0.00  0.00    +0.000 OA
ATOM     21  H   UNK     1     -13.186   7.809 127.648  0.00  0.00    +0.000 HD
ENDBRANCH  18  20
ENDBRANCH  14  18
ENDBRANCH   1  14
TORSDOF 8
ENDMDL
