MODEL 1
REMARK VINA RESULT:      -6.6      0.000      0.000
REMARK  Name = Duloxetine
REMARK  7 active torsions:
REMARK  status: ('A' for Active; 'I' for Inactive)
REMARK    1  A    between atoms: C_1  and  N_2
REMARK    2  A    between atoms: N_2  and  C_3
REMARK    3  A    between atoms: C_3  and  C_4
REMARK    4  A    between atoms: C_4  and  C_5
REMARK    5  A    between atoms: C_5  and  O_6
REMARK    6  A    between atoms: C_5  and  C_17
REMARK    7  A    between atoms: O_6  and  C_7
REMARK                            x       y       z     vdW  Elec       q    Type
REMARK                         _______ _______ _______ _____ _____    ______ ____
ROOT
ATOM      1  C   UNL     1      -7.452   5.073 130.294  0.00  0.00    +0.000 C 
ENDROOT
BRANCH   1   2
ATOM      2  C   UNL     1      -6.083   5.722 130.493  0.00  0.00    +0.000 A 
ATOM      3  C   UNL     1      -5.821   6.973 131.045  0.00  0.00    +0.000 A 
ATOM      4  C   UNL     1      -4.438   7.307 131.090  0.00  0.00    +0.000 A 
ATOM      5  C   UNL     1      -3.658   6.300 130.588  0.00  0.00    +0.000 A 
ATOM      6  S   UNL     1      -4.584   4.941 130.193  0.00  0.00    +0.000 S 
ENDBRANCH   1   2
BRANCH   1   7
ATOM      7  C   UNL     1      -7.644   3.839 129.365  0.00  0.00    +0.000 C 
BRANCH   7   8
ATOM      8  C   UNL     1      -7.346   3.877 127.866  0.00  0.00    +0.000 C 
BRANCH   8  10
ATOM      9  C   UNL     1      -8.079   4.748 125.750  0.00  0.00    +0.000 C 
ATOM     10  N   UNL     1      -8.300   4.767 127.191  0.00  0.00    +0.000 NA
ATOM     11  H   UNL     1      -9.247   4.438 127.383  0.00  0.00    +0.000 HD
ENDBRANCH   8  10
ENDBRANCH   7   8
ENDBRANCH   1   7
BRANCH   1  12
ATOM     12  O   UNL     1      -8.361   6.104 129.801  0.00  0.00    +0.000 OA
BRANCH  12  13
ATOM     13  C   UNL     1      -9.585   6.343 130.393  0.00  0.00    +0.000 A 
ATOM     14  C   UNL     1      -9.915   5.930 131.689  0.00  0.00    +0.000 A 
ATOM     15  C   UNL     1     -11.144   6.262 132.259  0.00  0.00    +0.000 A 
ATOM     16  C   UNL     1     -12.071   7.001 131.536  0.00  0.00    +0.000 A 
ATOM     17  C   UNL     1     -11.782   7.438 130.242  0.00  0.00    +0.000 A 
ATOM     18  C   UNL     1     -12.722   8.213 129.545  0.00  0.00    +0.000 A 
ATOM     19  C   UNL     1     -12.461   8.674 128.258  0.00  0.00    +0.000 A 
ATOM     20  C   UNL     1     -11.250   8.359 127.652  0.00  0.00    +0.000 A 
ATOM     21  C   UNL     1     -10.301   7.588 128.335  0.00  0.00    +0.000 A 
ATOM     22  C   UNL     1     -10.530   7.109 129.644  0.00  0.00    +0.000 A 
ENDBRANCH  12  13
ENDBRANCH   1  12
TORSDOF 6
ENDMDL
MODEL 2
REMARK VINA RESULT:      -6.4      5.506      9.600
REMARK  Name = Duloxetine
REMARK  7 active torsions:
REMARK  status: ('A' for Active; 'I' for Inactive)
REMARK    1  A    between atoms: C_1  and  N_2
REMARK    2  A    between atoms: N_2  and  C_3
REMARK    3  A    between atoms: C_3  and  C_4
REMARK    4  A    between atoms: C_4  and  C_5
REMARK    5  A    between atoms: C_5  and  O_6
REMARK    6  A    between atoms: C_5  and  C_17
REMARK    7  A    between atoms: O_6  and  C_7
REMARK                            x       y       z     vdW  Elec       q    Type
REMARK                         _______ _______ _______ _____ _____    ______ ____
ROOT
ATOM      1  C   UNL     1      -6.839   1.792 124.049  0.00  0.00    +0.000 C 
ENDROOT
BRANCH   1   2
ATOM      2  C   UNL     1      -7.687   0.614 123.574  0.00  0.00    +0.000 A 
ATOM      3  C   UNL     1      -9.037   0.636 123.233  0.00  0.00    +0.000 A 
ATOM      4  C   UNL     1      -9.553  -0.628 122.833  0.00  0.00    +0.000 A 
ATOM      5  C   UNL     1      -8.588  -1.599 122.854  0.00  0.00    +0.000 A 
ATOM      6  S   UNL     1      -7.072  -0.952 123.231  0.00  0.00    +0.000 S 
ENDBRANCH   1   2
BRANCH   1   7
ATOM      7  C   UNL     1      -6.709   2.150 125.558  0.00  0.00    +0.000 C 
BRANCH   7   8
ATOM      8  C   UNL     1      -7.521   1.448 126.647  0.00  0.00    +0.000 C 
BRANCH   8  10
ATOM      9  C   UNL     1      -8.019   3.094 128.325  0.00  0.00    +0.000 C 
ATOM     10  N   UNL     1      -8.540   2.363 127.177  0.00  0.00    +0.000 NA
ATOM     11  H   UNL     1      -8.790   3.032 126.447  0.00  0.00    +0.000 HD
ENDBRANCH   8  10
ENDBRANCH   7   8
ENDBRANCH   1   7
BRANCH   1  12
ATOM     12  O   UNL     1      -7.339   2.991 123.384  0.00  0.00    +0.000 OA
BRANCH  12  13
ATOM     13  C   UNL     1      -6.635   3.615 122.372  0.00  0.00    +0.000 A 
ATOM     14  C   UNL     1      -5.281   3.957 122.465  0.00  0.00    +0.000 A 
ATOM     15  C   UNL     1      -4.607   4.522 121.383  0.00  0.00    +0.000 A 
ATOM     16  C   UNL     1      -5.279   4.769 120.194  0.00  0.00    +0.000 A 
ATOM     17  C   UNL     1      -6.628   4.439 120.055  0.00  0.00    +0.000 A 
ATOM     18  C   UNL     1      -7.276   4.667 118.831  0.00  0.00    +0.000 A 
ATOM     19  C   UNL     1      -8.617   4.339 118.657  0.00  0.00    +0.000 A 
ATOM     20  C   UNL     1      -9.328   3.780 119.712  0.00  0.00    +0.000 A 
ATOM     21  C   UNL     1      -8.695   3.545 120.940  0.00  0.00    +0.000 A 
ATOM     22  C   UNL     1      -7.334   3.859 121.150  0.00  0.00    +0.000 A 
ENDBRANCH  12  13
ENDBRANCH   1  12
TORSDOF 6
ENDMDL
MODEL 3
REMARK VINA RESULT:      -6.4      6.487     10.233
REMARK  Name = Duloxetine
REMARK  7 active torsions:
REMARK  status: ('A' for Active; 'I' for Inactive)
REMARK    1  A    between atoms: C_1  and  N_2
REMARK    2  A    between atoms: N_2  and  C_3
REMARK    3  A    between atoms: C_3  and  C_4
REMARK    4  A    between atoms: C_4  and  C_5
REMARK    5  A    between atoms: C_5  and  O_6
REMARK    6  A    between atoms: C_5  and  C_17
REMARK    7  A    between atoms: O_6  and  C_7
REMARK                            x       y       z     vdW  Elec       q    Type
REMARK                         _______ _______ _______ _____ _____    ______ ____
ROOT
ATOM      1  C   UNL     1      -8.510   2.375 123.216  0.00  0.00    +0.000 C 
ENDROOT
BRANCH   1   2
ATOM      2  C   UNL     1      -7.986   3.066 121.958  0.00  0.00    +0.000 A 
ATOM      3  C   UNL     1      -8.742   3.575 120.905  0.00  0.00    +0.000 A 
ATOM      4  C   UNL     1      -7.965   4.157 119.865  0.00  0.00    +0.000 A 
ATOM      5  C   UNL     1      -6.625   4.103 120.143  0.00  0.00    +0.000 A 
ATOM      6  S   UNL     1      -6.341   3.473 121.686  0.00  0.00    +0.000 S 
ENDBRANCH   1   2
BRANCH   1   7
ATOM      7  C   UNL     1      -8.654   3.136 124.566  0.00  0.00    +0.000 C 
BRANCH   7   8
ATOM      8  C   UNL     1      -7.475   3.812 125.265  0.00  0.00    +0.000 C 
BRANCH   8  10
ATOM      9  C   UNL     1      -5.090   3.545 125.367  0.00  0.00    +0.000 C 
ATOM     10  N   UNL     1      -6.373   2.854 125.421  0.00  0.00    +0.000 NA
ATOM     11  H   UNL     1      -6.462   2.397 126.329  0.00  0.00    +0.000 HD
ENDBRANCH   8  10
ENDBRANCH   7   8
ENDBRANCH   1   7
BRANCH   1  12
ATOM     12  O   UNL     1      -7.647   1.228 123.480  0.00  0.00    +0.000 OA
BRANCH  12  13
ATOM     13  C   UNL     1      -8.115  -0.070 123.420  0.00  0.00    +0.000 A 
ATOM     14  C   UNL     1      -9.363  -0.421 122.892  0.00  0.00    +0.000 A 
ATOM     15  C   UNL     1      -9.751  -1.757 122.794  0.00  0.00    +0.000 A 
ATOM     16  C   UNL     1      -8.905  -2.764 123.237  0.00  0.00    +0.000 A 
ATOM     17  C   UNL     1      -7.649  -2.459 123.766  0.00  0.00    +0.000 A 
ATOM     18  C   UNL     1      -6.798  -3.498 124.175  0.00  0.00    +0.000 A 
ATOM     19  C   UNL     1      -5.536  -3.229 124.696  0.00  0.00    +0.000 A 
ATOM     20  C   UNL     1      -5.113  -1.910 124.817  0.00  0.00    +0.000 A 
ATOM     21  C   UNL     1      -5.950  -0.863 124.411  0.00  0.00    +0.000 A 
ATOM     22  C   UNL     1      -7.234  -1.100 123.873  0.00  0.00    +0.000 A 
ENDBRANCH  12  13
ENDBRANCH   1  12
TORSDOF 6
ENDMDL
MODEL 4
REMARK VINA RESULT:      -6.3      7.021      8.975
REMARK  Name = Duloxetine
REMARK  7 active torsions:
REMARK  status: ('A' for Active; 'I' for Inactive)
REMARK    1  A    between atoms: C_1  and  N_2
REMARK    2  A    between atoms: N_2  and  C_3
REMARK    3  A    between atoms: C_3  and  C_4
REMARK    4  A    between atoms: C_4  and  C_5
REMARK    5  A    between atoms: C_5  and  O_6
REMARK    6  A    between atoms: C_5  and  C_17
REMARK    7  A    between atoms: O_6  and  C_7
REMARK                            x       y       z     vdW  Elec       q    Type
REMARK                         _______ _______ _______ _____ _____    ______ ____
ROOT
ATOM      1  C   UNL     1      -7.469   1.794 124.197  0.00  0.00    +0.000 C 
ENDROOT
BRANCH   1   2
ATOM      2  C   UNL     1      -6.238   2.321 124.933  0.00  0.00    +0.000 A 
ATOM      3  C   UNL     1      -5.637   3.567 124.775  0.00  0.00    +0.000 A 
ATOM      4  C   UNL     1      -4.494   3.766 125.598  0.00  0.00    +0.000 A 
ATOM      5  C   UNL     1      -4.244   2.676 126.390  0.00  0.00    +0.000 A 
ATOM      6  S   UNL     1      -5.448   1.501 126.218  0.00  0.00    +0.000 S 
ENDBRANCH   1   2
BRANCH   1   7
ATOM      7  C   UNL     1      -8.527   2.756 123.583  0.00  0.00    +0.000 C 
BRANCH   7   8
ATOM      8  C   UNL     1      -8.998   2.651 122.132  0.00  0.00    +0.000 C 
BRANCH   8  10
ATOM      9  C   UNL     1      -7.166   3.725 121.009  0.00  0.00    +0.000 C 
ATOM     10  N   UNL     1      -8.570   3.839 121.382  0.00  0.00    +0.000 NA
ATOM     11  H   UNL     1      -9.131   3.910 120.533  0.00  0.00    +0.000 HD
ENDBRANCH   8  10
ENDBRANCH   7   8
ENDBRANCH   1   7
BRANCH   1  12
ATOM     12  O   UNL     1      -8.192   0.921 125.118  0.00  0.00    +0.000 OA
BRANCH  12  13
ATOM     13  C   UNL     1      -8.536  -0.373 124.781  0.00  0.00    +0.000 A 
ATOM     14  C   UNL     1      -8.880  -0.773 123.484  0.00  0.00    +0.000 A 
ATOM     15  C   UNL     1      -9.150  -2.109 123.192  0.00  0.00    +0.000 A 
ATOM     16  C   UNL     1      -9.095  -3.068 124.195  0.00  0.00    +0.000 A 
ATOM     17  C   UNL     1      -8.751  -2.714 125.501  0.00  0.00    +0.000 A 
ATOM     18  C   UNL     1      -8.670  -3.708 126.490  0.00  0.00    +0.000 A 
ATOM     19  C   UNL     1      -8.319  -3.390 127.799  0.00  0.00    +0.000 A 
ATOM     20  C   UNL     1      -8.048  -2.069 128.133  0.00  0.00    +0.000 A 
ATOM     21  C   UNL     1      -8.124  -1.067 127.157  0.00  0.00    +0.000 A 
ATOM     22  C   UNL     1      -8.470  -1.353 125.819  0.00  0.00    +0.000 A 
ENDBRANCH  12  13
ENDBRANCH   1  12
TORSDOF 6
ENDMDL
MODEL 5
REMARK VINA RESULT:      -6.2      6.640      9.440
REMARK  Name = Duloxetine
REMARK  7 active torsions:
REMARK  status: ('A' for Active; 'I' for Inactive)
REMARK    1  A    between atoms: C_1  and  N_2
REMARK    2  A    between atoms: N_2  and  C_3
REMARK    3  A    between atoms: C_3  and  C_4
REMARK    4  A    between atoms: C_4  and  C_5
REMARK    5  A    between atoms: C_5  and  O_6
REMARK    6  A    between atoms: C_5  and  C_17
REMARK    7  A    between atoms: O_6  and  C_7
REMARK                            x       y       z     vdW  Elec       q    Type
REMARK                         _______ _______ _______ _____ _____    ______ ____
ROOT
ATOM      1  C   UNL     1      -7.616   1.572 125.393  0.00  0.00    +0.000 C 
ENDROOT
BRANCH   1   2
ATOM      2  C   UNL     1      -7.751   2.220 124.016  0.00  0.00    +0.000 A 
ATOM      3  C   UNL     1      -8.908   2.323 123.248  0.00  0.00    +0.000 A 
ATOM      4  C   UNL     1      -8.716   2.977 121.999  0.00  0.00    +0.000 A 
ATOM      5  C   UNL     1      -7.419   3.383 121.835  0.00  0.00    +0.000 A 
ATOM      6  S   UNL     1      -6.499   3.083 123.221  0.00  0.00    +0.000 S 
ENDBRANCH   1   2
BRANCH   1   7
ATOM      7  C   UNL     1      -6.810   2.250 126.540  0.00  0.00    +0.000 C 
BRANCH   7   8
ATOM      8  C   UNL     1      -5.630   1.572 127.235  0.00  0.00    +0.000 C 
BRANCH   8  10
ATOM      9  C   UNL     1      -3.616   2.756 126.673  0.00  0.00    +0.000 C 
ATOM     10  N   UNL     1      -4.451   1.602 126.359  0.00  0.00    +0.000 NA
ATOM     11  H   UNL     1      -3.908   0.752 126.512  0.00  0.00    +0.000 HD
ENDBRANCH   8  10
ENDBRANCH   7   8
ENDBRANCH   1   7
BRANCH   1  12
ATOM     12  O   UNL     1      -7.026   0.251 125.202  0.00  0.00    +0.000 OA
BRANCH  12  13
ATOM     13  C   UNL     1      -7.802  -0.876 125.009  0.00  0.00    +0.000 A 
ATOM     14  C   UNL     1      -8.293  -1.276 123.761  0.00  0.00    +0.000 A 
ATOM     15  C   UNL     1      -9.012  -2.462 123.618  0.00  0.00    +0.000 A 
ATOM     16  C   UNL     1      -9.267  -3.261 124.724  0.00  0.00    +0.000 A 
ATOM     17  C   UNL     1      -8.792  -2.903 125.988  0.00  0.00    +0.000 A 
ATOM     18  C   UNL     1      -9.034  -3.745 127.084  0.00  0.00    +0.000 A 
ATOM     19  C   UNL     1      -8.565  -3.423 128.354  0.00  0.00    +0.000 A 
ATOM     20  C   UNL     1      -7.848  -2.247 128.541  0.00  0.00    +0.000 A 
ATOM     21  C   UNL     1      -7.598  -1.396 127.456  0.00  0.00    +0.000 A 
ATOM     22  C   UNL     1      -8.053  -1.695 126.153  0.00  0.00    +0.000 A 
ENDBRANCH  12  13
ENDBRANCH   1  12
TORSDOF 6
ENDMDL
MODEL 6
REMARK VINA RESULT:      -6.2      6.775      9.051
REMARK  Name = Duloxetine
REMARK  7 active torsions:
REMARK  status: ('A' for Active; 'I' for Inactive)
REMARK    1  A    between atoms: C_1  and  N_2
REMARK    2  A    between atoms: N_2  and  C_3
REMARK    3  A    between atoms: C_3  and  C_4
REMARK    4  A    between atoms: C_4  and  C_5
REMARK    5  A    between atoms: C_5  and  O_6
REMARK    6  A    between atoms: C_5  and  C_17
REMARK    7  A    between atoms: O_6  and  C_7
REMARK                            x       y       z     vdW  Elec       q    Type
REMARK                         _______ _______ _______ _____ _____    ______ ____
ROOT
ATOM      1  C   UNL     1      -7.035   1.155 124.968  0.00  0.00    +0.000 C 
ENDROOT
BRANCH   1   2
ATOM      2  C   UNL     1      -5.956   2.182 125.308  0.00  0.00    +0.000 A 
ATOM      3  C   UNL     1      -5.833   3.470 124.793  0.00  0.00    +0.000 A 
ATOM      4  C   UNL     1      -4.714   4.190 125.298  0.00  0.00    +0.000 A 
ATOM      5  C   UNL     1      -4.004   3.450 126.206  0.00  0.00    +0.000 A 
ATOM      6  S   UNL     1      -4.760   1.971 126.521  0.00  0.00    +0.000 S 
ENDBRANCH   1   2
BRANCH   1   7
ATOM      7  C   UNL     1      -8.527   1.381 125.350  0.00  0.00    +0.000 C 
BRANCH   7   8
ATOM      8  C   UNL     1      -9.552   1.961 124.376  0.00  0.00    +0.000 C 
BRANCH   8  10
ATOM      9  C   UNL     1     -10.165   0.552 122.529  0.00  0.00    +0.000 C 
ATOM     10  N   UNL     1     -10.457   0.901 123.914  0.00  0.00    +0.000 NA
ATOM     11  H   UNL     1     -10.318   0.075 124.497  0.00  0.00    +0.000 HD
ENDBRANCH   8  10
ENDBRANCH   7   8
ENDBRANCH   1   7
BRANCH   1  12
ATOM     12  O   UNL     1      -6.643  -0.113 125.575  0.00  0.00    +0.000 OA
BRANCH  12  13
ATOM     13  C   UNL     1      -7.367  -1.273 125.380  0.00  0.00    +0.000 A 
ATOM     14  C   UNL     1      -7.654  -1.806 124.117  0.00  0.00    +0.000 A 
ATOM     15  C   UNL     1      -8.330  -3.018 123.986  0.00  0.00    +0.000 A 
ATOM     16  C   UNL     1      -8.745  -3.712 125.114  0.00  0.00    +0.000 A 
ATOM     17  C   UNL     1      -8.476  -3.220 126.393  0.00  0.00    +0.000 A 
ATOM     18  C   UNL     1      -8.876  -3.957 127.519  0.00  0.00    +0.000 A 
ATOM     19  C   UNL     1      -8.613  -3.500 128.807  0.00  0.00    +0.000 A 
ATOM     20  C   UNL     1      -7.947  -2.293 128.982  0.00  0.00    +0.000 A 
ATOM     21  C   UNL     1      -7.540  -1.546 127.868  0.00  0.00    +0.000 A 
ATOM     22  C   UNL     1      -7.784  -1.983 126.547  0.00  0.00    +0.000 A 
ENDBRANCH  12  13
ENDBRANCH   1  12
TORSDOF 6
ENDMDL
MODEL 7
REMARK VINA RESULT:      -6.2      2.883      6.080
REMARK  Name = Duloxetine
REMARK  7 active torsions:
REMARK  status: ('A' for Active; 'I' for Inactive)
REMARK    1  A    between atoms: C_1  and  N_2
REMARK    2  A    between atoms: N_2  and  C_3
REMARK    3  A    between atoms: C_3  and  C_4
REMARK    4  A    between atoms: C_4  and  C_5
REMARK    5  A    between atoms: C_5  and  O_6
REMARK    6  A    between atoms: C_5  and  C_17
REMARK    7  A    between atoms: O_6  and  C_7
REMARK                            x       y       z     vdW  Elec       q    Type
REMARK                         _______ _______ _______ _____ _____    ______ ____
ROOT
ATOM      1  C   UNL     1     -10.067   5.847 130.148  0.00  0.00    +0.000 C 
ENDROOT
BRANCH   1   2
ATOM      2  C   UNL     1     -10.962   6.861 129.436  0.00  0.00    +0.000 A 
ATOM      3  C   UNL     1     -10.551   7.974 128.708  0.00  0.00    +0.000 A 
ATOM      4  C   UNL     1     -11.624   8.737 128.167  0.00  0.00    +0.000 A 
ATOM      5  C   UNL     1     -12.840   8.189 128.473  0.00  0.00    +0.000 A 
ATOM      6  S   UNL     1     -12.666   6.718 129.289  0.00  0.00    +0.000 S 
ENDBRANCH   1   2
BRANCH   1   7
ATOM      7  C   UNL     1     -10.626   4.493 130.675  0.00  0.00    +0.000 C 
BRANCH   7   8
ATOM      8  C   UNL     1      -9.963   3.149 130.372  0.00  0.00    +0.000 C 
BRANCH   8  10
ATOM      9  C   UNL     1      -8.508   1.985 128.856  0.00  0.00    +0.000 C 
ATOM     10  N   UNL     1      -9.182   3.248 129.131  0.00  0.00    +0.000 NA
ATOM     11  H   UNL     1      -9.817   3.456 128.361  0.00  0.00    +0.000 HD
ENDBRANCH   8  10
ENDBRANCH   7   8
ENDBRANCH   1   7
BRANCH   1  12
ATOM     12  O   UNL     1      -9.466   6.519 131.296  0.00  0.00    +0.000 OA
BRANCH  12  13
ATOM     13  C   UNL     1      -8.111   6.452 131.556  0.00  0.00    +0.000 A 
ATOM     14  C   UNL     1      -7.136   7.058 130.755  0.00  0.00    +0.000 A 
ATOM     15  C   UNL     1      -5.788   7.014 131.108  0.00  0.00    +0.000 A 
ATOM     16  C   UNL     1      -5.389   6.350 132.260  0.00  0.00    +0.000 A 
ATOM     17  C   UNL     1      -6.328   5.736 133.090  0.00  0.00    +0.000 A 
ATOM     18  C   UNL     1      -5.903   5.100 134.267  0.00  0.00    +0.000 A 
ATOM     19  C   UNL     1      -6.814   4.487 135.122  0.00  0.00    +0.000 A 
ATOM     20  C   UNL     1      -8.168   4.503 134.804  0.00  0.00    +0.000 A 
ATOM     21  C   UNL     1      -8.608   5.135 133.633  0.00  0.00    +0.000 A 
ATOM     22  C   UNL     1      -7.711   5.771 132.747  0.00  0.00    +0.000 A 
ENDBRANCH  12  13
ENDBRANCH   1  12
TORSDOF 6
ENDMDL
MODEL 8
REMARK VINA RESULT:      -5.9      6.647      9.249
REMARK  Name = Duloxetine
REMARK  7 active torsions:
REMARK  status: ('A' for Active; 'I' for Inactive)
REMARK    1  A    between atoms: C_1  and  N_2
REMARK    2  A    between atoms: N_2  and  C_3
REMARK    3  A    between atoms: C_3  and  C_4
REMARK    4  A    between atoms: C_4  and  C_5
REMARK    5  A    between atoms: C_5  and  O_6
REMARK    6  A    between atoms: C_5  and  C_17
REMARK    7  A    between atoms: O_6  and  C_7
REMARK                            x       y       z     vdW  Elec       q    Type
REMARK                         _______ _______ _______ _____ _____    ______ ____
ROOT
ATOM      1  C   UNL     1      -7.210   1.470 126.156  0.00  0.00    +0.000 C 
ENDROOT
BRANCH   1   2
ATOM      2  C   UNL     1      -7.551   2.029 124.775  0.00  0.00    +0.000 A 
ATOM      3  C   UNL     1      -6.654   2.404 123.778  0.00  0.00    +0.000 A 
ATOM      4  C   UNL     1      -7.277   2.899 122.598  0.00  0.00    +0.000 A 
ATOM      5  C   UNL     1      -8.642   2.880 122.699  0.00  0.00    +0.000 A 
ATOM      6  S   UNL     1      -9.142   2.160 124.145  0.00  0.00    +0.000 S 
ENDBRANCH   1   2
BRANCH   1   7
ATOM      7  C   UNL     1      -6.270   2.230 127.135  0.00  0.00    +0.000 C 
BRANCH   7   8
ATOM      8  C   UNL     1      -4.801   1.856 127.331  0.00  0.00    +0.000 C 
BRANCH   8  10
ATOM      9  C   UNL     1      -4.370   1.310 129.631  0.00  0.00    +0.000 C 
ATOM     10  N   UNL     1      -4.690   0.770 128.315  0.00  0.00    +0.000 NA
ATOM     11  H   UNL     1      -5.586   0.285 128.368  0.00  0.00    +0.000 HD
ENDBRANCH   8  10
ENDBRANCH   7   8
ENDBRANCH   1   7
BRANCH   1  12
ATOM     12  O   UNL     1      -6.621   0.149 125.962  0.00  0.00    +0.000 OA
BRANCH  12  13
ATOM     13  C   UNL     1      -7.298  -1.010 126.289  0.00  0.00    +0.000 A 
ATOM     14  C   UNL     1      -7.429  -1.489 127.598  0.00  0.00    +0.000 A 
ATOM     15  C   UNL     1      -8.184  -2.628 127.873  0.00  0.00    +0.000 A 
ATOM     16  C   UNL     1      -8.810  -3.317 126.843  0.00  0.00    +0.000 A 
ATOM     17  C   UNL     1      -8.710  -2.871 125.524  0.00  0.00    +0.000 A 
ATOM     18  C   UNL     1      -9.380  -3.566 124.504  0.00  0.00    +0.000 A 
ATOM     19  C   UNL     1      -9.310  -3.142 123.181  0.00  0.00    +0.000 A 
ATOM     20  C   UNL     1      -8.562  -2.014 122.862  0.00  0.00    +0.000 A 
ATOM     21  C   UNL     1      -7.889  -1.310 123.869  0.00  0.00    +0.000 A 
ATOM     22  C   UNL     1      -7.943  -1.708 125.223  0.00  0.00    +0.000 A 
ENDBRANCH  12  13
ENDBRANCH   1  12
TORSDOF 6
ENDMDL
MODEL 9
REMARK VINA RESULT:      -5.9      7.783     10.602
REMARK  Name = Duloxetine
REMARK  7 active torsions:
REMARK  status: ('A' for Active; 'I' for Inactive)
REMARK    1  A    between atoms: C_1  and  N_2
REMARK    2  A    between atoms: N_2  and  C_3
REMARK    3  A    between atoms: C_3  and  C_4
REMARK    4  A    between atoms: C_4  and  C_5
REMARK    5  A    between atoms: C_5  and  O_6
REMARK    6  A    between atoms: C_5  and  C_17
REMARK    7  A    between atoms: O_6  and  C_7
REMARK                            x       y       z     vdW  Elec       q    Type
REMARK                         _______ _______ _______ _____ _____    ______ ____
ROOT
ATOM      1  C   UNL     1      -6.758  -1.129 126.029  0.00  0.00    +0.000 C 
ENDROOT
BRANCH   1   2
ATOM      2  C   UNL     1      -7.647  -1.564 124.866  0.00  0.00    +0.000 A 
ATOM      3  C   UNL     1      -8.142  -2.842 124.622  0.00  0.00    +0.000 A 
ATOM      4  C   UNL     1      -8.941  -2.939 123.448  0.00  0.00    +0.000 A 
ATOM      5  C   UNL     1      -9.063  -1.729 122.818  0.00  0.00    +0.000 A 
ATOM      6  S   UNL     1      -8.326  -0.494 123.708  0.00  0.00    +0.000 S 
ENDBRANCH   1   2
BRANCH   1   7
ATOM      7  C   UNL     1      -5.484  -0.264 125.804  0.00  0.00    +0.000 C 
BRANCH   7   8
ATOM      8  C   UNL     1      -5.442   1.238 126.086  0.00  0.00    +0.000 C 
BRANCH   8  10
ATOM      9  C   UNL     1      -3.974   3.095 126.498  0.00  0.00    +0.000 C 
ATOM     10  N   UNL     1      -4.075   1.641 126.439  0.00  0.00    +0.000 NA
ATOM     11  H   UNL     1      -3.847   1.258 127.357  0.00  0.00    +0.000 HD
ENDBRANCH   8  10
ENDBRANCH   7   8
ENDBRANCH   1   7
BRANCH   1  12
ATOM     12  O   UNL     1      -6.318  -2.336 126.722  0.00  0.00    +0.000 OA
BRANCH  12  13
ATOM     13  C   UNL     1      -6.704  -2.617 128.018  0.00  0.00    +0.000 A 
ATOM     14  C   UNL     1      -8.039  -2.677 128.435  0.00  0.00    +0.000 A 
ATOM     15  C   UNL     1      -8.368  -3.035 129.742  0.00  0.00    +0.000 A 
ATOM     16  C   UNL     1      -7.368  -3.325 130.659  0.00  0.00    +0.000 A 
ATOM     17  C   UNL     1      -6.023  -3.283 130.286  0.00  0.00    +0.000 A 
ATOM     18  C   UNL     1      -5.032  -3.613 131.223  0.00  0.00    +0.000 A 
ATOM     19  C   UNL     1      -3.683  -3.592 130.879  0.00  0.00    +0.000 A 
ATOM     20  C   UNL     1      -3.312  -3.234 129.588  0.00  0.00    +0.000 A 
ATOM     21  C   UNL     1      -4.290  -2.903 128.642  0.00  0.00    +0.000 A 
ATOM     22  C   UNL     1      -5.667  -2.920 128.953  0.00  0.00    +0.000 A 
ENDBRANCH  12  13
ENDBRANCH   1  12
TORSDOF 6
ENDMDL
