MODEL 1
REMARK VINA RESULT:     -11.0      0.000      0.000
REMARK  Name = Dutasteride
REMARK  6 active torsions:
REMARK  status: ('A' for Active; 'I' for Inactive)
REMARK    1  A    between atoms: C_2  and  C_26
REMARK    2  A    between atoms: C_18  and  C_19
REMARK    3  A    between atoms: C_24  and  C_25
REMARK    4  A    between atoms: N_28  and  C_29
REMARK    5  A    between atoms: C_31  and  C_39
REMARK    6  A    between atoms: C_34  and  C_35
REMARK                            x       y       z     vdW  Elec       q    Type
REMARK                         _______ _______ _______ _____ _____    ______ ____
ROOT
ATOM      1  C   UNL     1      -4.936   2.803 126.081  0.00  0.00    +0.000 C 
ATOM      2  C   UNL     1      -5.804   3.034 127.201  0.00  0.00    +0.000 C 
ATOM      3  C   UNL     1      -4.931   1.945 127.886  0.00  0.00    +0.000 C 
ATOM      4  C   UNL     1      -4.170   2.863 128.690  0.00  0.00    +0.000 C 
ATOM      5  C   UNL     1      -5.171   3.870 129.459  0.00  0.00    +0.000 C 
ATOM      6  C   UNL     1      -6.305   3.057 130.040  0.00  0.00    +0.000 C 
ATOM      7  C   UNL     1      -7.295   3.990 130.659  0.00  0.00    +0.000 C 
ATOM      8  C   UNL     1      -6.524   4.655 131.865  0.00  0.00    +0.000 C 
ATOM      9  N   UNL     1      -7.227   5.273 132.954  0.00  0.00    +0.000 N 
ATOM     10  C   UNL     1      -8.469   5.556 132.559  0.00  0.00    +0.000 C 
ATOM     11  O   UNL     1      -9.430   5.022 133.063  0.00  0.00    +0.000 OA
ATOM     12  C   UNL     1      -8.283   6.658 131.522  0.00  0.00    +0.000 C 
ATOM     13  C   UNL     1      -7.025   6.760 130.871  0.00  0.00    +0.000 C 
ATOM     14  C   UNL     1      -5.660   5.755 131.264  0.00  0.00    +0.000 C 
ATOM     15  C   UNL     1      -4.789   6.389 132.403  0.00  0.00    +0.000 C 
ATOM     16  C   UNL     1      -4.590   4.810 130.486  0.00  0.00    +0.000 C 
ATOM     17  C   UNL     1      -3.406   5.437 129.820  0.00  0.00    +0.000 C 
ATOM     18  C   UNL     1      -2.774   4.371 128.919  0.00  0.00    +0.000 C 
ATOM     19  C   UNL     1      -3.540   3.530 127.352  0.00  0.00    +0.000 C 
ATOM     20  C   UNL     1      -1.985   3.792 126.913  0.00  0.00    +0.000 C 
ATOM     21  H   UNL     1      -6.873   6.224 133.071  0.00  0.00    +0.000 HD
ENDROOT
BRANCH   1  22
ATOM     22  C   UNL     1      -6.306   1.399 125.652  0.00  0.00    +0.000 C 
ATOM     23  O   UNL     1      -7.373   1.676 125.083  0.00  0.00    +0.000 OA
ATOM     24  N   UNL     1      -6.128  -0.084 125.746  0.00  0.00    +0.000 N 
ATOM     25  H   UNL     1      -5.313  -0.422 126.222  0.00  0.00    +0.000 HD
BRANCH  24  26
ATOM     26  C   UNL     1      -7.124  -1.327 125.456  0.00  0.00    +0.000 A 
ATOM     27  C   UNL     1      -7.712  -1.973 126.589  0.00  0.00    +0.000 A 
ATOM     28  C   UNL     1      -8.499  -3.203 126.563  0.00  0.00    +0.000 A 
ATOM     29  C   UNL     1      -8.803  -3.827 125.360  0.00  0.00    +0.000 A 
ATOM     30  C   UNL     1      -8.197  -3.311 124.229  0.00  0.00    +0.000 A 
ATOM     31  C   UNL     1      -7.356  -2.097 124.265  0.00  0.00    +0.000 A 
BRANCH  31  32
ATOM     32  C   UNL     1      -6.746  -1.791 122.932  0.00  0.00    +0.000 C 
ATOM     33  F   UNL     1      -6.538  -0.448 122.747  0.00  0.00    +0.000 F 
ATOM     34  F   UNL     1      -5.513  -2.356 122.810  0.00  0.00    +0.000 F 
ATOM     35  F   UNL     1      -7.493  -2.189 121.881  0.00  0.00    +0.000 F 
ENDBRANCH  31  32
BRANCH  28  36
ATOM     36  C   UNL     1      -8.937  -3.893 127.844  0.00  0.00    +0.000 C 
ATOM     37  F   UNL     1      -8.248  -5.050 128.048  0.00  0.00    +0.000 F 
ATOM     38  F   UNL     1      -8.745  -3.130 128.949  0.00  0.00    +0.000 F 
ATOM     39  F   UNL     1     -10.256  -4.253 127.860  0.00  0.00    +0.000 F 
ENDBRANCH  28  36
ENDBRANCH  24  26
ENDBRANCH   1  22
TORSDOF 4
ENDMDL
MODEL 2
REMARK VINA RESULT:     -10.8      2.268      4.280
REMARK  Name = Dutasteride
REMARK  6 active torsions:
REMARK  status: ('A' for Active; 'I' for Inactive)
REMARK    1  A    between atoms: C_2  and  C_26
REMARK    2  A    between atoms: C_18  and  C_19
REMARK    3  A    between atoms: C_24  and  C_25
REMARK    4  A    between atoms: N_28  and  C_29
REMARK    5  A    between atoms: C_31  and  C_39
REMARK    6  A    between atoms: C_34  and  C_35
REMARK                            x       y       z     vdW  Elec       q    Type
REMARK                         _______ _______ _______ _____ _____    ______ ____
ROOT
ATOM      1  C   UNL     1      -4.817   1.120 129.662  0.00  0.00    +0.000 C 
ATOM      2  C   UNL     1      -6.062   1.828 129.771  0.00  0.00    +0.000 C 
ATOM      3  C   UNL     1      -6.454   0.649 130.705  0.00  0.00    +0.000 C 
ATOM      4  C   UNL     1      -6.293   1.385 131.931  0.00  0.00    +0.000 C 
ATOM      5  C   UNL     1      -7.080   2.790 131.828  0.00  0.00    +0.000 C 
ATOM      6  C   UNL     1      -8.445   2.526 131.234  0.00  0.00    +0.000 C 
ATOM      7  C   UNL     1      -9.141   3.833 131.031  0.00  0.00    +0.000 C 
ATOM      8  C   UNL     1      -9.361   4.403 132.486  0.00  0.00    +0.000 C 
ATOM      9  N   UNL     1     -10.352   5.407 132.756  0.00  0.00    +0.000 N 
ATOM     10  C   UNL     1     -10.669   6.017 131.612  0.00  0.00    +0.000 C 
ATOM     11  O   UNL     1     -11.780   5.937 131.140  0.00  0.00    +0.000 OA
ATOM     12  C   UNL     1      -9.406   6.787 131.244  0.00  0.00    +0.000 C 
ATOM     13  C   UNL     1      -8.168   6.340 131.780  0.00  0.00    +0.000 C 
ATOM     14  C   UNL     1      -8.035   5.021 132.907  0.00  0.00    +0.000 C 
ATOM     15  C   UNL     1      -8.159   5.517 134.389  0.00  0.00    +0.000 C 
ATOM     16  C   UNL     1      -7.179   3.648 133.066  0.00  0.00    +0.000 C 
ATOM     17  C   UNL     1      -5.789   3.709 133.614  0.00  0.00    +0.000 C 
ATOM     18  C   UNL     1      -5.134   2.348 133.347  0.00  0.00    +0.000 C 
ATOM     19  C   UNL     1      -4.706   1.549 131.636  0.00  0.00    +0.000 C 
ATOM     20  C   UNL     1      -3.400   1.188 132.555  0.00  0.00    +0.000 C 
ATOM     21  H   UNL     1      -9.902   6.188 133.236  0.00  0.00    +0.000 HD
ENDROOT
BRANCH   1  22
ATOM     22  C   UNL     1      -5.775   0.209 128.152  0.00  0.00    +0.000 C 
ATOM     23  O   UNL     1      -6.195   0.835 127.168  0.00  0.00    +0.000 OA
ATOM     24  N   UNL     1      -5.890  -1.268 127.926  0.00  0.00    +0.000 N 
ATOM     25  H   UNL     1      -5.612  -1.872 128.675  0.00  0.00    +0.000 HD
BRANCH  24  26
ATOM     26  C   UNL     1      -6.629  -2.145 126.784  0.00  0.00    +0.000 A 
ATOM     27  C   UNL     1      -6.325  -1.837 125.422  0.00  0.00    +0.000 A 
ATOM     28  C   UNL     1      -6.996  -2.385 124.246  0.00  0.00    +0.000 A 
ATOM     29  C   UNL     1      -7.987  -3.349 124.380  0.00  0.00    +0.000 A 
ATOM     30  C   UNL     1      -8.398  -3.635 125.668  0.00  0.00    +0.000 A 
ATOM     31  C   UNL     1      -7.754  -3.037 126.856  0.00  0.00    +0.000 A 
BRANCH  31  32
ATOM     32  C   UNL     1      -8.434  -3.435 128.130  0.00  0.00    +0.000 C 
ATOM     33  F   UNL     1      -7.635  -4.212 128.929  0.00  0.00    +0.000 F 
ATOM     34  F   UNL     1      -8.739  -2.348 128.890  0.00  0.00    +0.000 F 
ATOM     35  F   UNL     1      -9.565  -4.148 127.949  0.00  0.00    +0.000 F 
ENDBRANCH  31  32
BRANCH  28  36
ATOM     36  C   UNL     1      -6.703  -1.865 122.849  0.00  0.00    +0.000 C 
ATOM     37  F   UNL     1      -7.712  -2.166 121.983  0.00  0.00    +0.000 F 
ATOM     38  F   UNL     1      -6.548  -0.519 122.806  0.00  0.00    +0.000 F 
ATOM     39  F   UNL     1      -5.576  -2.392 122.282  0.00  0.00    +0.000 F 
ENDBRANCH  28  36
ENDBRANCH  24  26
ENDBRANCH   1  22
TORSDOF 4
ENDMDL
MODEL 3
REMARK VINA RESULT:     -10.5      4.654      9.460
REMARK  Name = Dutasteride
REMARK  6 active torsions:
REMARK  status: ('A' for Active; 'I' for Inactive)
REMARK    1  A    between atoms: C_2  and  C_26
REMARK    2  A    between atoms: C_18  and  C_19
REMARK    3  A    between atoms: C_24  and  C_25
REMARK    4  A    between atoms: N_28  and  C_29
REMARK    5  A    between atoms: C_31  and  C_39
REMARK    6  A    between atoms: C_34  and  C_35
REMARK                            x       y       z     vdW  Elec       q    Type
REMARK                         _______ _______ _______ _____ _____    ______ ____
ROOT
ATOM      1  C   UNL     1      -6.378   0.285 131.030  0.00  0.00    +0.000 C 
ATOM      2  C   UNL     1      -6.276   0.275 129.598  0.00  0.00    +0.000 C 
ATOM      3  C   UNL     1      -5.165  -0.782 129.854  0.00  0.00    +0.000 C 
ATOM      4  C   UNL     1      -5.967  -1.918 129.488  0.00  0.00    +0.000 C 
ATOM      5  C   UNL     1      -6.679  -1.645 128.066  0.00  0.00    +0.000 C 
ATOM      6  C   UNL     1      -5.647  -1.065 127.125  0.00  0.00    +0.000 C 
ATOM      7  C   UNL     1      -6.319  -0.705 125.839  0.00  0.00    +0.000 C 
ATOM      8  C   UNL     1      -6.792  -2.083 125.231  0.00  0.00    +0.000 C 
ATOM      9  N   UNL     1      -7.090  -2.223 123.833  0.00  0.00    +0.000 N 
ATOM     10  C   UNL     1      -7.318  -1.013 123.319  0.00  0.00    +0.000 C 
ATOM     11  O   UNL     1      -6.591  -0.536 122.478  0.00  0.00    +0.000 OA
ATOM     12  C   UNL     1      -8.626  -0.578 123.968  0.00  0.00    +0.000 C 
ATOM     13  C   UNL     1      -8.995  -1.179 125.202  0.00  0.00    +0.000 C 
ATOM     14  C   UNL     1      -8.079  -2.451 125.957  0.00  0.00    +0.000 C 
ATOM     15  C   UNL     1      -8.546  -3.864 125.468  0.00  0.00    +0.000 C 
ATOM     16  C   UNL     1      -7.437  -2.776 127.415  0.00  0.00    +0.000 C 
ATOM     17  C   UNL     1      -8.311  -3.334 128.493  0.00  0.00    +0.000 C 
ATOM     18  C   UNL     1      -7.531  -3.232 129.810  0.00  0.00    +0.000 C 
ATOM     19  C   UNL     1      -6.963  -1.629 130.736  0.00  0.00    +0.000 C 
ATOM     20  C   UNL     1      -7.474  -2.603 131.950  0.00  0.00    +0.000 C 
ATOM     21  H   UNL     1      -8.027  -2.618 123.738  0.00  0.00    +0.000 HD
ENDROOT
BRANCH   1  22
ATOM     22  C   UNL     1      -4.961   1.696 130.854  0.00  0.00    +0.000 C 
ATOM     23  O   UNL     1      -3.921   1.668 131.528  0.00  0.00    +0.000 OA
ATOM     24  N   UNL     1      -4.878   2.754 129.798  0.00  0.00    +0.000 N 
ATOM     25  H   UNL     1      -5.683   2.889 129.216  0.00  0.00    +0.000 HD
BRANCH  24  26
ATOM     26  C   UNL     1      -3.825   3.955 129.533  0.00  0.00    +0.000 A 
ATOM     27  C   UNL     1      -3.860   5.067 130.431  0.00  0.00    +0.000 A 
ATOM     28  C   UNL     1      -3.121   6.318 130.279  0.00  0.00    +0.000 A 
ATOM     29  C   UNL     1      -2.233   6.493 129.225  0.00  0.00    +0.000 A 
ATOM     30  C   UNL     1      -2.209   5.498 128.267  0.00  0.00    +0.000 A 
ATOM     31  C   UNL     1      -2.999   4.256 128.395  0.00  0.00    +0.000 A 
BRANCH  31  32
ATOM     32  C   UNL     1      -2.872   3.376 127.191  0.00  0.00    +0.000 C 
ATOM     33  F   UNL     1      -3.682   2.272 127.260  0.00  0.00    +0.000 F 
ATOM     34  F   UNL     1      -3.261   4.025 126.059  0.00  0.00    +0.000 F 
ATOM     35  F   UNL     1      -1.626   2.898 126.989  0.00  0.00    +0.000 F 
ENDBRANCH  31  32
BRANCH  28  36
ATOM     36  C   UNL     1      -3.358   7.498 131.205  0.00  0.00    +0.000 C 
ATOM     37  F   UNL     1      -4.355   7.239 132.097  0.00  0.00    +0.000 F 
ATOM     38  F   UNL     1      -2.263   7.827 131.935  0.00  0.00    +0.000 F 
ATOM     39  F   UNL     1      -3.740   8.643 130.563  0.00  0.00    +0.000 F 
ENDBRANCH  28  36
ENDBRANCH  24  26
ENDBRANCH   1  22
TORSDOF 4
ENDMDL
MODEL 4
REMARK VINA RESULT:     -10.2      6.114      9.575
REMARK  Name = Dutasteride
REMARK  6 active torsions:
REMARK  status: ('A' for Active; 'I' for Inactive)
REMARK    1  A    between atoms: C_2  and  C_26
REMARK    2  A    between atoms: C_18  and  C_19
REMARK    3  A    between atoms: C_24  and  C_25
REMARK    4  A    between atoms: N_28  and  C_29
REMARK    5  A    between atoms: C_31  and  C_39
REMARK    6  A    between atoms: C_34  and  C_35
REMARK                            x       y       z     vdW  Elec       q    Type
REMARK                         _______ _______ _______ _____ _____    ______ ____
ROOT
ATOM      1  C   UNL     1      -7.337   0.243 129.224  0.00  0.00    +0.000 C 
ATOM      2  C   UNL     1      -6.827  -0.042 130.537  0.00  0.00    +0.000 C 
ATOM      3  C   UNL     1      -8.258  -0.596 130.786  0.00  0.00    +0.000 C 
ATOM      4  C   UNL     1      -7.888  -1.983 130.687  0.00  0.00    +0.000 C 
ATOM      5  C   UNL     1      -6.604  -2.270 131.622  0.00  0.00    +0.000 C 
ATOM      6  C   UNL     1      -6.834  -1.603 132.959  0.00  0.00    +0.000 C 
ATOM      7  C   UNL     1      -5.606  -1.768 133.796  0.00  0.00    +0.000 C 
ATOM      8  C   UNL     1      -5.500  -3.321 134.054  0.00  0.00    +0.000 C 
ATOM      9  N   UNL     1      -4.726  -3.848 135.143  0.00  0.00    +0.000 N 
ATOM     10  C   UNL     1      -3.854  -2.920 135.541  0.00  0.00    +0.000 C 
ATOM     11  O   UNL     1      -3.915  -2.426 136.643  0.00  0.00    +0.000 OA
ATOM     12  C   UNL     1      -2.881  -2.806 134.374  0.00  0.00    +0.000 C 
ATOM     13  C   UNL     1      -3.325  -3.214 133.087  0.00  0.00    +0.000 C 
ATOM     14  C   UNL     1      -4.888  -3.923 132.796  0.00  0.00    +0.000 C 
ATOM     15  C   UNL     1      -4.849  -5.482 132.951  0.00  0.00    +0.000 C 
ATOM     16  C   UNL     1      -6.150  -3.699 131.796  0.00  0.00    +0.000 C 
ATOM     17  C   UNL     1      -6.097  -4.265 130.412  0.00  0.00    +0.000 C 
ATOM     18  C   UNL     1      -7.248  -3.633 129.619  0.00  0.00    +0.000 C 
ATOM     19  C   UNL     1      -7.477  -1.773 129.132  0.00  0.00    +0.000 C 
ATOM     20  C   UNL     1      -7.942  -2.574 127.781  0.00  0.00    +0.000 C 
ATOM     21  H   UNL     1      -4.071  -4.538 134.773  0.00  0.00    +0.000 HD
ENDROOT
BRANCH   1  22
ATOM     22  C   UNL     1      -7.880   1.966 130.101  0.00  0.00    +0.000 C 
ATOM     23  O   UNL     1      -7.082   2.901 130.258  0.00  0.00    +0.000 OA
ATOM     24  N   UNL     1      -9.273   2.397 130.440  0.00  0.00    +0.000 N 
ATOM     25  H   UNL     1      -9.997   1.707 130.383  0.00  0.00    +0.000 HD
BRANCH  24  26
ATOM     26  C   UNL     1      -9.864   3.727 131.150  0.00  0.00    +0.000 A 
ATOM     27  C   UNL     1     -10.661   4.600 130.346  0.00  0.00    +0.000 A 
ATOM     28  C   UNL     1     -11.148   5.921 130.736  0.00  0.00    +0.000 A 
ATOM     29  C   UNL     1     -10.911   6.417 132.011  0.00  0.00    +0.000 A 
ATOM     30  C   UNL     1     -10.073   5.669 132.817  0.00  0.00    +0.000 A 
ATOM     31  C   UNL     1      -9.537   4.357 132.400  0.00  0.00    +0.000 A 
BRANCH  31  32
ATOM     32  C   UNL     1      -8.587   3.787 133.408  0.00  0.00    +0.000 C 
ATOM     33  F   UNL     1      -7.289   4.159 133.173  0.00  0.00    +0.000 F 
ATOM     34  F   UNL     1      -8.861   4.243 134.662  0.00  0.00    +0.000 F 
ATOM     35  F   UNL     1      -8.574   2.438 133.449  0.00  0.00    +0.000 F 
ENDBRANCH  31  32
BRANCH  28  36
ATOM     36  C   UNL     1     -11.849   6.833 129.744  0.00  0.00    +0.000 C 
ATOM     37  F   UNL     1     -12.989   6.263 129.261  0.00  0.00    +0.000 F 
ATOM     38  F   UNL     1     -12.211   8.023 130.283  0.00  0.00    +0.000 F 
ATOM     39  F   UNL     1     -11.103   7.133 128.639  0.00  0.00    +0.000 F 
ENDBRANCH  28  36
ENDBRANCH  24  26
ENDBRANCH   1  22
TORSDOF 4
ENDMDL
MODEL 5
REMARK VINA RESULT:     -10.1      3.623      5.765
REMARK  Name = Dutasteride
REMARK  6 active torsions:
REMARK  status: ('A' for Active; 'I' for Inactive)
REMARK    1  A    between atoms: C_2  and  C_26
REMARK    2  A    between atoms: C_18  and  C_19
REMARK    3  A    between atoms: C_24  and  C_25
REMARK    4  A    between atoms: N_28  and  C_29
REMARK    5  A    between atoms: C_31  and  C_39
REMARK    6  A    between atoms: C_34  and  C_35
REMARK                            x       y       z     vdW  Elec       q    Type
REMARK                         _______ _______ _______ _____ _____    ______ ____
ROOT
ATOM      1  C   UNL     1      -5.858   0.164 128.652  0.00  0.00    +0.000 C 
ATOM      2  C   UNL     1      -6.720   1.297 128.842  0.00  0.00    +0.000 C 
ATOM      3  C   UNL     1      -7.810   0.214 129.077  0.00  0.00    +0.000 C 
ATOM      4  C   UNL     1      -7.838   0.353 130.508  0.00  0.00    +0.000 C 
ATOM      5  C   UNL     1      -7.980   1.913 130.899  0.00  0.00    +0.000 C 
ATOM      6  C   UNL     1      -9.047   2.525 130.021  0.00  0.00    +0.000 C 
ATOM      7  C   UNL     1      -9.110   3.993 130.296  0.00  0.00    +0.000 C 
ATOM      8  C   UNL     1      -9.608   4.103 131.790  0.00  0.00    +0.000 C 
ATOM      9  N   UNL     1     -10.201   5.309 132.296  0.00  0.00    +0.000 N 
ATOM     10  C   UNL     1      -9.855   6.324 131.502  0.00  0.00    +0.000 C 
ATOM     11  O   UNL     1     -10.678   6.931 130.856  0.00  0.00    +0.000 OA
ATOM     12  C   UNL     1      -8.357   6.482 131.738  0.00  0.00    +0.000 C 
ATOM     13  C   UNL     1      -7.634   5.362 132.230  0.00  0.00    +0.000 C 
ATOM     14  C   UNL     1      -8.387   3.854 132.665  0.00  0.00    +0.000 C 
ATOM     15  C   UNL     1      -8.837   3.849 134.166  0.00  0.00    +0.000 C 
ATOM     16  C   UNL     1      -8.194   2.271 132.349  0.00  0.00    +0.000 C 
ATOM     17  C   UNL     1      -7.161   1.494 133.102  0.00  0.00    +0.000 C 
ATOM     18  C   UNL     1      -6.988   0.151 132.382  0.00  0.00    +0.000 C 
ATOM     19  C   UNL     1      -6.303  -0.163 130.599  0.00  0.00    +0.000 C 
ATOM     20  C   UNL     1      -5.625  -1.367 131.478  0.00  0.00    +0.000 C 
ATOM     21  H   UNL     1      -9.701   5.587 133.142  0.00  0.00    +0.000 HD
ENDROOT
BRANCH   1  22
ATOM     22  C   UNL     1      -6.483   0.345 126.753  0.00  0.00    +0.000 C 
ATOM     23  O   UNL     1      -6.955  -0.613 126.124  0.00  0.00    +0.000 OA
ATOM     24  N   UNL     1      -6.662   1.620 125.987  0.00  0.00    +0.000 N 
ATOM     25  H   UNL     1      -6.283   2.456 126.388  0.00  0.00    +0.000 HD
BRANCH  24  26
ATOM     26  C   UNL     1      -7.133   1.927 124.470  0.00  0.00    +0.000 A 
ATOM     27  C   UNL     1      -6.234   2.667 123.641  0.00  0.00    +0.000 A 
ATOM     28  C   UNL     1      -6.526   3.191 122.309  0.00  0.00    +0.000 A 
ATOM     29  C   UNL     1      -7.745   2.932 121.697  0.00  0.00    +0.000 A 
ATOM     30  C   UNL     1      -8.700   2.298 122.468  0.00  0.00    +0.000 A 
ATOM     31  C   UNL     1      -8.420   1.816 123.837  0.00  0.00    +0.000 A 
BRANCH  31  32
ATOM     32  C   UNL     1      -9.636   1.243 124.496  0.00  0.00    +0.000 C 
ATOM     33  F   UNL     1     -10.799   1.769 123.997  0.00  0.00    +0.000 F 
ATOM     34  F   UNL     1      -9.734  -0.097 124.276  0.00  0.00    +0.000 F 
ATOM     35  F   UNL     1      -9.688   1.451 125.828  0.00  0.00    +0.000 F 
ENDBRANCH  31  32
BRANCH  28  36
ATOM     36  C   UNL     1      -5.553   4.105 121.584  0.00  0.00    +0.000 C 
ATOM     37  F   UNL     1      -4.931   4.956 122.447  0.00  0.00    +0.000 F 
ATOM     38  F   UNL     1      -4.572   3.428 120.936  0.00  0.00    +0.000 F 
ATOM     39  F   UNL     1      -6.137   4.909 120.646  0.00  0.00    +0.000 F 
ENDBRANCH  28  36
ENDBRANCH  24  26
ENDBRANCH   1  22
TORSDOF 4
ENDMDL
MODEL 6
REMARK VINA RESULT:     -10.1      3.909      5.795
REMARK  Name = Dutasteride
REMARK  6 active torsions:
REMARK  status: ('A' for Active; 'I' for Inactive)
REMARK    1  A    between atoms: C_2  and  C_26
REMARK    2  A    between atoms: C_18  and  C_19
REMARK    3  A    between atoms: C_24  and  C_25
REMARK    4  A    between atoms: N_28  and  C_29
REMARK    5  A    between atoms: C_31  and  C_39
REMARK    6  A    between atoms: C_34  and  C_35
REMARK                            x       y       z     vdW  Elec       q    Type
REMARK                         _______ _______ _______ _____ _____    ______ ____
ROOT
ATOM      1  C   UNL     1      -3.204   5.793 128.652  0.00  0.00    +0.000 C 
ATOM      2  C   UNL     1      -4.355   5.166 129.238  0.00  0.00    +0.000 C 
ATOM      3  C   UNL     1      -3.344   4.043 129.606  0.00  0.00    +0.000 C 
ATOM      4  C   UNL     1      -3.231   4.408 130.992  0.00  0.00    +0.000 C 
ATOM      5  C   UNL     1      -4.703   4.578 131.631  0.00  0.00    +0.000 C 
ATOM      6  C   UNL     1      -5.550   3.408 131.185  0.00  0.00    +0.000 C 
ATOM      7  C   UNL     1      -6.947   3.611 131.679  0.00  0.00    +0.000 C 
ATOM      8  C   UNL     1      -6.833   3.539 133.251  0.00  0.00    +0.000 C 
ATOM      9  N   UNL     1      -7.977   3.261 134.073  0.00  0.00    +0.000 N 
ATOM     10  C   UNL     1      -9.083   3.517 133.373  0.00  0.00    +0.000 C 
ATOM     11  O   UNL     1      -9.862   2.640 133.078  0.00  0.00    +0.000 OA
ATOM     12  C   UNL     1      -9.068   5.032 133.202  0.00  0.00    +0.000 C 
ATOM     13  C   UNL     1      -7.821   5.705 133.304  0.00  0.00    +0.000 C 
ATOM     14  C   UNL     1      -6.330   4.903 133.705  0.00  0.00    +0.000 C 
ATOM     15  C   UNL     1      -6.099   4.863 135.255  0.00  0.00    +0.000 C 
ATOM     16  C   UNL     1      -4.817   4.798 133.120  0.00  0.00    +0.000 C 
ATOM     17  C   UNL     1      -3.834   5.881 133.433  0.00  0.00    +0.000 C 
ATOM     18  C   UNL     1      -2.629   5.684 132.505  0.00  0.00    +0.000 C 
ATOM     19  C   UNL     1      -2.577   5.833 130.575  0.00  0.00    +0.000 C 
ATOM     20  C   UNL     1      -1.183   6.554 131.044  0.00  0.00    +0.000 C 
ATOM     21  H   UNL     1      -8.058   3.996 134.778  0.00  0.00    +0.000 HD
ENDROOT
BRANCH   1  22
ATOM     22  C   UNL     1      -3.769   4.724 127.050  0.00  0.00    +0.000 C 
ATOM     23  O   UNL     1      -3.019   3.893 126.517  0.00  0.00    +0.000 OA
ATOM     24  N   UNL     1      -5.150   4.632 126.478  0.00  0.00    +0.000 N 
ATOM     25  H   UNL     1      -5.833   5.285 126.811  0.00  0.00    +0.000 HD
BRANCH  24  26
ATOM     26  C   UNL     1      -5.755   3.839 125.202  0.00  0.00    +0.000 A 
ATOM     27  C   UNL     1      -5.258   4.201 123.911  0.00  0.00    +0.000 A 
ATOM     28  C   UNL     1      -5.780   3.735 122.628  0.00  0.00    +0.000 A 
ATOM     29  C   UNL     1      -6.810   2.805 122.577  0.00  0.00    +0.000 A 
ATOM     30  C   UNL     1      -7.401   2.473 123.781  0.00  0.00    +0.000 A 
ATOM     31  C   UNL     1      -6.906   2.988 125.075  0.00  0.00    +0.000 A 
BRANCH  31  32
ATOM     32  C   UNL     1      -7.765   2.556 126.223  0.00  0.00    +0.000 C 
ATOM     33  F   UNL     1      -7.104   1.718 127.085  0.00  0.00    +0.000 F 
ATOM     34  F   UNL     1      -8.144   3.617 126.986  0.00  0.00    +0.000 F 
ATOM     35  F   UNL     1      -8.879   1.889 125.855  0.00  0.00    +0.000 F 
ENDBRANCH  31  32
BRANCH  28  36
ATOM     36  C   UNL     1      -5.283   4.310 121.313  0.00  0.00    +0.000 C 
ATOM     37  F   UNL     1      -4.591   3.383 120.593  0.00  0.00    +0.000 F 
ATOM     38  F   UNL     1      -6.287   4.748 120.513  0.00  0.00    +0.000 F 
ATOM     39  F   UNL     1      -4.427   5.366 121.453  0.00  0.00    +0.000 F 
ENDBRANCH  28  36
ENDBRANCH  24  26
ENDBRANCH   1  22
TORSDOF 4
ENDMDL
MODEL 7
REMARK VINA RESULT:     -10.1      2.630      4.001
REMARK  Name = Dutasteride
REMARK  6 active torsions:
REMARK  status: ('A' for Active; 'I' for Inactive)
REMARK    1  A    between atoms: C_2  and  C_26
REMARK    2  A    between atoms: C_18  and  C_19
REMARK    3  A    between atoms: C_24  and  C_25
REMARK    4  A    between atoms: N_28  and  C_29
REMARK    5  A    between atoms: C_31  and  C_39
REMARK    6  A    between atoms: C_34  and  C_35
REMARK                            x       y       z     vdW  Elec       q    Type
REMARK                         _______ _______ _______ _____ _____    ______ ____
ROOT
ATOM      1  C   UNL     1      -4.478   1.454 129.555  0.00  0.00    +0.000 C 
ATOM      2  C   UNL     1      -5.742   2.137 129.548  0.00  0.00    +0.000 C 
ATOM      3  C   UNL     1      -6.210   0.921 130.397  0.00  0.00    +0.000 C 
ATOM      4  C   UNL     1      -6.200   1.618 131.654  0.00  0.00    +0.000 C 
ATOM      5  C   UNL     1      -7.000   3.012 131.509  0.00  0.00    +0.000 C 
ATOM      6  C   UNL     1      -8.285   2.744 130.761  0.00  0.00    +0.000 C 
ATOM      7  C   UNL     1      -8.983   4.045 130.523  0.00  0.00    +0.000 C 
ATOM      8  C   UNL     1      -9.372   4.563 131.962  0.00  0.00    +0.000 C 
ATOM      9  N   UNL     1     -10.408   5.539 132.152  0.00  0.00    +0.000 N 
ATOM     10  C   UNL     1     -10.610   6.181 131.000  0.00  0.00    +0.000 C 
ATOM     11  O   UNL     1     -11.660   6.098 130.405  0.00  0.00    +0.000 OA
ATOM     12  C   UNL     1      -9.331   6.985 130.797  0.00  0.00    +0.000 C 
ATOM     13  C   UNL     1      -8.150   6.542 131.452  0.00  0.00    +0.000 C 
ATOM     14  C   UNL     1      -8.114   5.189 132.546  0.00  0.00    +0.000 C 
ATOM     15  C   UNL     1      -8.410   5.634 134.019  0.00  0.00    +0.000 C 
ATOM     16  C   UNL     1      -7.252   3.826 132.755  0.00  0.00    +0.000 C 
ATOM     17  C   UNL     1      -5.932   3.894 133.454  0.00  0.00    +0.000 C 
ATOM     18  C   UNL     1      -5.224   2.554 133.219  0.00  0.00    +0.000 C 
ATOM     19  C   UNL     1      -4.594   1.819 131.542  0.00  0.00    +0.000 C 
ATOM     20  C   UNL     1      -3.389   1.451 132.588  0.00  0.00    +0.000 C 
ATOM     21  H   UNL     1     -10.030   6.311 132.703  0.00  0.00    +0.000 HD
ENDROOT
BRANCH   1  22
ATOM     22  C   UNL     1      -5.245   0.577 127.921  0.00  0.00    +0.000 C 
ATOM     23  O   UNL     1      -5.473   1.212 126.881  0.00  0.00    +0.000 OA
ATOM     24  N   UNL     1      -5.410  -0.893 127.688  0.00  0.00    +0.000 N 
ATOM     25  H   UNL     1      -5.285  -1.502 128.474  0.00  0.00    +0.000 HD
BRANCH  24  26
ATOM     26  C   UNL     1      -6.016  -1.744 126.451  0.00  0.00    +0.000 A 
ATOM     27  C   UNL     1      -5.106  -2.561 125.710  0.00  0.00    +0.000 A 
ATOM     28  C   UNL     1      -5.405  -3.272 124.470  0.00  0.00    +0.000 A 
ATOM     29  C   UNL     1      -6.686  -3.254 123.932  0.00  0.00    +0.000 A 
ATOM     30  C   UNL     1      -7.598  -2.415 124.543  0.00  0.00    +0.000 A 
ATOM     31  C   UNL     1      -7.278  -1.654 125.768  0.00  0.00    +0.000 A 
BRANCH  31  32
ATOM     32  C   UNL     1      -8.399  -0.753 126.185  0.00  0.00    +0.000 C 
ATOM     33  F   UNL     1      -8.393  -0.499 127.533  0.00  0.00    +0.000 F 
ATOM     34  F   UNL     1      -8.297   0.471 125.598  0.00  0.00    +0.000 F 
ATOM     35  F   UNL     1      -9.627  -1.243 125.916  0.00  0.00    +0.000 F 
ENDBRANCH  31  32
BRANCH  28  36
ATOM     36  C   UNL     1      -4.319  -3.978 123.678  0.00  0.00    +0.000 C 
ATOM     37  F   UNL     1      -3.614  -4.844 124.460  0.00  0.00    +0.000 F 
ATOM     38  F   UNL     1      -4.806  -4.704 122.641  0.00  0.00    +0.000 F 
ATOM     39  F   UNL     1      -3.383  -3.138 123.141  0.00  0.00    +0.000 F 
ENDBRANCH  28  36
ENDBRANCH  24  26
ENDBRANCH   1  22
TORSDOF 4
ENDMDL
MODEL 8
REMARK VINA RESULT:     -10.0      2.970      4.339
REMARK  Name = Dutasteride
REMARK  6 active torsions:
REMARK  status: ('A' for Active; 'I' for Inactive)
REMARK    1  A    between atoms: C_2  and  C_26
REMARK    2  A    between atoms: C_18  and  C_19
REMARK    3  A    between atoms: C_24  and  C_25
REMARK    4  A    between atoms: N_28  and  C_29
REMARK    5  A    between atoms: C_31  and  C_39
REMARK    6  A    between atoms: C_34  and  C_35
REMARK                            x       y       z     vdW  Elec       q    Type
REMARK                         _______ _______ _______ _____ _____    ______ ____
ROOT
ATOM      1  C   UNL     1      -5.195   0.064 129.255  0.00  0.00    +0.000 C 
ATOM      2  C   UNL     1      -6.126   1.157 129.303  0.00  0.00    +0.000 C 
ATOM      3  C   UNL     1      -7.175   0.030 129.526  0.00  0.00    +0.000 C 
ATOM      4  C   UNL     1      -7.323   0.258 130.939  0.00  0.00    +0.000 C 
ATOM      5  C   UNL     1      -7.574   1.828 131.213  0.00  0.00    +0.000 C 
ATOM      6  C   UNL     1      -8.598   2.324 130.217  0.00  0.00    +0.000 C 
ATOM      7  C   UNL     1      -8.758   3.800 130.389  0.00  0.00    +0.000 C 
ATOM      8  C   UNL     1      -9.377   3.975 131.830  0.00  0.00    +0.000 C 
ATOM      9  N   UNL     1     -10.069   5.175 132.208  0.00  0.00    +0.000 N 
ATOM     10  C   UNL     1      -9.714   6.156 131.377  0.00  0.00    +0.000 C 
ATOM     11  O   UNL     1     -10.513   6.675 130.632  0.00  0.00    +0.000 OA
ATOM     12  C   UNL     1      -8.250   6.412 131.715  0.00  0.00    +0.000 C 
ATOM     13  C   UNL     1      -7.512   5.368 132.334  0.00  0.00    +0.000 C 
ATOM     14  C   UNL     1      -8.218   3.850 132.810  0.00  0.00    +0.000 C 
ATOM     15  C   UNL     1      -8.785   3.914 134.270  0.00  0.00    +0.000 C 
ATOM     16  C   UNL     1      -7.920   2.264 132.616  0.00  0.00    +0.000 C 
ATOM     17  C   UNL     1      -6.912   1.594 133.495  0.00  0.00    +0.000 C 
ATOM     18  C   UNL     1      -6.615   0.221 132.881  0.00  0.00    +0.000 C 
ATOM     19  C   UNL     1      -5.775  -0.165 131.180  0.00  0.00    +0.000 C 
ATOM     20  C   UNL     1      -5.108  -1.272 132.186  0.00  0.00    +0.000 C 
ATOM     21  H   UNL     1      -9.653   5.533 133.069  0.00  0.00    +0.000 HD
ENDROOT
BRANCH   1  22
ATOM     22  C   UNL     1      -5.676   0.091 127.306  0.00  0.00    +0.000 C 
ATOM     23  O   UNL     1      -5.078   0.811 126.493  0.00  0.00    +0.000 OA
ATOM     24  N   UNL     1      -6.593  -0.858 126.598  0.00  0.00    +0.000 N 
ATOM     25  H   UNL     1      -7.156  -1.465 127.162  0.00  0.00    +0.000 HD
BRANCH  24  26
ATOM     26  C   UNL     1      -7.087  -0.957 125.059  0.00  0.00    +0.000 A 
ATOM     27  C   UNL     1      -8.078  -0.021 124.628  0.00  0.00    +0.000 A 
ATOM     28  C   UNL     1      -8.777  -0.040 123.345  0.00  0.00    +0.000 A 
ATOM     29  C   UNL     1      -8.459  -0.984 122.377  0.00  0.00    +0.000 A 
ATOM     30  C   UNL     1      -7.573  -1.977 122.753  0.00  0.00    +0.000 A 
ATOM     31  C   UNL     1      -6.908  -1.987 124.072  0.00  0.00    +0.000 A 
BRANCH  31  32
ATOM     32  C   UNL     1      -6.065  -3.208 124.272  0.00  0.00    +0.000 C 
ATOM     33  F   UNL     1      -6.815  -4.350 124.384  0.00  0.00    +0.000 F 
ATOM     34  F   UNL     1      -5.248  -3.428 123.205  0.00  0.00    +0.000 F 
ATOM     35  F   UNL     1      -5.298  -3.170 125.382  0.00  0.00    +0.000 F 
ENDBRANCH  31  32
BRANCH  28  36
ATOM     36  C   UNL     1      -9.929   0.906 123.054  0.00  0.00    +0.000 C 
ATOM     37  F   UNL     1     -10.419   1.461 124.198  0.00  0.00    +0.000 F 
ATOM     38  F   UNL     1      -9.578   1.936 122.245  0.00  0.00    +0.000 F 
ATOM     39  F   UNL     1     -11.004   0.309 122.457  0.00  0.00    +0.000 F 
ENDBRANCH  28  36
ENDBRANCH  24  26
ENDBRANCH   1  22
TORSDOF 4
ENDMDL
MODEL 9
REMARK VINA RESULT:      -9.8      2.629      3.742
REMARK  Name = Dutasteride
REMARK  6 active torsions:
REMARK  status: ('A' for Active; 'I' for Inactive)
REMARK    1  A    between atoms: C_2  and  C_26
REMARK    2  A    between atoms: C_18  and  C_19
REMARK    3  A    between atoms: C_24  and  C_25
REMARK    4  A    between atoms: N_28  and  C_29
REMARK    5  A    between atoms: C_31  and  C_39
REMARK    6  A    between atoms: C_34  and  C_35
REMARK                            x       y       z     vdW  Elec       q    Type
REMARK                         _______ _______ _______ _____ _____    ______ ____
ROOT
ATOM      1  C   UNL     1      -5.289   1.623 128.773  0.00  0.00    +0.000 C 
ATOM      2  C   UNL     1      -6.545   2.314 128.859  0.00  0.00    +0.000 C 
ATOM      3  C   UNL     1      -6.950   1.113 129.761  0.00  0.00    +0.000 C 
ATOM      4  C   UNL     1      -6.832   1.828 131.003  0.00  0.00    +0.000 C 
ATOM      5  C   UNL     1      -7.633   3.226 130.903  0.00  0.00    +0.000 C 
ATOM      6  C   UNL     1      -8.977   2.956 130.267  0.00  0.00    +0.000 C 
ATOM      7  C   UNL     1      -9.684   4.259 130.067  0.00  0.00    +0.000 C 
ATOM      8  C   UNL     1      -9.952   4.799 131.526  0.00  0.00    +0.000 C 
ATOM      9  N   UNL     1     -10.963   5.786 131.785  0.00  0.00    +0.000 N 
ATOM     10  C   UNL     1     -11.254   6.413 130.644  0.00  0.00    +0.000 C 
ATOM     11  O   UNL     1     -12.350   6.329 130.138  0.00  0.00    +0.000 OA
ATOM     12  C   UNL     1      -9.991   7.205 130.326  0.00  0.00    +0.000 C 
ATOM     13  C   UNL     1      -8.764   6.763 130.889  0.00  0.00    +0.000 C 
ATOM     14  C   UNL     1      -8.646   5.425 131.996  0.00  0.00    +0.000 C 
ATOM     15  C   UNL     1      -8.818   5.892 133.481  0.00  0.00    +0.000 C 
ATOM     16  C   UNL     1      -7.778   4.059 132.153  0.00  0.00    +0.000 C 
ATOM     17  C   UNL     1      -6.405   4.127 132.742  0.00  0.00    +0.000 C 
ATOM     18  C   UNL     1      -5.726   2.779 132.469  0.00  0.00    +0.000 C 
ATOM     19  C   UNL     1      -5.240   2.017 130.757  0.00  0.00    +0.000 C 
ATOM     20  C   UNL     1      -3.956   1.654 131.707  0.00  0.00    +0.000 C 
ATOM     21  H   UNL     1     -10.536   6.563 132.292  0.00  0.00    +0.000 HD
ENDROOT
BRANCH   1  22
ATOM     22  C   UNL     1      -6.192   0.728 127.220  0.00  0.00    +0.000 C 
ATOM     23  O   UNL     1      -5.898  -0.422 126.864  0.00  0.00    +0.000 OA
ATOM     24  N   UNL     1      -7.410   1.211 126.493  0.00  0.00    +0.000 N 
ATOM     25  H   UNL     1      -7.717   2.147 126.677  0.00  0.00    +0.000 HD
BRANCH  24  26
ATOM     26  C   UNL     1      -8.236   0.621 125.232  0.00  0.00    +0.000 A 
ATOM     27  C   UNL     1      -8.472  -0.788 125.205  0.00  0.00    +0.000 A 
ATOM     28  C   UNL     1      -9.045  -1.543 124.093  0.00  0.00    +0.000 A 
ATOM     29  C   UNL     1      -9.483  -0.893 122.946  0.00  0.00    +0.000 A 
ATOM     30  C   UNL     1      -9.209   0.458 122.861  0.00  0.00    +0.000 A 
ATOM     31  C   UNL     1      -8.580   1.210 123.966  0.00  0.00    +0.000 A 
BRANCH  31  32
ATOM     32  C   UNL     1      -8.307   2.636 123.599  0.00  0.00    +0.000 C 
ATOM     33  F   UNL     1      -8.686   3.512 124.584  0.00  0.00    +0.000 F 
ATOM     34  F   UNL     1      -6.975   2.858 123.425  0.00  0.00    +0.000 F 
ATOM     35  F   UNL     1      -8.947   3.048 122.485  0.00  0.00    +0.000 F 
ENDBRANCH  31  32
BRANCH  28  36
ATOM     36  C   UNL     1      -9.100  -3.061 124.108  0.00  0.00    +0.000 C 
ATOM     37  F   UNL     1     -10.034  -3.534 123.235  0.00  0.00    +0.000 F 
ATOM     38  F   UNL     1      -7.923  -3.638 123.762  0.00  0.00    +0.000 F 
ATOM     39  F   UNL     1      -9.440  -3.595 125.319  0.00  0.00    +0.000 F 
ENDBRANCH  28  36
ENDBRANCH  24  26
ENDBRANCH   1  22
TORSDOF 4
ENDMDL
