MODEL 1
REMARK VINA RESULT:      -9.0      0.000      0.000
REMARK  Name = Duvelisib
REMARK  5 active torsions:
REMARK  status: ('A' for Active; 'I' for Inactive)
REMARK    1  A    between atoms: C_1  and  C_2
REMARK    2  A    between atoms: C_2  and  N_3
REMARK    3  A    between atoms: C_2  and  C_13
REMARK    4  A    between atoms: N_3  and  C_4
REMARK    5  A    between atoms: N_24  and  C_25
REMARK                            x       y       z     vdW  Elec       q    Type
REMARK                         _______ _______ _______ _____ _____    ______ ____
ROOT
ATOM      1  C   UNL     1      -7.289   1.377 124.335  0.00  0.00    +0.000 A 
ATOM      2  C   UNL     1      -8.070   0.666 123.508  0.00  0.00    +0.000 A 
ATOM      3  C   UNL     1      -8.503  -0.666 123.838  0.00  0.00    +0.000 A 
ATOM      4  C   UNL     1      -9.181  -1.384 122.853  0.00  0.00    +0.000 A 
ATOM      5  C   UNL     1      -9.338  -2.747 123.018  0.00  0.00    +0.000 A 
ATOM      6  C   UNL     1      -9.086  -3.314 124.264  0.00  0.00    +0.000 A 
ATOM      7  C   UNL     1      -8.544  -2.557 125.308  0.00  0.00    +0.000 A 
ATOM      8 CL   UNL     1      -8.430  -3.344 126.840  0.00  0.00    +0.000 Cl
ATOM      9  C   UNL     1      -8.143  -1.246 125.058  0.00  0.00    +0.000 A 
ATOM     10  C   UNL     1      -7.292  -0.456 125.983  0.00  0.00    +0.000 A 
ATOM     11  O   UNL     1      -6.936  -0.952 127.061  0.00  0.00    +0.000 OA
ATOM     12  N   UNL     1      -6.913   0.840 125.577  0.00  0.00    +0.000 N 
ENDROOT
BRANCH  12  13
ATOM     13  C   UNL     1      -6.164   1.590 126.521  0.00  0.00    +0.000 A 
ATOM     14  C   UNL     1      -4.772   1.661 126.417  0.00  0.00    +0.000 A 
ATOM     15  C   UNL     1      -4.085   2.594 127.186  0.00  0.00    +0.000 A 
ATOM     16  C   UNL     1      -4.742   3.253 128.224  0.00  0.00    +0.000 A 
ATOM     17  C   UNL     1      -6.109   3.067 128.424  0.00  0.00    +0.000 A 
ATOM     18  C   UNL     1      -6.833   2.294 127.526  0.00  0.00    +0.000 A 
ENDBRANCH  12  13
BRANCH   1  20
ATOM     19  C   UNL     1      -7.919   3.767 124.178  0.00  0.00    +0.000 C 
ATOM     20  C   UNL     1      -6.798   2.753 123.861  0.00  0.00    +0.000 C 
BRANCH  20  21
ATOM     21  N   UNL     1      -6.558   2.678 122.421  0.00  0.00    +0.000 N 
ATOM     22  H   UNL     1      -6.299   1.786 122.013  0.00  0.00    +0.000 HD
BRANCH  21  23
ATOM     23  C   UNL     1      -6.003   3.765 121.755  0.00  0.00    +0.000 A 
ATOM     24  C   UNL     1      -6.416   4.261 120.495  0.00  0.00    +0.000 A 
ATOM     25  N   UNL     1      -7.486   3.958 119.669  0.00  0.00    +0.000 NA
ATOM     26  C   UNL     1      -7.268   4.609 118.553  0.00  0.00    +0.000 A 
ATOM     27  N   UNL     1      -6.192   5.440 118.671  0.00  0.00    +0.000 N 
ATOM     28  C   UNL     1      -5.627   5.223 119.898  0.00  0.00    +0.000 A 
ATOM     29  N   UNL     1      -4.537   5.813 120.406  0.00  0.00    +0.000 NA
ATOM     30  C   UNL     1      -4.276   5.332 121.642  0.00  0.00    +0.000 A 
ATOM     31  N   UNL     1      -4.924   4.363 122.330  0.00  0.00    +0.000 NA
ATOM     32  H   UNL     1      -5.870   6.104 117.985  0.00  0.00    +0.000 HD
ENDBRANCH  21  23
ENDBRANCH  20  21
ENDBRANCH   1  20
TORSDOF 4
ENDMDL
MODEL 2
REMARK VINA RESULT:      -8.5      4.264      7.224
REMARK  Name = Duvelisib
REMARK  5 active torsions:
REMARK  status: ('A' for Active; 'I' for Inactive)
REMARK    1  A    between atoms: C_1  and  C_2
REMARK    2  A    between atoms: C_2  and  N_3
REMARK    3  A    between atoms: C_2  and  C_13
REMARK    4  A    between atoms: N_3  and  C_4
REMARK    5  A    between atoms: N_24  and  C_25
REMARK                            x       y       z     vdW  Elec       q    Type
REMARK                         _______ _______ _______ _____ _____    ______ ____
ROOT
ATOM      1  C   UNL     1      -7.020   3.220 125.971  0.00  0.00    +0.000 A 
ATOM      2  C   UNL     1      -7.967   2.867 125.090  0.00  0.00    +0.000 A 
ATOM      3  C   UNL     1      -7.772   3.016 123.672  0.00  0.00    +0.000 A 
ATOM      4  C   UNL     1      -8.865   2.770 122.842  0.00  0.00    +0.000 A 
ATOM      5  C   UNL     1      -8.807   3.192 121.528  0.00  0.00    +0.000 A 
ATOM      6  C   UNL     1      -7.581   3.578 120.992  0.00  0.00    +0.000 A 
ATOM      7  C   UNL     1      -6.441   3.680 121.794  0.00  0.00    +0.000 A 
ATOM      8 CL   UNL     1      -4.959   4.016 120.973  0.00  0.00    +0.000 Cl
ATOM      9  C   UNL     1      -6.562   3.506 123.172  0.00  0.00    +0.000 A 
ATOM     10  C   UNL     1      -5.505   3.882 124.144  0.00  0.00    +0.000 A 
ATOM     11  O   UNL     1      -4.431   4.343 123.732  0.00  0.00    +0.000 OA
ATOM     12  N   UNL     1      -5.784   3.705 125.514  0.00  0.00    +0.000 N 
ENDROOT
BRANCH  12  13
ATOM     13  C   UNL     1      -4.721   4.005 126.406  0.00  0.00    +0.000 A 
ATOM     14  C   UNL     1      -3.759   3.038 126.704  0.00  0.00    +0.000 A 
ATOM     15  C   UNL     1      -2.599   3.423 127.369  0.00  0.00    +0.000 A 
ATOM     16  C   UNL     1      -2.525   4.685 127.956  0.00  0.00    +0.000 A 
ATOM     17  C   UNL     1      -3.558   5.605 127.784  0.00  0.00    +0.000 A 
ATOM     18  C   UNL     1      -4.622   5.291 126.947  0.00  0.00    +0.000 A 
ENDBRANCH  12  13
BRANCH   1  20
ATOM     19  C   UNL     1      -8.124   1.793 127.669  0.00  0.00    +0.000 C 
ATOM     20  C   UNL     1      -7.350   3.114 127.467  0.00  0.00    +0.000 C 
BRANCH  20  21
ATOM     21  N   UNL     1      -8.179   4.262 127.832  0.00  0.00    +0.000 N 
ATOM     22  H   UNL     1      -8.364   4.974 127.134  0.00  0.00    +0.000 HD
BRANCH  21  23
ATOM     23  C   UNL     1      -8.131   4.765 129.127  0.00  0.00    +0.000 A 
ATOM     24  C   UNL     1      -9.252   5.071 129.935  0.00  0.00    +0.000 A 
ATOM     25  N   UNL     1     -10.612   4.854 129.781  0.00  0.00    +0.000 NA
ATOM     26  C   UNL     1     -11.189   5.500 130.764  0.00  0.00    +0.000 A 
ATOM     27  N   UNL     1     -10.263   5.996 131.636  0.00  0.00    +0.000 N 
ATOM     28  C   UNL     1      -9.022   5.744 131.118  0.00  0.00    +0.000 A 
ATOM     29  N   UNL     1      -7.838   6.086 131.643  0.00  0.00    +0.000 NA
ATOM     30  C   UNL     1      -6.833   5.677 130.839  0.00  0.00    +0.000 A 
ATOM     31  N   UNL     1      -6.905   5.057 129.638  0.00  0.00    +0.000 NA
ATOM     32  H   UNL     1     -10.452   6.458 132.511  0.00  0.00    +0.000 HD
ENDBRANCH  21  23
ENDBRANCH  20  21
ENDBRANCH   1  20
TORSDOF 4
ENDMDL
MODEL 3
REMARK VINA RESULT:      -8.4      7.036      9.479
REMARK  Name = Duvelisib
REMARK  5 active torsions:
REMARK  status: ('A' for Active; 'I' for Inactive)
REMARK    1  A    between atoms: C_1  and  C_2
REMARK    2  A    between atoms: C_2  and  N_3
REMARK    3  A    between atoms: C_2  and  C_13
REMARK    4  A    between atoms: N_3  and  C_4
REMARK    5  A    between atoms: N_24  and  C_25
REMARK                            x       y       z     vdW  Elec       q    Type
REMARK                         _______ _______ _______ _____ _____    ______ ____
ROOT
ATOM      1  C   UNL     1      -6.423   4.507 130.120  0.00  0.00    +0.000 A 
ATOM      2  C   UNL     1      -5.653   4.562 129.024  0.00  0.00    +0.000 A 
ATOM      3  C   UNL     1      -4.329   5.125 129.060  0.00  0.00    +0.000 A 
ATOM      4  C   UNL     1      -3.663   5.281 127.844  0.00  0.00    +0.000 A 
ATOM      5  C   UNL     1      -2.540   6.084 127.803  0.00  0.00    +0.000 A 
ATOM      6  C   UNL     1      -1.939   6.473 128.997  0.00  0.00    +0.000 A 
ATOM      7  C   UNL     1      -2.528   6.185 130.232  0.00  0.00    +0.000 A 
ATOM      8 CL   UNL     1      -1.601   6.586 131.631  0.00  0.00    +0.000 Cl
ATOM      9  C   UNL     1      -3.794   5.603 130.260  0.00  0.00    +0.000 A 
ATOM     10  C   UNL     1      -4.638   5.528 131.479  0.00  0.00    +0.000 A 
ATOM     11  O   UNL     1      -4.202   5.967 132.553  0.00  0.00    +0.000 OA
ATOM     12  N   UNL     1      -5.923   4.963 131.351  0.00  0.00    +0.000 N 
ENDROOT
BRANCH  12  13
ATOM     13  C   UNL     1      -6.669   4.842 132.553  0.00  0.00    +0.000 A 
ATOM     14  C   UNL     1      -7.503   5.882 132.972  0.00  0.00    +0.000 A 
ATOM     15  C   UNL     1      -8.408   5.648 134.001  0.00  0.00    +0.000 A 
ATOM     16  C   UNL     1      -8.298   4.489 134.769  0.00  0.00    +0.000 A 
ATOM     17  C   UNL     1      -7.359   3.513 134.441  0.00  0.00    +0.000 A 
ATOM     18  C   UNL     1      -6.596   3.656 133.289  0.00  0.00    +0.000 A 
ENDBRANCH  12  13
BRANCH   1  20
ATOM     19  C   UNL     1      -7.756   2.578 129.322  0.00  0.00    +0.000 C 
ATOM     20  C   UNL     1      -7.856   3.976 129.971  0.00  0.00    +0.000 C 
BRANCH  20  21
ATOM     21  N   UNL     1      -8.594   4.897 129.108  0.00  0.00    +0.000 N 
ATOM     22  H   UNL     1      -8.086   5.420 128.402  0.00  0.00    +0.000 HD
BRANCH  21  23
ATOM     23  C   UNL     1      -9.695   5.581 129.609  0.00  0.00    +0.000 A 
ATOM     24  C   UNL     1     -10.310   6.707 129.010  0.00  0.00    +0.000 A 
ATOM     25  N   UNL     1     -10.134   7.338 127.789  0.00  0.00    +0.000 NA
ATOM     26  C   UNL     1     -10.856   8.430 127.846  0.00  0.00    +0.000 A 
ATOM     27  N   UNL     1     -11.612   8.460 128.982  0.00  0.00    +0.000 N 
ATOM     28  C   UNL     1     -11.268   7.377 129.744  0.00  0.00    +0.000 A 
ATOM     29  N   UNL     1     -11.753   7.043 130.947  0.00  0.00    +0.000 NA
ATOM     30  C   UNL     1     -11.164   5.912 131.393  0.00  0.00    +0.000 A 
ATOM     31  N   UNL     1     -10.183   5.180 130.813  0.00  0.00    +0.000 NA
ATOM     32  H   UNL     1     -12.308   9.149 129.221  0.00  0.00    +0.000 HD
ENDBRANCH  21  23
ENDBRANCH  20  21
ENDBRANCH   1  20
TORSDOF 4
ENDMDL
MODEL 4
REMARK VINA RESULT:      -8.3      3.958      7.449
REMARK  Name = Duvelisib
REMARK  5 active torsions:
REMARK  status: ('A' for Active; 'I' for Inactive)
REMARK    1  A    between atoms: C_1  and  C_2
REMARK    2  A    between atoms: C_2  and  N_3
REMARK    3  A    between atoms: C_2  and  C_13
REMARK    4  A    between atoms: N_3  and  C_4
REMARK    5  A    between atoms: N_24  and  C_25
REMARK                            x       y       z     vdW  Elec       q    Type
REMARK                         _______ _______ _______ _____ _____    ______ ____
ROOT
ATOM      1  C   UNL     1      -6.687   2.657 126.069  0.00  0.00    +0.000 A 
ATOM      2  C   UNL     1      -7.670   2.205 125.278  0.00  0.00    +0.000 A 
ATOM      3  C   UNL     1      -7.723   2.531 123.878  0.00  0.00    +0.000 A 
ATOM      4  C   UNL     1      -8.861   2.147 123.170  0.00  0.00    +0.000 A 
ATOM      5  C   UNL     1      -9.083   2.700 121.924  0.00  0.00    +0.000 A 
ATOM      6  C   UNL     1      -8.050   3.384 121.289  0.00  0.00    +0.000 A 
ATOM      7  C   UNL     1      -6.843   3.641 121.945  0.00  0.00    +0.000 A 
ATOM      8 CL   UNL     1      -5.594   4.357 120.992  0.00  0.00    +0.000 Cl
ATOM      9  C   UNL     1      -6.719   3.310 123.294  0.00  0.00    +0.000 A 
ATOM     10  C   UNL     1      -5.619   3.798 124.163  0.00  0.00    +0.000 A 
ATOM     11  O   UNL     1      -4.729   4.511 123.680  0.00  0.00    +0.000 OA
ATOM     12  N   UNL     1      -5.649   3.432 125.524  0.00  0.00    +0.000 N 
ENDROOT
BRANCH  12  13
ATOM     13  C   UNL     1      -4.543   3.856 126.304  0.00  0.00    +0.000 A 
ATOM     14  C   UNL     1      -4.602   5.057 127.015  0.00  0.00    +0.000 A 
ATOM     15  C   UNL     1      -3.623   5.329 127.964  0.00  0.00    +0.000 A 
ATOM     16  C   UNL     1      -2.469   4.547 128.011  0.00  0.00    +0.000 A 
ATOM     17  C   UNL     1      -2.343   3.427 127.190  0.00  0.00    +0.000 A 
ATOM     18  C   UNL     1      -3.411   3.040 126.392  0.00  0.00    +0.000 A 
ENDBRANCH  12  13
BRANCH   1  20
ATOM     19  C   UNL     1      -6.061   0.976 127.777  0.00  0.00    +0.000 C 
ATOM     20  C   UNL     1      -6.760   2.337 127.569  0.00  0.00    +0.000 C 
BRANCH  20  21
ATOM     21  N   UNL     1      -8.170   2.260 127.948  0.00  0.00    +0.000 N 
ATOM     22  H   UNL     1      -8.869   2.156 127.220  0.00  0.00    +0.000 HD
BRANCH  21  23
ATOM     23  C   UNL     1      -8.631   2.974 129.049  0.00  0.00    +0.000 A 
ATOM     24  C   UNL     1      -8.992   2.421 130.301  0.00  0.00    +0.000 A 
ATOM     25  N   UNL     1      -8.877   1.149 130.836  0.00  0.00    +0.000 NA
ATOM     26  C   UNL     1      -9.534   1.180 131.970  0.00  0.00    +0.000 A 
ATOM     27  N   UNL     1      -9.936   2.449 132.269  0.00  0.00    +0.000 N 
ATOM     28  C   UNL     1      -9.612   3.253 131.211  0.00  0.00    +0.000 A 
ATOM     29  N   UNL     1      -9.852   4.564 131.084  0.00  0.00    +0.000 NA
ATOM     30  C   UNL     1      -9.396   5.012 129.893  0.00  0.00    +0.000 A 
ATOM     31  N   UNL     1      -8.818   4.312 128.888  0.00  0.00    +0.000 NA
ATOM     32  H   UNL     1     -10.385   2.750 133.119  0.00  0.00    +0.000 HD
ENDBRANCH  21  23
ENDBRANCH  20  21
ENDBRANCH   1  20
TORSDOF 4
ENDMDL
MODEL 5
REMARK VINA RESULT:      -8.3      5.807      8.376
REMARK  Name = Duvelisib
REMARK  5 active torsions:
REMARK  status: ('A' for Active; 'I' for Inactive)
REMARK    1  A    between atoms: C_1  and  C_2
REMARK    2  A    between atoms: C_2  and  N_3
REMARK    3  A    between atoms: C_2  and  C_13
REMARK    4  A    between atoms: N_3  and  C_4
REMARK    5  A    between atoms: N_24  and  C_25
REMARK                            x       y       z     vdW  Elec       q    Type
REMARK                         _______ _______ _______ _____ _____    ______ ____
ROOT
ATOM      1  C   UNL     1      -8.908   5.354 129.925  0.00  0.00    +0.000 A 
ATOM      2  C   UNL     1      -9.372   5.933 128.809  0.00  0.00    +0.000 A 
ATOM      3  C   UNL     1     -10.508   6.816 128.833  0.00  0.00    +0.000 A 
ATOM      4  C   UNL     1     -11.014   7.247 127.607  0.00  0.00    +0.000 A 
ATOM      5  C   UNL     1     -12.264   7.834 127.576  0.00  0.00    +0.000 A 
ATOM      6  C   UNL     1     -12.852   8.243 128.770  0.00  0.00    +0.000 A 
ATOM      7  C   UNL     1     -12.268   7.943 130.004  0.00  0.00    +0.000 A 
ATOM      8 CL   UNL     1     -13.018   8.643 131.393  0.00  0.00    +0.000 Cl
ATOM      9  C   UNL     1     -11.141   7.123 130.041  0.00  0.00    +0.000 A 
ATOM     10  C   UNL     1     -10.619   6.497 131.282  0.00  0.00    +0.000 A 
ATOM     11  O   UNL     1     -11.175   6.730 132.364  0.00  0.00    +0.000 OA
ATOM     12  N   UNL     1      -9.504   5.643 131.164  0.00  0.00    +0.000 N 
ENDROOT
BRANCH  12  13
ATOM     13  C   UNL     1      -8.991   5.124 132.381  0.00  0.00    +0.000 A 
ATOM     14  C   UNL     1      -9.335   3.836 132.798  0.00  0.00    +0.000 A 
ATOM     15  C   UNL     1      -8.630   3.256 133.848  0.00  0.00    +0.000 A 
ATOM     16  C   UNL     1      -7.787   4.042 134.633  0.00  0.00    +0.000 A 
ATOM     17  C   UNL     1      -7.559   5.377 134.303  0.00  0.00    +0.000 A 
ATOM     18  C   UNL     1      -8.102   5.896 133.135  0.00  0.00    +0.000 A 
ENDBRANCH  12  13
BRANCH   1  20
ATOM     19  C   UNL     1      -6.440   5.167 129.837  0.00  0.00    +0.000 C 
ATOM     20  C   UNL     1      -7.751   4.352 129.793  0.00  0.00    +0.000 C 
BRANCH  20  21
ATOM     21  N   UNL     1      -7.892   3.663 128.513  0.00  0.00    +0.000 N 
ATOM     22  H   UNL     1      -8.670   3.025 128.382  0.00  0.00    +0.000 HD
BRANCH  21  23
ATOM     23  C   UNL     1      -6.758   3.294 127.798  0.00  0.00    +0.000 A 
ATOM     24  C   UNL     1      -6.297   3.905 126.607  0.00  0.00    +0.000 A 
ATOM     25  N   UNL     1      -6.692   5.040 125.917  0.00  0.00    +0.000 NA
ATOM     26  C   UNL     1      -6.021   5.024 124.792  0.00  0.00    +0.000 A 
ATOM     27  N   UNL     1      -5.098   4.018 124.786  0.00  0.00    +0.000 N 
ATOM     28  C   UNL     1      -5.267   3.286 125.928  0.00  0.00    +0.000 A 
ATOM     29  N   UNL     1      -4.585   2.196 126.303  0.00  0.00    +0.000 NA
ATOM     30  C   UNL     1      -5.043   1.740 127.489  0.00  0.00    +0.000 A 
ATOM     31  N   UNL     1      -6.069   2.208 128.240  0.00  0.00    +0.000 NA
ATOM     32  H   UNL     1      -4.406   3.845 124.074  0.00  0.00    +0.000 HD
ENDBRANCH  21  23
ENDBRANCH  20  21
ENDBRANCH   1  20
TORSDOF 4
ENDMDL
MODEL 6
REMARK VINA RESULT:      -8.1      5.778      8.717
REMARK  Name = Duvelisib
REMARK  5 active torsions:
REMARK  status: ('A' for Active; 'I' for Inactive)
REMARK    1  A    between atoms: C_1  and  C_2
REMARK    2  A    between atoms: C_2  and  N_3
REMARK    3  A    between atoms: C_2  and  C_13
REMARK    4  A    between atoms: N_3  and  C_4
REMARK    5  A    between atoms: N_24  and  C_25
REMARK                            x       y       z     vdW  Elec       q    Type
REMARK                         _______ _______ _______ _____ _____    ______ ____
ROOT
ATOM      1  C   UNL     1      -8.944   5.441 129.816  0.00  0.00    +0.000 A 
ATOM      2  C   UNL     1      -9.386   6.087 128.728  0.00  0.00    +0.000 A 
ATOM      3  C   UNL     1     -10.533   6.954 128.779  0.00  0.00    +0.000 A 
ATOM      4  C   UNL     1     -11.011   7.460 127.571  0.00  0.00    +0.000 A 
ATOM      5  C   UNL     1     -12.267   8.034 127.544  0.00  0.00    +0.000 A 
ATOM      6  C   UNL     1     -12.894   8.354 128.745  0.00  0.00    +0.000 A 
ATOM      7  C   UNL     1     -12.340   7.979 129.973  0.00  0.00    +0.000 A 
ATOM      8 CL   UNL     1     -13.137   8.575 131.383  0.00  0.00    +0.000 Cl
ATOM      9  C   UNL     1     -11.203   7.172 129.986  0.00  0.00    +0.000 A 
ATOM     10  C   UNL     1     -10.707   6.470 131.197  0.00  0.00    +0.000 A 
ATOM     11  O   UNL     1     -11.296   6.623 132.277  0.00  0.00    +0.000 OA
ATOM     12  N   UNL     1      -9.578   5.638 131.054  0.00  0.00    +0.000 N 
ENDROOT
BRANCH  12  13
ATOM     13  C   UNL     1      -9.091   5.046 132.248  0.00  0.00    +0.000 A 
ATOM     14  C   UNL     1      -9.388   3.713 132.544  0.00  0.00    +0.000 A 
ATOM     15  C   UNL     1      -8.701   3.081 133.574  0.00  0.00    +0.000 A 
ATOM     16  C   UNL     1      -7.932   3.838 134.458  0.00  0.00    +0.000 A 
ATOM     17  C   UNL     1      -7.757   5.204 134.249  0.00  0.00    +0.000 A 
ATOM     18  C   UNL     1      -8.275   5.793 133.102  0.00  0.00    +0.000 A 
ENDBRANCH  12  13
BRANCH   1  20
ATOM     19  C   UNL     1      -6.494   5.210 130.095  0.00  0.00    +0.000 C 
ATOM     20  C   UNL     1      -7.771   4.464 129.651  0.00  0.00    +0.000 C 
BRANCH  20  21
ATOM     21  N   UNL     1      -7.689   4.088 128.241  0.00  0.00    +0.000 N 
ATOM     22  H   UNL     1      -8.073   4.716 127.543  0.00  0.00    +0.000 HD
BRANCH  21  23
ATOM     23  C   UNL     1      -7.773   2.749 127.876  0.00  0.00    +0.000 A 
ATOM     24  C   UNL     1      -8.263   2.259 126.641  0.00  0.00    +0.000 A 
ATOM     25  N   UNL     1      -8.638   2.882 125.462  0.00  0.00    +0.000 NA
ATOM     26  C   UNL     1      -9.172   1.945 124.719  0.00  0.00    +0.000 A 
ATOM     27  N   UNL     1      -9.022   0.717 125.294  0.00  0.00    +0.000 N 
ATOM     28  C   UNL     1      -8.456   0.897 126.527  0.00  0.00    +0.000 A 
ATOM     29  N   UNL     1      -8.161  -0.046 127.431  0.00  0.00    +0.000 NA
ATOM     30  C   UNL     1      -7.623   0.515 128.536  0.00  0.00    +0.000 A 
ATOM     31  N   UNL     1      -7.420   1.825 128.810  0.00  0.00    +0.000 NA
ATOM     32  H   UNL     1      -9.271  -0.170 124.887  0.00  0.00    +0.000 HD
ENDBRANCH  21  23
ENDBRANCH  20  21
ENDBRANCH   1  20
TORSDOF 4
ENDMDL
MODEL 7
REMARK VINA RESULT:      -8.1      3.963      7.394
REMARK  Name = Duvelisib
REMARK  5 active torsions:
REMARK  status: ('A' for Active; 'I' for Inactive)
REMARK    1  A    between atoms: C_1  and  C_2
REMARK    2  A    between atoms: C_2  and  N_3
REMARK    3  A    between atoms: C_2  and  C_13
REMARK    4  A    between atoms: N_3  and  C_4
REMARK    5  A    between atoms: N_24  and  C_25
REMARK                            x       y       z     vdW  Elec       q    Type
REMARK                         _______ _______ _______ _____ _____    ______ ____
ROOT
ATOM      1  C   UNL     1      -7.419   0.878 127.982  0.00  0.00    +0.000 A 
ATOM      2  C   UNL     1      -7.659  -0.342 128.483  0.00  0.00    +0.000 A 
ATOM      3  C   UNL     1      -7.850  -1.485 127.629  0.00  0.00    +0.000 A 
ATOM      4  C   UNL     1      -8.247  -2.678 128.230  0.00  0.00    +0.000 A 
ATOM      5  C   UNL     1      -8.730  -3.694 127.428  0.00  0.00    +0.000 A 
ATOM      6  C   UNL     1      -8.541  -3.622 126.050  0.00  0.00    +0.000 A 
ATOM      7  C   UNL     1      -7.998  -2.479 125.454  0.00  0.00    +0.000 A 
ATOM      8 CL   UNL     1      -7.673  -2.584 123.762  0.00  0.00    +0.000 Cl
ATOM      9  C   UNL     1      -7.755  -1.354 126.240  0.00  0.00    +0.000 A 
ATOM     10  C   UNL     1      -7.472  -0.007 125.683  0.00  0.00    +0.000 A 
ATOM     11  O   UNL     1      -7.406   0.145 124.455  0.00  0.00    +0.000 OA
ATOM     12  N   UNL     1      -7.302   1.055 126.594  0.00  0.00    +0.000 N 
ENDROOT
BRANCH  12  13
ATOM     13  C   UNL     1      -6.959   2.309 126.025  0.00  0.00    +0.000 A 
ATOM     14  C   UNL     1      -7.952   3.256 125.760  0.00  0.00    +0.000 A 
ATOM     15  C   UNL     1      -7.576   4.557 125.446  0.00  0.00    +0.000 A 
ATOM     16  C   UNL     1      -6.244   4.839 125.143  0.00  0.00    +0.000 A 
ATOM     17  C   UNL     1      -5.270   3.850 125.263  0.00  0.00    +0.000 A 
ATOM     18  C   UNL     1      -5.616   2.606 125.775  0.00  0.00    +0.000 A 
ENDBRANCH  12  13
BRANCH   1  20
ATOM     19  C   UNL     1      -6.194   1.719 129.964  0.00  0.00    +0.000 C 
ATOM     20  C   UNL     1      -7.321   2.055 128.963  0.00  0.00    +0.000 C 
BRANCH  20  21
ATOM     21  N   UNL     1      -8.605   2.181 129.651  0.00  0.00    +0.000 N 
ATOM     22  H   UNL     1      -9.393   1.635 129.321  0.00  0.00    +0.000 HD
BRANCH  21  23
ATOM     23  C   UNL     1      -8.979   3.403 130.199  0.00  0.00    +0.000 A 
ATOM     24  C   UNL     1      -9.106   3.683 131.581  0.00  0.00    +0.000 A 
ATOM     25  N   UNL     1      -8.791   2.962 132.721  0.00  0.00    +0.000 NA
ATOM     26  C   UNL     1      -9.284   3.648 133.723  0.00  0.00    +0.000 A 
ATOM     27  N   UNL     1      -9.767   4.853 133.302  0.00  0.00    +0.000 N 
ATOM     28  C   UNL     1      -9.674   4.889 131.938  0.00  0.00    +0.000 A 
ATOM     29  N   UNL     1     -10.061   5.880 131.124  0.00  0.00    +0.000 NA
ATOM     30  C   UNL     1      -9.821   5.550 129.836  0.00  0.00    +0.000 A 
ATOM     31  N   UNL     1      -9.320   4.396 129.335  0.00  0.00    +0.000 NA
ATOM     32  H   UNL     1     -10.122   5.593 133.887  0.00  0.00    +0.000 HD
ENDBRANCH  21  23
ENDBRANCH  20  21
ENDBRANCH   1  20
TORSDOF 4
ENDMDL
MODEL 8
REMARK VINA RESULT:      -8.0      4.048      5.997
REMARK  Name = Duvelisib
REMARK  5 active torsions:
REMARK  status: ('A' for Active; 'I' for Inactive)
REMARK    1  A    between atoms: C_1  and  C_2
REMARK    2  A    between atoms: C_2  and  N_3
REMARK    3  A    between atoms: C_2  and  C_13
REMARK    4  A    between atoms: N_3  and  C_4
REMARK    5  A    between atoms: N_24  and  C_25
REMARK                            x       y       z     vdW  Elec       q    Type
REMARK                         _______ _______ _______ _____ _____    ______ ____
ROOT
ATOM      1  C   UNL     1      -7.701   0.214 127.120  0.00  0.00    +0.000 A 
ATOM      2  C   UNL     1      -8.446   0.938 126.273  0.00  0.00    +0.000 A 
ATOM      3  C   UNL     1      -8.994   0.365 125.072  0.00  0.00    +0.000 A 
ATOM      4  C   UNL     1      -9.622   1.230 124.176  0.00  0.00    +0.000 A 
ATOM      5  C   UNL     1      -9.883   0.781 122.896  0.00  0.00    +0.000 A 
ATOM      6  C   UNL     1      -9.786  -0.580 122.620  0.00  0.00    +0.000 A 
ATOM      7  C   UNL     1      -9.296  -1.479 123.572  0.00  0.00    +0.000 A 
ATOM      8 CL   UNL     1      -9.377  -3.152 123.155  0.00  0.00    +0.000 Cl
ATOM      9  C   UNL     1      -8.788  -0.985 124.773  0.00  0.00    +0.000 A 
ATOM     10  C   UNL     1      -7.978  -1.794 125.718  0.00  0.00    +0.000 A 
ATOM     11  O   UNL     1      -7.757  -2.987 125.468  0.00  0.00    +0.000 OA
ATOM     12  N   UNL     1      -7.479  -1.150 126.868  0.00  0.00    +0.000 N 
ENDROOT
BRANCH  12  13
ATOM     13  C   UNL     1      -6.773  -1.976 127.782  0.00  0.00    +0.000 A 
ATOM     14  C   UNL     1      -5.382  -2.081 127.706  0.00  0.00    +0.000 A 
ATOM     15  C   UNL     1      -4.692  -2.682 128.753  0.00  0.00    +0.000 A 
ATOM     16  C   UNL     1      -5.394  -3.397 129.723  0.00  0.00    +0.000 A 
ATOM     17  C   UNL     1      -6.788  -3.417 129.714  0.00  0.00    +0.000 A 
ATOM     18  C   UNL     1      -7.477  -2.645 128.788  0.00  0.00    +0.000 A 
ENDBRANCH  12  13
BRANCH   1  20
ATOM     19  C   UNL     1      -8.166   0.999 129.423  0.00  0.00    +0.000 C 
ATOM     20  C   UNL     1      -7.079   0.929 128.329  0.00  0.00    +0.000 C 
BRANCH  20  21
ATOM     21  N   UNL     1      -6.681   2.270 127.907  0.00  0.00    +0.000 N 
ATOM     22  H   UNL     1      -7.219   2.737 127.184  0.00  0.00    +0.000 HD
BRANCH  21  23
ATOM     23  C   UNL     1      -5.335   2.622 127.898  0.00  0.00    +0.000 A 
ATOM     24  C   UNL     1      -4.657   3.316 128.929  0.00  0.00    +0.000 A 
ATOM     25  N   UNL     1      -5.026   3.700 130.207  0.00  0.00    +0.000 NA
ATOM     26  C   UNL     1      -4.055   4.463 130.645  0.00  0.00    +0.000 A 
ATOM     27  N   UNL     1      -3.004   4.467 129.773  0.00  0.00    +0.000 N 
ATOM     28  C   UNL     1      -3.374   3.752 128.667  0.00  0.00    +0.000 A 
ATOM     29  N   UNL     1      -2.648   3.531 127.563  0.00  0.00    +0.000 NA
ATOM     30  C   UNL     1      -3.352   2.791 126.679  0.00  0.00    +0.000 A 
ATOM     31  N   UNL     1      -4.625   2.338 126.774  0.00  0.00    +0.000 NA
ATOM     32  H   UNL     1      -2.109   4.907 129.916  0.00  0.00    +0.000 HD
ENDBRANCH  21  23
ENDBRANCH  20  21
ENDBRANCH   1  20
TORSDOF 4
ENDMDL
MODEL 9
REMARK VINA RESULT:      -8.0      4.079      8.689
REMARK  Name = Duvelisib
REMARK  5 active torsions:
REMARK  status: ('A' for Active; 'I' for Inactive)
REMARK    1  A    between atoms: C_1  and  C_2
REMARK    2  A    between atoms: C_2  and  N_3
REMARK    3  A    between atoms: C_2  and  C_13
REMARK    4  A    between atoms: N_3  and  C_4
REMARK    5  A    between atoms: N_24  and  C_25
REMARK                            x       y       z     vdW  Elec       q    Type
REMARK                         _______ _______ _______ _____ _____    ______ ____
ROOT
ATOM      1  C   UNL     1      -6.355   0.147 126.562  0.00  0.00    +0.000 A 
ATOM      2  C   UNL     1      -5.911   1.385 126.821  0.00  0.00    +0.000 A 
ATOM      3  C   UNL     1      -5.959   2.427 125.828  0.00  0.00    +0.000 A 
ATOM      4  C   UNL     1      -5.336   3.636 126.134  0.00  0.00    +0.000 A 
ATOM      5  C   UNL     1      -5.096   4.534 125.112  0.00  0.00    +0.000 A 
ATOM      6  C   UNL     1      -5.727   4.351 123.885  0.00  0.00    +0.000 A 
ATOM      7  C   UNL     1      -6.484   3.205 123.624  0.00  0.00    +0.000 A 
ATOM      8 CL   UNL     1      -7.337   3.180 122.124  0.00  0.00    +0.000 Cl
ATOM      9  C   UNL     1      -6.507   2.178 124.567  0.00  0.00    +0.000 A 
ATOM     10  C   UNL     1      -7.015   0.812 124.282  0.00  0.00    +0.000 A 
ATOM     11  O   UNL     1      -7.484   0.554 123.165  0.00  0.00    +0.000 OA
ATOM     12  N   UNL     1      -6.926  -0.146 125.312  0.00  0.00    +0.000 N 
ENDROOT
BRANCH  12  13
ATOM     13  C   UNL     1      -7.490  -1.417 125.026  0.00  0.00    +0.000 A 
ATOM     14  C   UNL     1      -6.723  -2.401 124.397  0.00  0.00    +0.000 A 
ATOM     15  C   UNL     1      -7.202  -3.706 124.356  0.00  0.00    +0.000 A 
ATOM     16  C   UNL     1      -8.530  -3.966 124.696  0.00  0.00    +0.000 A 
ATOM     17  C   UNL     1      -9.345  -2.947 125.185  0.00  0.00    +0.000 A 
ATOM     18  C   UNL     1      -8.803  -1.690 125.420  0.00  0.00    +0.000 A 
ENDBRANCH  12  13
BRANCH   1  20
ATOM     19  C   UNL     1      -7.319  -0.726 128.670  0.00  0.00    +0.000 C 
ATOM     20  C   UNL     1      -6.180  -0.925 127.647  0.00  0.00    +0.000 C 
BRANCH  20  21
ATOM     21  N   UNL     1      -4.876  -0.724 128.277  0.00  0.00    +0.000 N 
ATOM     22  H   UNL     1      -4.112  -0.360 127.718  0.00  0.00    +0.000 HD
BRANCH  21  23
ATOM     23  C   UNL     1      -4.454  -1.587 129.283  0.00  0.00    +0.000 A 
ATOM     24  C   UNL     1      -4.159  -1.217 130.617  0.00  0.00    +0.000 A 
ATOM     25  N   UNL     1      -4.318  -0.037 131.325  0.00  0.00    +0.000 NA
ATOM     26  C   UNL     1      -3.713  -0.226 132.472  0.00  0.00    +0.000 A 
ATOM     27  N   UNL     1      -3.304  -1.521 132.603  0.00  0.00    +0.000 N 
ATOM     28  C   UNL     1      -3.567  -2.166 131.426  0.00  0.00    +0.000 A 
ATOM     29  N   UNL     1      -3.299  -3.443 131.122  0.00  0.00    +0.000 NA
ATOM     30  C   UNL     1      -3.694  -3.717 129.860  0.00  0.00    +0.000 A 
ATOM     31  N   UNL     1      -4.238  -2.885 128.940  0.00  0.00    +0.000 NA
ATOM     32  H   UNL     1      -2.889  -1.938 133.422  0.00  0.00    +0.000 HD
ENDBRANCH  21  23
ENDBRANCH  20  21
ENDBRANCH   1  20
TORSDOF 4
ENDMDL
