MODEL 1
REMARK VINA RESULT:      -6.5      0.000      0.000
REMARK  Name = Dyclonine
REMARK  9 active torsions:
REMARK  status: ('A' for Active; 'I' for Inactive)
REMARK    1  A    between atoms: C_1  and  C_2
REMARK    2  A    between atoms: C_2  and  C_3
REMARK    3  A    between atoms: C_3  and  C_4
REMARK    4  A    between atoms: C_4  and  O_5
REMARK    5  A    between atoms: O_5  and  C_6
REMARK    6  A    between atoms: C_9  and  C_12
REMARK    7  A    between atoms: C_12  and  C_14
REMARK    8  A    between atoms: C_14  and  C_15
REMARK    9  A    between atoms: C_15  and  N_16
REMARK                            x       y       z     vdW  Elec       q    Type
REMARK                         _______ _______ _______ _____ _____    ______ ____
ROOT
ATOM      1  C   UNL     1     -11.149   6.958 130.745  0.00  0.00    +0.000 A 
ATOM      2  C   UNL     1     -10.074   7.381 129.962  0.00  0.00    +0.000 A 
ATOM      3  C   UNL     1      -8.762   7.112 130.353  0.00  0.00    +0.000 A 
ATOM      4  C   UNL     1      -8.512   6.478 131.570  0.00  0.00    +0.000 A 
ATOM      5  C   UNL     1      -9.591   6.044 132.354  0.00  0.00    +0.000 A 
ATOM      6  C   UNL     1     -10.905   6.278 131.936  0.00  0.00    +0.000 A 
ENDROOT
BRANCH   4   7
ATOM      7  C   UNL     1      -7.095   6.344 132.011  0.00  0.00    +0.000 C 
ATOM      8  O   UNL     1      -6.822   5.761 133.060  0.00  0.00    +0.000 OA
BRANCH   7   9
ATOM      9  C   UNL     1      -6.044   6.898 131.097  0.00  0.00    +0.000 C 
BRANCH   9  10
ATOM     10  C   UNL     1      -4.623   6.668 131.610  0.00  0.00    +0.000 C 
BRANCH  10  11
ATOM     11  N   UNL     1      -3.684   6.259 130.547  0.00  0.00    +0.000 NA
ATOM     12  C   UNL     1      -3.960   4.891 130.083  0.00  0.00    +0.000 C 
ATOM     13  C   UNL     1      -2.956   4.439 129.032  0.00  0.00    +0.000 C 
ATOM     14  C   UNL     1      -2.928   5.415 127.861  0.00  0.00    +0.000 C 
ATOM     15  C   UNL     1      -2.692   6.839 128.354  0.00  0.00    +0.000 C 
ATOM     16  C   UNL     1      -3.701   7.217 129.432  0.00  0.00    +0.000 C 
ENDBRANCH  10  11
ENDBRANCH   9  10
ENDBRANCH   7   9
ENDBRANCH   4   7
BRANCH   1  17
ATOM     17  O   UNL     1     -12.393   7.159 130.212  0.00  0.00    +0.000 OA
BRANCH  17  18
ATOM     18  C   UNL     1     -12.772   8.524 130.023  0.00  0.00    +0.000 C 
BRANCH  18  19
ATOM     19  C   UNL     1     -13.124   8.722 128.551  0.00  0.00    +0.000 C 
BRANCH  19  21
ATOM     20  C   UNL     1     -12.675   7.043 126.737  0.00  0.00    +0.000 C 
ATOM     21  C   UNL     1     -13.567   7.409 127.911  0.00  0.00    +0.000 C 
ENDBRANCH  19  21
ENDBRANCH  18  19
ENDBRANCH  17  18
ENDBRANCH   1  17
TORSDOF 8
ENDMDL
MODEL 2
REMARK VINA RESULT:      -6.4      3.654      4.686
REMARK  Name = Dyclonine
REMARK  9 active torsions:
REMARK  status: ('A' for Active; 'I' for Inactive)
REMARK    1  A    between atoms: C_1  and  C_2
REMARK    2  A    between atoms: C_2  and  C_3
REMARK    3  A    between atoms: C_3  and  C_4
REMARK    4  A    between atoms: C_4  and  O_5
REMARK    5  A    between atoms: O_5  and  C_6
REMARK    6  A    between atoms: C_9  and  C_12
REMARK    7  A    between atoms: C_12  and  C_14
REMARK    8  A    between atoms: C_14  and  C_15
REMARK    9  A    between atoms: C_15  and  N_16
REMARK                            x       y       z     vdW  Elec       q    Type
REMARK                         _______ _______ _______ _____ _____    ______ ____
ROOT
ATOM      1  C   UNL     1     -11.194   6.932 129.104  0.00  0.00    +0.000 A 
ATOM      2  C   UNL     1     -11.650   5.945 129.982  0.00  0.00    +0.000 A 
ATOM      3  C   UNL     1     -10.895   5.586 131.098  0.00  0.00    +0.000 A 
ATOM      4  C   UNL     1      -9.641   6.160 131.308  0.00  0.00    +0.000 A 
ATOM      5  C   UNL     1      -9.185   7.157 130.433  0.00  0.00    +0.000 A 
ATOM      6  C   UNL     1      -9.966   7.545 129.339  0.00  0.00    +0.000 A 
ENDROOT
BRANCH   4   7
ATOM      7  C   UNL     1      -8.811   5.638 132.431  0.00  0.00    +0.000 C 
ATOM      8  O   UNL     1      -7.692   6.103 132.647  0.00  0.00    +0.000 OA
BRANCH   7   9
ATOM      9  C   UNL     1      -9.426   4.579 133.295  0.00  0.00    +0.000 C 
BRANCH   9  10
ATOM     10  C   UNL     1      -8.391   3.673 133.960  0.00  0.00    +0.000 C 
BRANCH  10  11
ATOM     11  N   UNL     1      -8.299   2.341 133.331  0.00  0.00    +0.000 NA
ATOM     12  C   UNL     1      -9.445   2.085 132.445  0.00  0.00    +0.000 C 
ATOM     13  C   UNL     1      -9.390   0.688 131.842  0.00  0.00    +0.000 C 
ATOM     14  C   UNL     1      -8.073   0.474 131.104  0.00  0.00    +0.000 C 
ATOM     15  C   UNL     1      -6.891   0.791 132.012  0.00  0.00    +0.000 C 
ATOM     16  C   UNL     1      -7.024   2.183 132.617  0.00  0.00    +0.000 C 
ENDBRANCH  10  11
ENDBRANCH   9  10
ENDBRANCH   7   9
ENDBRANCH   4   7
BRANCH   1  17
ATOM     17  O   UNL     1     -12.064   7.299 128.115  0.00  0.00    +0.000 OA
BRANCH  17  18
ATOM     18  C   UNL     1     -13.324   7.809 128.555  0.00  0.00    +0.000 C 
BRANCH  18  19
ATOM     19  C   UNL     1     -13.236   9.332 128.594  0.00  0.00    +0.000 C 
BRANCH  19  21
ATOM     20  C   UNL     1     -13.612  11.270 130.148  0.00  0.00    +0.000 C 
ATOM     21  C   UNL     1     -13.118   9.839 130.028  0.00  0.00    +0.000 C 
ENDBRANCH  19  21
ENDBRANCH  18  19
ENDBRANCH  17  18
ENDBRANCH   1  17
TORSDOF 8
ENDMDL
MODEL 3
REMARK VINA RESULT:      -6.3      8.292     10.034
REMARK  Name = Dyclonine
REMARK  9 active torsions:
REMARK  status: ('A' for Active; 'I' for Inactive)
REMARK    1  A    between atoms: C_1  and  C_2
REMARK    2  A    between atoms: C_2  and  C_3
REMARK    3  A    between atoms: C_3  and  C_4
REMARK    4  A    between atoms: C_4  and  O_5
REMARK    5  A    between atoms: O_5  and  C_6
REMARK    6  A    between atoms: C_9  and  C_12
REMARK    7  A    between atoms: C_12  and  C_14
REMARK    8  A    between atoms: C_14  and  C_15
REMARK    9  A    between atoms: C_15  and  N_16
REMARK                            x       y       z     vdW  Elec       q    Type
REMARK                         _______ _______ _______ _____ _____    ______ ____
ROOT
ATOM      1  C   UNL     1      -8.984  -2.491 126.122  0.00  0.00    +0.000 A 
ATOM      2  C   UNL     1      -8.274  -1.388 126.599  0.00  0.00    +0.000 A 
ATOM      3  C   UNL     1      -7.697  -1.411 127.870  0.00  0.00    +0.000 A 
ATOM      4  C   UNL     1      -7.888  -2.513 128.703  0.00  0.00    +0.000 A 
ATOM      5  C   UNL     1      -8.593  -3.626 128.222  0.00  0.00    +0.000 A 
ATOM      6  C   UNL     1      -9.132  -3.615 126.931  0.00  0.00    +0.000 A 
ENDROOT
BRANCH   4   7
ATOM      7  C   UNL     1      -7.377  -2.430 130.101  0.00  0.00    +0.000 C 
ATOM      8  O   UNL     1      -7.124  -3.455 130.734  0.00  0.00    +0.000 OA
BRANCH   7   9
ATOM      9  C   UNL     1      -7.145  -1.058 130.659  0.00  0.00    +0.000 C 
BRANCH   9  10
ATOM     10  C   UNL     1      -7.321  -0.990 132.175  0.00  0.00    +0.000 C 
BRANCH  10  11
ATOM     11  N   UNL     1      -8.075   0.200 132.616  0.00  0.00    +0.000 NA
ATOM     12  C   UNL     1      -7.178   1.331 132.893  0.00  0.00    +0.000 C 
ATOM     13  C   UNL     1      -7.942   2.542 133.411  0.00  0.00    +0.000 C 
ATOM     14  C   UNL     1      -9.038   2.944 132.431  0.00  0.00    +0.000 C 
ATOM     15  C   UNL     1      -9.934   1.753 132.109  0.00  0.00    +0.000 C 
ATOM     16  C   UNL     1      -9.109   0.562 131.637  0.00  0.00    +0.000 C 
ENDBRANCH  10  11
ENDBRANCH   9  10
ENDBRANCH   7   9
ENDBRANCH   4   7
BRANCH   1  17
ATOM     17  O   UNL     1      -9.399  -2.417 124.821  0.00  0.00    +0.000 OA
BRANCH  17  18
ATOM     18  C   UNL     1      -8.649  -3.193 123.885  0.00  0.00    +0.000 C 
BRANCH  18  19
ATOM     19  C   UNL     1      -7.882  -2.237 122.977  0.00  0.00    +0.000 C 
BRANCH  19  21
ATOM     20  C   UNL     1      -5.970  -3.408 124.112  0.00  0.00    +0.000 C 
ATOM     21  C   UNL     1      -6.414  -2.149 123.387  0.00  0.00    +0.000 C 
ENDBRANCH  19  21
ENDBRANCH  18  19
ENDBRANCH  17  18
ENDBRANCH   1  17
TORSDOF 8
ENDMDL
MODEL 4
REMARK VINA RESULT:      -6.3      2.883      4.172
REMARK  Name = Dyclonine
REMARK  9 active torsions:
REMARK  status: ('A' for Active; 'I' for Inactive)
REMARK    1  A    between atoms: C_1  and  C_2
REMARK    2  A    between atoms: C_2  and  C_3
REMARK    3  A    between atoms: C_3  and  C_4
REMARK    4  A    between atoms: C_4  and  O_5
REMARK    5  A    between atoms: O_5  and  C_6
REMARK    6  A    between atoms: C_9  and  C_12
REMARK    7  A    between atoms: C_12  and  C_14
REMARK    8  A    between atoms: C_14  and  C_15
REMARK    9  A    between atoms: C_15  and  N_16
REMARK                            x       y       z     vdW  Elec       q    Type
REMARK                         _______ _______ _______ _____ _____    ______ ____
ROOT
ATOM      1  C   UNL     1     -11.502   7.248 130.493  0.00  0.00    +0.000 A 
ATOM      2  C   UNL     1     -10.383   7.615 129.742  0.00  0.00    +0.000 A 
ATOM      3  C   UNL     1      -9.106   7.203 130.125  0.00  0.00    +0.000 A 
ATOM      4  C   UNL     1      -8.930   6.478 131.304  0.00  0.00    +0.000 A 
ATOM      5  C   UNL     1     -10.053   6.100 132.054  0.00  0.00    +0.000 A 
ATOM      6  C   UNL     1     -11.335   6.479 131.643  0.00  0.00    +0.000 A 
ENDROOT
BRANCH   4   7
ATOM      7  C   UNL     1      -7.536   6.187 131.745  0.00  0.00    +0.000 C 
ATOM      8  O   UNL     1      -6.642   7.015 131.569  0.00  0.00    +0.000 OA
BRANCH   7   9
ATOM      9  C   UNL     1      -7.304   4.883 132.447  0.00  0.00    +0.000 C 
BRANCH   9  10
ATOM     10  C   UNL     1      -6.770   3.791 131.521  0.00  0.00    +0.000 C 
BRANCH  10  11
ATOM     11  N   UNL     1      -7.762   2.736 131.238  0.00  0.00    +0.000 NA
ATOM     12  C   UNL     1      -7.120   1.422 131.086  0.00  0.00    +0.000 C 
ATOM     13  C   UNL     1      -8.129   0.339 130.730  0.00  0.00    +0.000 C 
ATOM     14  C   UNL     1      -9.243   0.282 131.770  0.00  0.00    +0.000 C 
ATOM     15  C   UNL     1      -9.870   1.659 131.960  0.00  0.00    +0.000 C 
ATOM     16  C   UNL     1      -8.807   2.705 132.271  0.00  0.00    +0.000 C 
ENDBRANCH  10  11
ENDBRANCH   9  10
ENDBRANCH   7   9
ENDBRANCH   4   7
BRANCH   1  17
ATOM     17  O   UNL     1     -12.715   7.595 129.965  0.00  0.00    +0.000 OA
BRANCH  17  18
ATOM     18  C   UNL     1     -13.204   6.746 128.925  0.00  0.00    +0.000 C 
BRANCH  18  19
ATOM     19  C   UNL     1     -13.348   7.581 127.655  0.00  0.00    +0.000 C 
BRANCH  19  21
ATOM     20  C   UNL     1     -11.191   7.715 126.374  0.00  0.00    +0.000 C 
ATOM     21  C   UNL     1     -12.520   6.993 126.516  0.00  0.00    +0.000 C 
ENDBRANCH  19  21
ENDBRANCH  18  19
ENDBRANCH  17  18
ENDBRANCH   1  17
TORSDOF 8
ENDMDL
MODEL 5
REMARK VINA RESULT:      -6.3      1.077      2.195
REMARK  Name = Dyclonine
REMARK  9 active torsions:
REMARK  status: ('A' for Active; 'I' for Inactive)
REMARK    1  A    between atoms: C_1  and  C_2
REMARK    2  A    between atoms: C_2  and  C_3
REMARK    3  A    between atoms: C_3  and  C_4
REMARK    4  A    between atoms: C_4  and  O_5
REMARK    5  A    between atoms: O_5  and  C_6
REMARK    6  A    between atoms: C_9  and  C_12
REMARK    7  A    between atoms: C_12  and  C_14
REMARK    8  A    between atoms: C_14  and  C_15
REMARK    9  A    between atoms: C_15  and  N_16
REMARK                            x       y       z     vdW  Elec       q    Type
REMARK                         _______ _______ _______ _____ _____    ______ ____
ROOT
ATOM      1  C   UNL     1     -10.661   6.978 130.699  0.00  0.00    +0.000 A 
ATOM      2  C   UNL     1     -10.753   6.287 131.909  0.00  0.00    +0.000 A 
ATOM      3  C   UNL     1      -9.601   5.918 132.604  0.00  0.00    +0.000 A 
ATOM      4  C   UNL     1      -8.343   6.175 132.058  0.00  0.00    +0.000 A 
ATOM      5  C   UNL     1      -8.249   6.876 130.847  0.00  0.00    +0.000 A 
ATOM      6  C   UNL     1      -9.406   7.282 130.175  0.00  0.00    +0.000 A 
ENDROOT
BRANCH   4   7
ATOM      7  C   UNL     1      -7.149   5.632 132.766  0.00  0.00    +0.000 C 
ATOM      8  O   UNL     1      -7.055   5.726 133.990  0.00  0.00    +0.000 OA
BRANCH   7   9
ATOM      9  C   UNL     1      -6.121   4.934 131.928  0.00  0.00    +0.000 C 
BRANCH   9  10
ATOM     10  C   UNL     1      -4.789   5.681 131.869  0.00  0.00    +0.000 C 
BRANCH  10  11
ATOM     11  N   UNL     1      -4.310   5.901 130.490  0.00  0.00    +0.000 NA
ATOM     12  C   UNL     1      -3.964   7.312 130.261  0.00  0.00    +0.000 C 
ATOM     13  C   UNL     1      -3.530   7.559 128.823  0.00  0.00    +0.000 C 
ATOM     14  C   UNL     1      -2.368   6.646 128.448  0.00  0.00    +0.000 C 
ATOM     15  C   UNL     1      -2.715   5.189 128.737  0.00  0.00    +0.000 C 
ATOM     16  C   UNL     1      -3.181   5.014 130.177  0.00  0.00    +0.000 C 
ENDBRANCH  10  11
ENDBRANCH   9  10
ENDBRANCH   7   9
ENDBRANCH   4   7
BRANCH   1  17
ATOM     17  O   UNL     1     -11.845   7.404 130.162  0.00  0.00    +0.000 OA
BRANCH  17  18
ATOM     18  C   UNL     1     -11.759   8.007 128.870  0.00  0.00    +0.000 C 
BRANCH  18  19
ATOM     19  C   UNL     1     -12.840   9.078 128.769  0.00  0.00    +0.000 C 
BRANCH  19  21
ATOM     20  C   UNL     1     -13.599  11.151 129.970  0.00  0.00    +0.000 C 
ATOM     21  C   UNL     1     -13.100   9.725 130.127  0.00  0.00    +0.000 C 
ENDBRANCH  19  21
ENDBRANCH  18  19
ENDBRANCH  17  18
ENDBRANCH   1  17
TORSDOF 8
ENDMDL
MODEL 6
REMARK VINA RESULT:      -6.3      5.792      8.339
REMARK  Name = Dyclonine
REMARK  9 active torsions:
REMARK  status: ('A' for Active; 'I' for Inactive)
REMARK    1  A    between atoms: C_1  and  C_2
REMARK    2  A    between atoms: C_2  and  C_3
REMARK    3  A    between atoms: C_3  and  C_4
REMARK    4  A    between atoms: C_4  and  O_5
REMARK    5  A    between atoms: O_5  and  C_6
REMARK    6  A    between atoms: C_9  and  C_12
REMARK    7  A    between atoms: C_12  and  C_14
REMARK    8  A    between atoms: C_14  and  C_15
REMARK    9  A    between atoms: C_15  and  N_16
REMARK                            x       y       z     vdW  Elec       q    Type
REMARK                         _______ _______ _______ _____ _____    ______ ____
ROOT
ATOM      1  C   UNL     1      -8.205  -0.649 130.729  0.00  0.00    +0.000 A 
ATOM      2  C   UNL     1      -7.906   0.168 129.637  0.00  0.00    +0.000 A 
ATOM      3  C   UNL     1      -8.212   1.529 129.666  0.00  0.00    +0.000 A 
ATOM      4  C   UNL     1      -8.886   2.071 130.760  0.00  0.00    +0.000 A 
ATOM      5  C   UNL     1      -9.179   1.253 131.862  0.00  0.00    +0.000 A 
ATOM      6  C   UNL     1      -8.831  -0.101 131.846  0.00  0.00    +0.000 A 
ENDROOT
BRANCH   4   7
ATOM      7  C   UNL     1      -9.319   3.495 130.680  0.00  0.00    +0.000 C 
ATOM      8  O   UNL     1      -8.500   4.404 130.816  0.00  0.00    +0.000 OA
BRANCH   7   9
ATOM      9  C   UNL     1     -10.765   3.749 130.377  0.00  0.00    +0.000 C 
BRANCH   9  10
ATOM     10  C   UNL     1     -11.194   5.187 130.665  0.00  0.00    +0.000 C 
BRANCH  10  11
ATOM     11  N   UNL     1     -11.269   6.022 129.450  0.00  0.00    +0.000 NA
ATOM     12  C   UNL     1     -12.663   6.339 129.103  0.00  0.00    +0.000 C 
ATOM     13  C   UNL     1     -12.752   7.145 127.815  0.00  0.00    +0.000 C 
ATOM     14  C   UNL     1     -11.915   8.415 127.918  0.00  0.00    +0.000 C 
ATOM     15  C   UNL     1     -10.485   8.084 128.329  0.00  0.00    +0.000 C 
ATOM     16  C   UNL     1     -10.463   7.242 129.598  0.00  0.00    +0.000 C 
ENDBRANCH  10  11
ENDBRANCH   9  10
ENDBRANCH   7   9
ENDBRANCH   4   7
BRANCH   1  17
ATOM     17  O   UNL     1      -7.751  -1.937 130.653  0.00  0.00    +0.000 OA
BRANCH  17  18
ATOM     18  C   UNL     1      -7.511  -2.433 129.335  0.00  0.00    +0.000 C 
BRANCH  18  19
ATOM     19  C   UNL     1      -8.615  -3.428 128.990  0.00  0.00    +0.000 C 
BRANCH  19  21
ATOM     20  C   UNL     1      -8.579  -2.363 126.714  0.00  0.00    +0.000 C 
ATOM     21  C   UNL     1      -8.686  -3.668 127.484  0.00  0.00    +0.000 C 
ENDBRANCH  19  21
ENDBRANCH  18  19
ENDBRANCH  17  18
ENDBRANCH   1  17
TORSDOF 8
ENDMDL
MODEL 7
REMARK VINA RESULT:      -6.2      9.631     11.122
REMARK  Name = Dyclonine
REMARK  9 active torsions:
REMARK  status: ('A' for Active; 'I' for Inactive)
REMARK    1  A    between atoms: C_1  and  C_2
REMARK    2  A    between atoms: C_2  and  C_3
REMARK    3  A    between atoms: C_3  and  C_4
REMARK    4  A    between atoms: C_4  and  O_5
REMARK    5  A    between atoms: O_5  and  C_6
REMARK    6  A    between atoms: C_9  and  C_12
REMARK    7  A    between atoms: C_12  and  C_14
REMARK    8  A    between atoms: C_14  and  C_15
REMARK    9  A    between atoms: C_15  and  N_16
REMARK                            x       y       z     vdW  Elec       q    Type
REMARK                         _______ _______ _______ _____ _____    ______ ____
ROOT
ATOM      1  C   UNL     1      -9.055  -1.918 125.722  0.00  0.00    +0.000 A 
ATOM      2  C   UNL     1      -8.247  -1.060 126.471  0.00  0.00    +0.000 A 
ATOM      3  C   UNL     1      -7.675  -1.490 127.668  0.00  0.00    +0.000 A 
ATOM      4  C   UNL     1      -7.966  -2.761 128.164  0.00  0.00    +0.000 A 
ATOM      5  C   UNL     1      -8.770  -3.627 127.410  0.00  0.00    +0.000 A 
ATOM      6  C   UNL     1      -9.306  -3.206 126.188  0.00  0.00    +0.000 A 
ENDROOT
BRANCH   4   7
ATOM      7  C   UNL     1      -7.449  -3.120 129.516  0.00  0.00    +0.000 C 
ATOM      8  O   UNL     1      -6.745  -4.118 129.669  0.00  0.00    +0.000 OA
BRANCH   7   9
ATOM      9  C   UNL     1      -7.784  -2.186 130.641  0.00  0.00    +0.000 C 
BRANCH   9  10
ATOM     10  C   UNL     1      -6.809  -2.287 131.813  0.00  0.00    +0.000 C 
BRANCH  10  11
ATOM     11  N   UNL     1      -7.134  -3.388 132.741  0.00  0.00    +0.000 NA
ATOM     12  C   UNL     1      -5.918  -4.071 133.210  0.00  0.00    +0.000 C 
ATOM     13  C   UNL     1      -6.248  -5.248 134.117  0.00  0.00    +0.000 C 
ATOM     14  C   UNL     1      -7.106  -4.795 135.294  0.00  0.00    +0.000 C 
ATOM     15  C   UNL     1      -8.338  -4.043 134.802  0.00  0.00    +0.000 C 
ATOM     16  C   UNL     1      -7.946  -2.906 133.868  0.00  0.00    +0.000 C 
ENDBRANCH  10  11
ENDBRANCH   9  10
ENDBRANCH   7   9
ENDBRANCH   4   7
BRANCH   1  17
ATOM     17  O   UNL     1      -9.462  -1.444 124.505  0.00  0.00    +0.000 OA
BRANCH  17  18
ATOM     18  C   UNL     1      -8.434  -0.901 123.676  0.00  0.00    +0.000 C 
BRANCH  18  19
ATOM     19  C   UNL     1      -7.804  -2.045 122.885  0.00  0.00    +0.000 C 
BRANCH  19  21
ATOM     20  C   UNL     1      -5.890  -3.022 124.186  0.00  0.00    +0.000 C 
ATOM     21  C   UNL     1      -6.290  -2.072 123.071  0.00  0.00    +0.000 C 
ENDBRANCH  19  21
ENDBRANCH  18  19
ENDBRANCH  17  18
ENDBRANCH   1  17
TORSDOF 8
ENDMDL
MODEL 8
REMARK VINA RESULT:      -6.2      3.840      5.756
REMARK  Name = Dyclonine
REMARK  9 active torsions:
REMARK  status: ('A' for Active; 'I' for Inactive)
REMARK    1  A    between atoms: C_1  and  C_2
REMARK    2  A    between atoms: C_2  and  C_3
REMARK    3  A    between atoms: C_3  and  C_4
REMARK    4  A    between atoms: C_4  and  O_5
REMARK    5  A    between atoms: O_5  and  C_6
REMARK    6  A    between atoms: C_9  and  C_12
REMARK    7  A    between atoms: C_12  and  C_14
REMARK    8  A    between atoms: C_14  and  C_15
REMARK    9  A    between atoms: C_15  and  N_16
REMARK                            x       y       z     vdW  Elec       q    Type
REMARK                         _______ _______ _______ _____ _____    ______ ____
ROOT
ATOM      1  C   UNL     1      -9.223   7.059 130.559  0.00  0.00    +0.000 A 
ATOM      2  C   UNL     1      -7.883   6.901 130.921  0.00  0.00    +0.000 A 
ATOM      3  C   UNL     1      -7.540   6.212 132.085  0.00  0.00    +0.000 A 
ATOM      4  C   UNL     1      -8.538   5.737 132.936  0.00  0.00    +0.000 A 
ATOM      5  C   UNL     1      -9.883   5.886 132.569  0.00  0.00    +0.000 A 
ATOM      6  C   UNL     1     -10.221   6.540 131.380  0.00  0.00    +0.000 A 
ENDROOT
BRANCH   4   7
ATOM      7  C   UNL     1      -8.122   5.138 134.236  0.00  0.00    +0.000 C 
ATOM      8  O   UNL     1      -8.600   4.067 134.609  0.00  0.00    +0.000 OA
BRANCH   7   9
ATOM      9  C   UNL     1      -7.074   5.872 135.017  0.00  0.00    +0.000 C 
BRANCH   9  10
ATOM     10  C   UNL     1      -7.126   5.574 136.515  0.00  0.00    +0.000 C 
BRANCH  10  11
ATOM     11  N   UNL     1      -7.127   6.793 137.347  0.00  0.00    +0.000 NA
ATOM     12  C   UNL     1      -5.935   7.617 137.094  0.00  0.00    +0.000 C 
ATOM     13  C   UNL     1      -5.896   8.843 137.995  0.00  0.00    +0.000 C 
ATOM     14  C   UNL     1      -7.170   9.666 137.837  0.00  0.00    +0.000 C 
ATOM     15  C   UNL     1      -8.402   8.794 138.050  0.00  0.00    +0.000 C 
ATOM     16  C   UNL     1      -8.362   7.564 137.152  0.00  0.00    +0.000 C 
ENDBRANCH  10  11
ENDBRANCH   9  10
ENDBRANCH   7   9
ENDBRANCH   4   7
BRANCH   1  17
ATOM     17  O   UNL     1      -9.448   7.636 129.340  0.00  0.00    +0.000 OA
BRANCH  17  18
ATOM     18  C   UNL     1     -10.588   7.155 128.627  0.00  0.00    +0.000 C 
BRANCH  18  19
ATOM     19  C   UNL     1     -11.205   8.325 127.866  0.00  0.00    +0.000 C 
BRANCH  19  21
ATOM     20  C   UNL     1     -12.703   8.939 129.788  0.00  0.00    +0.000 C 
ATOM     21  C   UNL     1     -12.642   8.575 128.314  0.00  0.00    +0.000 C 
ENDBRANCH  19  21
ENDBRANCH  18  19
ENDBRANCH  17  18
ENDBRANCH   1  17
TORSDOF 8
ENDMDL
MODEL 9
REMARK VINA RESULT:      -6.1      8.809     11.110
REMARK  Name = Dyclonine
REMARK  9 active torsions:
REMARK  status: ('A' for Active; 'I' for Inactive)
REMARK    1  A    between atoms: C_1  and  C_2
REMARK    2  A    between atoms: C_2  and  C_3
REMARK    3  A    between atoms: C_3  and  C_4
REMARK    4  A    between atoms: C_4  and  O_5
REMARK    5  A    between atoms: O_5  and  C_6
REMARK    6  A    between atoms: C_9  and  C_12
REMARK    7  A    between atoms: C_12  and  C_14
REMARK    8  A    between atoms: C_14  and  C_15
REMARK    9  A    between atoms: C_15  and  N_16
REMARK                            x       y       z     vdW  Elec       q    Type
REMARK                         _______ _______ _______ _____ _____    ______ ____
ROOT
ATOM      1  C   UNL     1      -7.993  -2.670 129.461  0.00  0.00    +0.000 A 
ATOM      2  C   UNL     1      -8.648  -3.731 128.832  0.00  0.00    +0.000 A 
ATOM      3  C   UNL     1      -8.812  -3.741 127.446  0.00  0.00    +0.000 A 
ATOM      4  C   UNL     1      -8.385  -2.653 126.685  0.00  0.00    +0.000 A 
ATOM      5  C   UNL     1      -7.719  -1.591 127.314  0.00  0.00    +0.000 A 
ATOM      6  C   UNL     1      -7.519  -1.606 128.698  0.00  0.00    +0.000 A 
ENDROOT
BRANCH   4   7
ATOM      7  C   UNL     1      -8.713  -2.645 125.230  0.00  0.00    +0.000 C 
ATOM      8  O   UNL     1      -9.846  -2.935 124.846  0.00  0.00    +0.000 OA
BRANCH   7   9
ATOM      9  C   UNL     1      -7.624  -2.220 124.291  0.00  0.00    +0.000 C 
BRANCH   9  10
ATOM     10  C   UNL     1      -8.151  -1.493 123.055  0.00  0.00    +0.000 C 
BRANCH  10  11
ATOM     11  N   UNL     1      -8.082  -0.023 123.175  0.00  0.00    +0.000 NA
ATOM     12  C   UNL     1      -9.396   0.551 123.500  0.00  0.00    +0.000 C 
ATOM     13  C   UNL     1      -9.346   2.072 123.562  0.00  0.00    +0.000 C 
ATOM     14  C   UNL     1      -8.288   2.533 124.558  0.00  0.00    +0.000 C 
ATOM     15  C   UNL     1      -6.940   1.894 124.246  0.00  0.00    +0.000 C 
ATOM     16  C   UNL     1      -7.064   0.378 124.156  0.00  0.00    +0.000 C 
ENDBRANCH  10  11
ENDBRANCH   9  10
ENDBRANCH   7   9
ENDBRANCH   4   7
BRANCH   1  17
ATOM     17  O   UNL     1      -7.773  -2.816 130.803  0.00  0.00    +0.000 OA
BRANCH  17  18
ATOM     18  C   UNL     1      -6.406  -2.767 131.216  0.00  0.00    +0.000 C 
BRANCH  18  19
ATOM     19  C   UNL     1      -5.755  -4.103 130.874  0.00  0.00    +0.000 C 
BRANCH  19  21
ATOM     20  C   UNL     1      -4.292  -3.255 129.016  0.00  0.00    +0.000 C 
ATOM     21  C   UNL     1      -4.321  -3.906 130.388  0.00  0.00    +0.000 C 
ENDBRANCH  19  21
ENDBRANCH  18  19
ENDBRANCH  17  18
ENDBRANCH   1  17
TORSDOF 8
ENDMDL
