MODEL 1
REMARK VINA RESULT:      -8.6      0.000      0.000
REMARK  Name = Dydrogesterone
REMARK  4 active torsions:
REMARK  status: ('A' for Active; 'I' for Inactive)
REMARK    1  A    between atoms: C_5  and  C_6
REMARK    2  A    between atoms: C_6  and  C_7
REMARK    3  A    between atoms: C_9  and  C_10
REMARK    4  A    between atoms: C_25  and  C_26
REMARK                            x       y       z     vdW  Elec       q    Type
REMARK                         _______ _______ _______ _____ _____    ______ ____
ROOT
ATOM      1  C   UNL     1      -6.739  -1.749 130.538  0.00  0.00    +0.000 C 
ATOM      2  C   UNL     1      -7.575  -1.669 131.861  0.00  0.00    +0.000 C 
ATOM      3  C   UNL     1      -7.128  -2.953 132.462  0.00  0.00    +0.000 C 
ATOM      4  C   UNL     1      -5.503  -2.802 132.244  0.00  0.00    +0.000 C 
ATOM      5  C   UNL     1      -5.616  -2.851 130.697  0.00  0.00    +0.000 C 
ATOM      6  C   UNL     1      -5.853  -4.411 130.517  0.00  0.00    +0.000 C 
ATOM      7  C   UNL     1      -4.602  -2.526 129.571  0.00  0.00    +0.000 C 
ATOM      8  C   UNL     1      -5.281  -2.764 128.154  0.00  0.00    +0.000 C 
ATOM      9  C   UNL     1      -6.549  -1.905 127.954  0.00  0.00    +0.000 C 
ATOM     10  C   UNL     1      -7.510  -1.987 129.236  0.00  0.00    +0.000 C 
ATOM     11  C   UNL     1      -8.256  -3.299 129.160  0.00  0.00    +0.000 C 
ATOM     12  C   UNL     1      -8.658  -3.840 128.006  0.00  0.00    +0.000 C 
ATOM     13  C   UNL     1      -8.625  -3.045 126.820  0.00  0.00    +0.000 C 
ATOM     14  C   UNL     1      -9.539  -3.166 125.838  0.00  0.00    +0.000 C 
ATOM     15  C   UNL     1      -9.167  -2.422 124.611  0.00  0.00    +0.000 C 
ATOM     16  O   UNL     1      -9.397  -1.226 124.295  0.00  0.00    +0.000 OA
ATOM     17  C   UNL     1      -8.097  -3.085 123.930  0.00  0.00    +0.000 C 
ATOM     18  C   UNL     1      -6.930  -2.705 125.087  0.00  0.00    +0.000 C 
ATOM     19  C   UNL     1      -7.477  -2.077 126.608  0.00  0.00    +0.000 C 
ATOM     20  C   UNL     1      -8.121  -0.637 126.638  0.00  0.00    +0.000 C 
ENDROOT
BRANCH   4  21
ATOM     21  C   UNL     1      -4.624  -1.574 132.744  0.00  0.00    +0.000 C 
ATOM     22  C   UNL     1      -5.028  -0.721 133.934  0.00  0.00    +0.000 C 
ATOM     23  O   UNL     1      -3.502  -1.362 132.262  0.00  0.00    +0.000 OA
ENDBRANCH   4  21
TORSDOF 1
ENDMDL
MODEL 2
REMARK VINA RESULT:      -7.8      7.650      9.151
REMARK  Name = Dydrogesterone
REMARK  4 active torsions:
REMARK  status: ('A' for Active; 'I' for Inactive)
REMARK    1  A    between atoms: C_5  and  C_6
REMARK    2  A    between atoms: C_6  and  C_7
REMARK    3  A    between atoms: C_9  and  C_10
REMARK    4  A    between atoms: C_25  and  C_26
REMARK                            x       y       z     vdW  Elec       q    Type
REMARK                         _______ _______ _______ _____ _____    ______ ____
ROOT
ATOM      1  C   UNL     1      -7.895   5.234 132.098  0.00  0.00    +0.000 C 
ATOM      2  C   UNL     1      -7.156   5.706 133.397  0.00  0.00    +0.000 C 
ATOM      3  C   UNL     1      -7.572   4.589 134.285  0.00  0.00    +0.000 C 
ATOM      4  C   UNL     1      -7.235   3.316 133.297  0.00  0.00    +0.000 C 
ATOM      5  C   UNL     1      -8.320   3.718 132.261  0.00  0.00    +0.000 C 
ATOM      6  C   UNL     1      -9.607   3.223 133.048  0.00  0.00    +0.000 C 
ATOM      7  C   UNL     1      -8.599   3.243 130.813  0.00  0.00    +0.000 C 
ATOM      8  C   UNL     1      -9.861   4.014 130.232  0.00  0.00    +0.000 C 
ATOM      9  C   UNL     1      -9.672   5.545 130.231  0.00  0.00    +0.000 C 
ATOM     10  C   UNL     1      -9.104   6.057 131.642  0.00  0.00    +0.000 C 
ATOM     11  C   UNL     1     -10.262   6.093 132.611  0.00  0.00    +0.000 C 
ATOM     12  C   UNL     1     -11.504   6.427 132.247  0.00  0.00    +0.000 C 
ATOM     13  C   UNL     1     -11.713   7.025 130.967  0.00  0.00    +0.000 C 
ATOM     14  C   UNL     1     -12.658   7.959 130.747  0.00  0.00    +0.000 C 
ATOM     15  C   UNL     1     -12.852   8.252 129.307  0.00  0.00    +0.000 C 
ATOM     16  O   UNL     1     -12.260   9.081 128.568  0.00  0.00    +0.000 OA
ATOM     17  C   UNL     1     -13.531   7.168 128.664  0.00  0.00    +0.000 C 
ATOM     18  C   UNL     1     -12.226   6.103 128.758  0.00  0.00    +0.000 C 
ATOM     19  C   UNL     1     -10.897   6.545 129.782  0.00  0.00    +0.000 C 
ATOM     20  C   UNL     1      -9.997   7.769 129.358  0.00  0.00    +0.000 C 
ENDROOT
BRANCH   4  21
ATOM     21  C   UNL     1      -5.826   3.038 132.614  0.00  0.00    +0.000 C 
ATOM     22  C   UNL     1      -4.516   3.452 133.263  0.00  0.00    +0.000 C 
ATOM     23  O   UNL     1      -5.745   2.342 131.592  0.00  0.00    +0.000 OA
ENDBRANCH   4  21
TORSDOF 1
ENDMDL
MODEL 3
REMARK VINA RESULT:      -7.8      1.608      2.893
REMARK  Name = Dydrogesterone
REMARK  4 active torsions:
REMARK  status: ('A' for Active; 'I' for Inactive)
REMARK    1  A    between atoms: C_5  and  C_6
REMARK    2  A    between atoms: C_6  and  C_7
REMARK    3  A    between atoms: C_9  and  C_10
REMARK    4  A    between atoms: C_25  and  C_26
REMARK                            x       y       z     vdW  Elec       q    Type
REMARK                         _______ _______ _______ _____ _____    ______ ____
ROOT
ATOM      1  C   UNL     1      -6.647  -3.754 130.680  0.00  0.00    +0.000 C 
ATOM      2  C   UNL     1      -5.637  -4.875 131.103  0.00  0.00    +0.000 C 
ATOM      3  C   UNL     1      -4.657  -4.010 131.810  0.00  0.00    +0.000 C 
ATOM      4  C   UNL     1      -5.691  -3.131 132.741  0.00  0.00    +0.000 C 
ATOM      5  C   UNL     1      -6.352  -2.443 131.516  0.00  0.00    +0.000 C 
ATOM      6  C   UNL     1      -5.208  -1.396 131.176  0.00  0.00    +0.000 C 
ATOM      7  C   UNL     1      -7.643  -1.600 131.370  0.00  0.00    +0.000 C 
ATOM      8  C   UNL     1      -7.819  -1.149 129.857  0.00  0.00    +0.000 C 
ATOM      9  C   UNL     1      -7.888  -2.346 128.886  0.00  0.00    +0.000 C 
ATOM     10  C   UNL     1      -6.721  -3.404 129.190  0.00  0.00    +0.000 C 
ATOM     11  C   UNL     1      -5.445  -2.856 128.593  0.00  0.00    +0.000 C 
ATOM     12  C   UNL     1      -5.417  -2.162 127.451  0.00  0.00    +0.000 C 
ATOM     13  C   UNL     1      -6.578  -2.153 126.618  0.00  0.00    +0.000 C 
ATOM     14  C   UNL     1      -6.506  -2.112 125.274  0.00  0.00    +0.000 C 
ATOM     15  C   UNL     1      -7.822  -1.864 124.636  0.00  0.00    +0.000 C 
ATOM     16  O   UNL     1      -8.712  -2.681 124.284  0.00  0.00    +0.000 OA
ATOM     17  C   UNL     1      -8.221  -0.503 124.827  0.00  0.00    +0.000 C 
ATOM     18  C   UNL     1      -8.519  -0.669 126.479  0.00  0.00    +0.000 C 
ATOM     19  C   UNL     1      -7.951  -2.110 127.260  0.00  0.00    +0.000 C 
ATOM     20  C   UNL     1      -8.637  -3.482 126.896  0.00  0.00    +0.000 C 
ENDROOT
BRANCH   4  21
ATOM     21  C   UNL     1      -6.768  -3.745 133.738  0.00  0.00    +0.000 C 
ATOM     22  C   UNL     1      -6.528  -5.043 134.491  0.00  0.00    +0.000 C 
ATOM     23  O   UNL     1      -7.784  -3.104 134.044  0.00  0.00    +0.000 OA
ENDBRANCH   4  21
TORSDOF 1
ENDMDL
MODEL 4
REMARK VINA RESULT:      -7.8      1.751      7.032
REMARK  Name = Dydrogesterone
REMARK  4 active torsions:
REMARK  status: ('A' for Active; 'I' for Inactive)
REMARK    1  A    between atoms: C_5  and  C_6
REMARK    2  A    between atoms: C_6  and  C_7
REMARK    3  A    between atoms: C_9  and  C_10
REMARK    4  A    between atoms: C_25  and  C_26
REMARK                            x       y       z     vdW  Elec       q    Type
REMARK                         _______ _______ _______ _____ _____    ______ ____
ROOT
ATOM      1  C   UNL     1      -7.663  -0.561 125.355  0.00  0.00    +0.000 C 
ATOM      2  C   UNL     1      -6.907   0.438 124.413  0.00  0.00    +0.000 C 
ATOM      3  C   UNL     1      -6.590  -0.515 123.317  0.00  0.00    +0.000 C 
ATOM      4  C   UNL     1      -8.069  -1.212 123.127  0.00  0.00    +0.000 C 
ATOM      5  C   UNL     1      -8.043  -1.861 124.538  0.00  0.00    +0.000 C 
ATOM      6  C   UNL     1      -7.047  -3.061 124.238  0.00  0.00    +0.000 C 
ATOM      7  C   UNL     1      -9.147  -2.537 125.390  0.00  0.00    +0.000 C 
ATOM      8  C   UNL     1      -8.531  -3.026 126.771  0.00  0.00    +0.000 C 
ATOM      9  C   UNL     1      -7.905  -1.872 127.582  0.00  0.00    +0.000 C 
ATOM     10  C   UNL     1      -6.962  -0.962 126.657  0.00  0.00    +0.000 C 
ATOM     11  C   UNL     1      -5.652  -1.695 126.484  0.00  0.00    +0.000 C 
ATOM     12  C   UNL     1      -5.101  -2.434 127.451  0.00  0.00    +0.000 C 
ATOM     13  C   UNL     1      -5.613  -2.329 128.780  0.00  0.00    +0.000 C 
ATOM     14  C   UNL     1      -4.831  -2.437 129.871  0.00  0.00    +0.000 C 
ATOM     15  C   UNL     1      -5.609  -2.540 131.129  0.00  0.00    +0.000 C 
ATOM     16  O   UNL     1      -6.050  -1.631 131.879  0.00  0.00    +0.000 OA
ATOM     17  C   UNL     1      -6.223  -3.830 131.232  0.00  0.00    +0.000 C 
ATOM     18  C   UNL     1      -7.344  -3.556 130.002  0.00  0.00    +0.000 C 
ATOM     19  C   UNL     1      -7.107  -2.168 128.988  0.00  0.00    +0.000 C 
ATOM     20  C   UNL     1      -7.299  -0.736 129.620  0.00  0.00    +0.000 C 
ENDROOT
BRANCH   4  21
ATOM     21  C   UNL     1      -9.423  -0.423 122.854  0.00  0.00    +0.000 C 
ATOM     22  C   UNL     1      -9.488   1.095 122.848  0.00  0.00    +0.000 C 
ATOM     23  O   UNL     1     -10.444  -1.025 122.493  0.00  0.00    +0.000 OA
ENDBRANCH   4  21
TORSDOF 1
ENDMDL
MODEL 5
REMARK VINA RESULT:      -7.5      1.487      6.741
REMARK  Name = Dydrogesterone
REMARK  4 active torsions:
REMARK  status: ('A' for Active; 'I' for Inactive)
REMARK    1  A    between atoms: C_5  and  C_6
REMARK    2  A    between atoms: C_6  and  C_7
REMARK    3  A    between atoms: C_9  and  C_10
REMARK    4  A    between atoms: C_25  and  C_26
REMARK                            x       y       z     vdW  Elec       q    Type
REMARK                         _______ _______ _______ _____ _____    ______ ____
ROOT
ATOM      1  C   UNL     1      -7.079  -2.375 126.332  0.00  0.00    +0.000 C 
ATOM      2  C   UNL     1      -8.298  -3.248 125.876  0.00  0.00    +0.000 C 
ATOM      3  C   UNL     1      -9.322  -2.171 125.854  0.00  0.00    +0.000 C 
ATOM      4  C   UNL     1      -8.491  -1.023 125.017  0.00  0.00    +0.000 C 
ATOM      5  C   UNL     1      -7.432  -0.845 126.139  0.00  0.00    +0.000 C 
ATOM      6  C   UNL     1      -8.294   0.016 127.157  0.00  0.00    +0.000 C 
ATOM      7  C   UNL     1      -6.057  -0.131 126.165  0.00  0.00    +0.000 C 
ATOM      8  C   UNL     1      -5.407  -0.274 127.608  0.00  0.00    +0.000 C 
ATOM      9  C   UNL     1      -5.218  -1.747 128.029  0.00  0.00    +0.000 C 
ATOM     10  C   UNL     1      -6.546  -2.602 127.750  0.00  0.00    +0.000 C 
ATOM     11  C   UNL     1      -7.523  -2.298 128.862  0.00  0.00    +0.000 C 
ATOM     12  C   UNL     1      -7.142  -2.076 130.123  0.00  0.00    +0.000 C 
ATOM     13  C   UNL     1      -5.803  -2.390 130.507  0.00  0.00    +0.000 C 
ATOM     14  C   UNL     1      -5.487  -2.848 131.734  0.00  0.00    +0.000 C 
ATOM     15  C   UNL     1      -4.025  -2.870 131.980  0.00  0.00    +0.000 C 
ATOM     16  O   UNL     1      -3.181  -3.770 131.733  0.00  0.00    +0.000 OA
ATOM     17  C   UNL     1      -3.529  -1.539 132.163  0.00  0.00    +0.000 C 
ATOM     18  C   UNL     1      -3.731  -1.086 130.551  0.00  0.00    +0.000 C 
ATOM     19  C   UNL     1      -4.671  -2.129 129.532  0.00  0.00    +0.000 C 
ATOM     20  C   UNL     1      -4.086  -3.547 129.165  0.00  0.00    +0.000 C 
ENDROOT
BRANCH   4  21
ATOM     21  C   UNL     1      -7.823  -1.237 123.589  0.00  0.00    +0.000 C 
ATOM     22  C   UNL     1      -8.434  -2.149 122.538  0.00  0.00    +0.000 C 
ATOM     23  O   UNL     1      -6.853  -0.551 123.235  0.00  0.00    +0.000 OA
ENDBRANCH   4  21
TORSDOF 1
ENDMDL
MODEL 6
REMARK VINA RESULT:      -7.4      1.727      2.873
REMARK  Name = Dydrogesterone
REMARK  4 active torsions:
REMARK  status: ('A' for Active; 'I' for Inactive)
REMARK    1  A    between atoms: C_5  and  C_6
REMARK    2  A    between atoms: C_6  and  C_7
REMARK    3  A    between atoms: C_9  and  C_10
REMARK    4  A    between atoms: C_25  and  C_26
REMARK                            x       y       z     vdW  Elec       q    Type
REMARK                         _______ _______ _______ _____ _____    ______ ____
ROOT
ATOM      1  C   UNL     1      -7.347  -2.506 129.709  0.00  0.00    +0.000 C 
ATOM      2  C   UNL     1      -6.705  -3.676 130.531  0.00  0.00    +0.000 C 
ATOM      3  C   UNL     1      -5.578  -2.911 131.127  0.00  0.00    +0.000 C 
ATOM      4  C   UNL     1      -6.399  -1.588 131.661  0.00  0.00    +0.000 C 
ATOM      5  C   UNL     1      -6.769  -1.127 130.226  0.00  0.00    +0.000 C 
ATOM      6  C   UNL     1      -5.366  -0.520 129.794  0.00  0.00    +0.000 C 
ATOM      7  C   UNL     1      -7.775  -0.072 129.701  0.00  0.00    +0.000 C 
ATOM      8  C   UNL     1      -7.722  -0.026 128.113  0.00  0.00    +0.000 C 
ATOM      9  C   UNL     1      -8.044  -1.392 127.470  0.00  0.00    +0.000 C 
ATOM     10  C   UNL     1      -7.225  -2.573 128.183  0.00  0.00    +0.000 C 
ATOM     11  C   UNL     1      -5.812  -2.532 127.648  0.00  0.00    +0.000 C 
ATOM     12  C   UNL     1      -5.523  -2.207 126.384  0.00  0.00    +0.000 C 
ATOM     13  C   UNL     1      -6.581  -2.150 125.425  0.00  0.00    +0.000 C 
ATOM     14  C   UNL     1      -6.411  -2.499 124.136  0.00  0.00    +0.000 C 
ATOM     15  C   UNL     1      -7.567  -2.128 123.283  0.00  0.00    +0.000 C 
ATOM     16  O   UNL     1      -8.618  -2.772 123.029  0.00  0.00    +0.000 OA
ATOM     17  C   UNL     1      -7.600  -0.712 123.075  0.00  0.00    +0.000 C 
ATOM     18  C   UNL     1      -8.041  -0.341 124.659  0.00  0.00    +0.000 C 
ATOM     19  C   UNL     1      -7.932  -1.604 125.844  0.00  0.00    +0.000 C 
ATOM     20  C   UNL     1      -8.935  -2.817 125.742  0.00  0.00    +0.000 C 
ENDROOT
BRANCH   4  21
ATOM     21  C   UNL     1      -7.666  -1.627 132.624  0.00  0.00    +0.000 C 
ATOM     22  C   UNL     1      -7.882  -2.744 133.632  0.00  0.00    +0.000 C 
ATOM     23  O   UNL     1      -8.446  -0.666 132.681  0.00  0.00    +0.000 OA
ENDBRANCH   4  21
TORSDOF 1
ENDMDL
MODEL 7
REMARK VINA RESULT:      -7.3      1.839      3.182
REMARK  Name = Dydrogesterone
REMARK  4 active torsions:
REMARK  status: ('A' for Active; 'I' for Inactive)
REMARK    1  A    between atoms: C_5  and  C_6
REMARK    2  A    between atoms: C_6  and  C_7
REMARK    3  A    between atoms: C_9  and  C_10
REMARK    4  A    between atoms: C_25  and  C_26
REMARK                            x       y       z     vdW  Elec       q    Type
REMARK                         _______ _______ _______ _____ _____    ______ ____
ROOT
ATOM      1  C   UNL     1      -5.490  -2.848 129.031  0.00  0.00    +0.000 C 
ATOM      2  C   UNL     1      -4.245  -2.372 129.854  0.00  0.00    +0.000 C 
ATOM      3  C   UNL     1      -4.975  -1.714 130.968  0.00  0.00    +0.000 C 
ATOM      4  C   UNL     1      -6.065  -2.898 131.316  0.00  0.00    +0.000 C 
ATOM      5  C   UNL     1      -6.780  -2.766 129.944  0.00  0.00    +0.000 C 
ATOM      6  C   UNL     1      -7.603  -1.437 130.223  0.00  0.00    +0.000 C 
ATOM      7  C   UNL     1      -7.815  -3.665 129.222  0.00  0.00    +0.000 C 
ATOM      8  C   UNL     1      -8.201  -3.019 127.822  0.00  0.00    +0.000 C 
ATOM      9  C   UNL     1      -6.977  -2.822 126.903  0.00  0.00    +0.000 C 
ATOM     10  C   UNL     1      -5.761  -2.142 127.698  0.00  0.00    +0.000 C 
ATOM     11  C   UNL     1      -6.056  -0.664 127.801  0.00  0.00    +0.000 C 
ATOM     12  C   UNL     1      -6.669   0.023 126.832  0.00  0.00    +0.000 C 
ATOM     13  C   UNL     1      -6.821  -0.579 125.546  0.00  0.00    +0.000 C 
ATOM     14  C   UNL     1      -6.772   0.129 124.402  0.00  0.00    +0.000 C 
ATOM     15  C   UNL     1      -7.196  -0.659 123.219  0.00  0.00    +0.000 C 
ATOM     16  O   UNL     1      -6.517  -1.400 122.461  0.00  0.00    +0.000 OA
ATOM     17  C   UNL     1      -8.613  -0.860 123.235  0.00  0.00    +0.000 C 
ATOM     18  C   UNL     1      -8.594  -1.932 124.537  0.00  0.00    +0.000 C 
ATOM     19  C   UNL     1      -7.126  -2.062 125.453  0.00  0.00    +0.000 C 
ATOM     20  C   UNL     1      -5.867  -2.717 124.766  0.00  0.00    +0.000 C 
ENDROOT
BRANCH   4  21
ATOM     21  C   UNL     1      -5.696  -4.407 131.657  0.00  0.00    +0.000 C 
ATOM     22  C   UNL     1      -5.567  -4.905 133.087  0.00  0.00    +0.000 C 
ATOM     23  O   UNL     1      -5.642  -5.263 130.763  0.00  0.00    +0.000 OA
ENDBRANCH   4  21
TORSDOF 1
ENDMDL
MODEL 8
REMARK VINA RESULT:      -7.2      1.589      6.707
REMARK  Name = Dydrogesterone
REMARK  4 active torsions:
REMARK  status: ('A' for Active; 'I' for Inactive)
REMARK    1  A    between atoms: C_5  and  C_6
REMARK    2  A    between atoms: C_6  and  C_7
REMARK    3  A    between atoms: C_9  and  C_10
REMARK    4  A    between atoms: C_25  and  C_26
REMARK                            x       y       z     vdW  Elec       q    Type
REMARK                         _______ _______ _______ _____ _____    ______ ____
ROOT
ATOM      1  C   UNL     1      -6.624  -2.188 125.929  0.00  0.00    +0.000 C 
ATOM      2  C   UNL     1      -6.308  -3.477 125.096  0.00  0.00    +0.000 C 
ATOM      3  C   UNL     1      -7.637  -3.632 124.448  0.00  0.00    +0.000 C 
ATOM      4  C   UNL     1      -7.868  -2.086 123.931  0.00  0.00    +0.000 C 
ATOM      5  C   UNL     1      -7.947  -1.520 125.375  0.00  0.00    +0.000 C 
ATOM      6  C   UNL     1      -9.418  -1.992 125.743  0.00  0.00    +0.000 C 
ATOM      7  C   UNL     1      -7.903  -0.073 125.926  0.00  0.00    +0.000 C 
ATOM      8  C   UNL     1      -8.032  -0.100 127.510  0.00  0.00    +0.000 C 
ATOM      9  C   UNL     1      -6.916  -0.928 128.181  0.00  0.00    +0.000 C 
ATOM     10  C   UNL     1      -6.729  -2.344 127.450  0.00  0.00    +0.000 C 
ATOM     11  C   UNL     1      -7.839  -3.251 127.929  0.00  0.00    +0.000 C 
ATOM     12  C   UNL     1      -8.316  -3.218 129.177  0.00  0.00    +0.000 C 
ATOM     13  C   UNL     1      -7.594  -2.496 130.175  0.00  0.00    +0.000 C 
ATOM     14  C   UNL     1      -7.540  -2.892 131.461  0.00  0.00    +0.000 C 
ATOM     15  C   UNL     1      -6.946  -1.868 132.354  0.00  0.00    +0.000 C 
ATOM     16  O   UNL     1      -5.741  -1.667 132.657  0.00  0.00    +0.000 OA
ATOM     17  C   UNL     1      -7.860  -0.784 132.547  0.00  0.00    +0.000 C 
ATOM     18  C   UNL     1      -7.713  -0.186 130.977  0.00  0.00    +0.000 C 
ATOM     19  C   UNL     1      -6.921  -1.189 129.804  0.00  0.00    +0.000 C 
ATOM     20  C   UNL     1      -5.372  -1.446 129.959  0.00  0.00    +0.000 C 
ENDROOT
BRANCH   4  21
ATOM     21  C   UNL     1      -6.854  -1.266 123.019  0.00  0.00    +0.000 C 
ATOM     22  C   UNL     1      -5.890  -1.950 122.064  0.00  0.00    +0.000 C 
ATOM     23  O   UNL     1      -6.919  -0.030 122.954  0.00  0.00    +0.000 OA
ENDBRANCH   4  21
TORSDOF 1
ENDMDL
MODEL 9
REMARK VINA RESULT:      -7.2      2.789      6.917
REMARK  Name = Dydrogesterone
REMARK  4 active torsions:
REMARK  status: ('A' for Active; 'I' for Inactive)
REMARK    1  A    between atoms: C_5  and  C_6
REMARK    2  A    between atoms: C_6  and  C_7
REMARK    3  A    between atoms: C_9  and  C_10
REMARK    4  A    between atoms: C_25  and  C_26
REMARK                            x       y       z     vdW  Elec       q    Type
REMARK                         _______ _______ _______ _____ _____    ______ ____
ROOT
ATOM      1  C   UNL     1      -7.035   0.326 125.026  0.00  0.00    +0.000 C 
ATOM      2  C   UNL     1      -7.010  -0.111 123.521  0.00  0.00    +0.000 C 
ATOM      3  C   UNL     1      -8.395   0.297 123.167  0.00  0.00    +0.000 C 
ATOM      4  C   UNL     1      -8.406   1.811 123.815  0.00  0.00    +0.000 C 
ATOM      5  C   UNL     1      -8.268   1.286 125.270  0.00  0.00    +0.000 C 
ATOM      6  C   UNL     1      -9.761   0.795 125.497  0.00  0.00    +0.000 C 
ATOM      7  C   UNL     1      -7.936   2.000 126.604  0.00  0.00    +0.000 C 
ATOM      8  C   UNL     1      -7.935   0.944 127.791  0.00  0.00    +0.000 C 
ATOM      9  C   UNL     1      -6.922  -0.199 127.566  0.00  0.00    +0.000 C 
ATOM     10  C   UNL     1      -7.037  -0.788 126.078  0.00  0.00    +0.000 C 
ATOM     11  C   UNL     1      -8.239  -1.703 126.045  0.00  0.00    +0.000 C 
ATOM     12  C   UNL     1      -8.599  -2.468 127.080  0.00  0.00    +0.000 C 
ATOM     13  C   UNL     1      -7.685  -2.639 128.164  0.00  0.00    +0.000 C 
ATOM     14  C   UNL     1      -7.591  -3.788 128.860  0.00  0.00    +0.000 C 
ATOM     15  C   UNL     1      -6.761  -3.654 130.082  0.00  0.00    +0.000 C 
ATOM     16  O   UNL     1      -5.519  -3.791 130.228  0.00  0.00    +0.000 OA
ATOM     17  C   UNL     1      -7.461  -2.906 131.081  0.00  0.00    +0.000 C 
ATOM     18  C   UNL     1      -7.347  -1.433 130.267  0.00  0.00    +0.000 C 
ATOM     19  C   UNL     1      -6.835  -1.465 128.610  0.00  0.00    +0.000 C 
ATOM     20  C   UNL     1      -5.344  -1.870 128.293  0.00  0.00    +0.000 C 
ENDROOT
BRANCH   4  21
ATOM     21  C   UNL     1      -7.349   2.953 123.486  0.00  0.00    +0.000 C 
ATOM     22  C   UNL     1      -6.699   3.084 122.119  0.00  0.00    +0.000 C 
ATOM     23  O   UNL     1      -7.128   3.863 124.297  0.00  0.00    +0.000 OA
ENDBRANCH   4  21
TORSDOF 1
ENDMDL
