MODEL 1
REMARK VINA RESULT:      -5.9      0.000      0.000
REMARK  Name = Dyphylline
REMARK  7 active torsions:
REMARK  status: ('A' for Active; 'I' for Inactive)
REMARK    1  A    between atoms: C_1  and  N_2
REMARK    2  A    between atoms: N_5  and  C_6
REMARK    3  A    between atoms: C_6  and  C_7
REMARK    4  A    between atoms: C_7  and  O_8
REMARK    5  A    between atoms: C_7  and  C_9
REMARK    6  A    between atoms: C_9  and  O_10
REMARK    7  A    between atoms: N_15  and  C_16
REMARK                            x       y       z     vdW  Elec       q    Type
REMARK                         _______ _______ _______ _____ _____    ______ ____
ROOT
ATOM      1  C   UNL     1      -9.398  -3.321 123.606  0.00  0.00    +0.000 C 
ATOM      2  N   UNL     1      -8.654  -2.103 123.850  0.00  0.00    +0.000 N 
ATOM      3  C   UNL     1      -9.084  -0.888 123.388  0.00  0.00    +0.000 A 
ATOM      4  C   UNL     1      -8.382   0.259 123.617  0.00  0.00    +0.000 A 
ATOM      5  N   UNL     1      -9.113   1.247 123.012  0.00  0.00    +0.000 N 
ATOM      6  C   UNL     1     -10.209   0.634 122.456  0.00  0.00    +0.000 A 
ATOM      7  N   UNL     1     -10.211  -0.663 122.668  0.00  0.00    +0.000 NA
ATOM      8  C   UNL     1      -7.162   0.286 124.346  0.00  0.00    +0.000 A 
ATOM      9  O   UNL     1      -6.538   1.326 124.554  0.00  0.00    +0.000 OA
ATOM     10  N   UNL     1      -6.762  -0.978 124.786  0.00  0.00    +0.000 N 
ATOM     11  C   UNL     1      -5.523  -1.095 125.528  0.00  0.00    +0.000 C 
ATOM     12  C   UNL     1      -7.465  -2.179 124.570  0.00  0.00    +0.000 A 
ATOM     13  O   UNL     1      -7.043  -3.257 125.000  0.00  0.00    +0.000 OA
ENDROOT
BRANCH   5  14
ATOM     14  C   UNL     1      -8.790   2.666 122.993  0.00  0.00    +0.000 C 
BRANCH  14  15
ATOM     15  C   UNL     1      -8.081   3.125 121.713  0.00  0.00    +0.000 C 
BRANCH  15  16
ATOM     16  O   UNL     1      -8.813   4.193 121.096  0.00  0.00    +0.000 OA
ATOM     17  H   UNL     1      -8.627   4.193 120.140  0.00  0.00    +0.000 HD
ENDBRANCH  15  16
BRANCH  15  18
ATOM     18  C   UNL     1      -6.653   3.593 121.994  0.00  0.00    +0.000 C 
BRANCH  18  19
ATOM     19  O   UNL     1      -6.545   4.140 123.306  0.00  0.00    +0.000 OA
ATOM     20  H   UNL     1      -5.978   4.929 123.262  0.00  0.00    +0.000 HD
ENDBRANCH  18  19
ENDBRANCH  15  18
ENDBRANCH  14  15
ENDBRANCH   5  14
TORSDOF 5
ENDMDL
MODEL 2
REMARK VINA RESULT:      -5.8      8.674     10.546
REMARK  Name = Dyphylline
REMARK  7 active torsions:
REMARK  status: ('A' for Active; 'I' for Inactive)
REMARK    1  A    between atoms: C_1  and  N_2
REMARK    2  A    between atoms: N_5  and  C_6
REMARK    3  A    between atoms: C_6  and  C_7
REMARK    4  A    between atoms: C_7  and  O_8
REMARK    5  A    between atoms: C_7  and  C_9
REMARK    6  A    between atoms: C_9  and  O_10
REMARK    7  A    between atoms: N_15  and  C_16
REMARK                            x       y       z     vdW  Elec       q    Type
REMARK                         _______ _______ _______ _____ _____    ______ ____
ROOT
ATOM      1  C   UNL     1     -11.252   7.572 127.020  0.00  0.00    +0.000 C 
ATOM      2  N   UNL     1     -11.167   7.206 128.418  0.00  0.00    +0.000 N 
ATOM      3  C   UNL     1     -10.194   6.364 128.887  0.00  0.00    +0.000 A 
ATOM      4  C   UNL     1     -10.113   6.019 130.204  0.00  0.00    +0.000 A 
ATOM      5  N   UNL     1      -9.034   5.180 130.284  0.00  0.00    +0.000 N 
ATOM      6  C   UNL     1      -8.530   5.072 129.011  0.00  0.00    +0.000 A 
ATOM      7  N   UNL     1      -9.221   5.780 128.145  0.00  0.00    +0.000 NA
ATOM      8  C   UNL     1     -11.022   6.500 131.186  0.00  0.00    +0.000 A 
ATOM      9  O   UNL     1     -10.939   6.189 132.373  0.00  0.00    +0.000 OA
ATOM     10  N   UNL     1     -12.000   7.345 130.655  0.00  0.00    +0.000 N 
ATOM     11  C   UNL     1     -13.003   7.892 131.547  0.00  0.00    +0.000 C 
ATOM     12  C   UNL     1     -12.108   7.724 129.303  0.00  0.00    +0.000 A 
ATOM     13  O   UNL     1     -13.002   8.483 128.917  0.00  0.00    +0.000 OA
ENDROOT
BRANCH   5  14
ATOM     14  C   UNL     1      -8.519   4.555 131.493  0.00  0.00    +0.000 C 
BRANCH  14  15
ATOM     15  C   UNL     1      -9.146   3.190 131.803  0.00  0.00    +0.000 C 
BRANCH  15  16
ATOM     16  O   UNL     1      -8.388   2.143 131.183  0.00  0.00    +0.000 OA
ATOM     17  H   UNL     1      -8.982   1.400 130.979  0.00  0.00    +0.000 HD
ENDBRANCH  15  16
BRANCH  15  18
ATOM     18  C   UNL     1      -9.223   2.931 133.308  0.00  0.00    +0.000 C 
BRANCH  18  19
ATOM     19  O   UNL     1      -9.936   3.973 133.969  0.00  0.00    +0.000 OA
ATOM     20  H   UNL     1     -10.097   4.687 133.328  0.00  0.00    +0.000 HD
ENDBRANCH  18  19
ENDBRANCH  15  18
ENDBRANCH  14  15
ENDBRANCH   5  14
TORSDOF 5
ENDMDL
MODEL 3
REMARK VINA RESULT:      -5.7      8.348      9.348
REMARK  Name = Dyphylline
REMARK  7 active torsions:
REMARK  status: ('A' for Active; 'I' for Inactive)
REMARK    1  A    between atoms: C_1  and  N_2
REMARK    2  A    between atoms: N_5  and  C_6
REMARK    3  A    between atoms: C_6  and  C_7
REMARK    4  A    between atoms: C_7  and  O_8
REMARK    5  A    between atoms: C_7  and  C_9
REMARK    6  A    between atoms: C_9  and  O_10
REMARK    7  A    between atoms: N_15  and  C_16
REMARK                            x       y       z     vdW  Elec       q    Type
REMARK                         _______ _______ _______ _____ _____    ______ ____
ROOT
ATOM      1  C   UNL     1      -8.301   5.655 133.807  0.00  0.00    +0.000 C 
ATOM      2  N   UNL     1      -8.482   5.555 132.375  0.00  0.00    +0.000 N 
ATOM      3  C   UNL     1      -9.628   5.985 131.759  0.00  0.00    +0.000 A 
ATOM      4  C   UNL     1      -9.799   5.890 130.409  0.00  0.00    +0.000 A 
ATOM      5  N   UNL     1     -11.044   6.412 130.174  0.00  0.00    +0.000 N 
ATOM      6  C   UNL     1     -11.544   6.789 131.396  0.00  0.00    +0.000 A 
ATOM      7  N   UNL     1     -10.703   6.535 132.374  0.00  0.00    +0.000 NA
ATOM      8  C   UNL     1      -8.814   5.344 129.541  0.00  0.00    +0.000 A 
ATOM      9  O   UNL     1      -8.974   5.268 128.324  0.00  0.00    +0.000 OA
ATOM     10  N   UNL     1      -7.671   4.911 130.219  0.00  0.00    +0.000 N 
ATOM     11  C   UNL     1      -6.595   4.316 129.452  0.00  0.00    +0.000 C 
ATOM     12  C   UNL     1      -7.462   4.999 131.608  0.00  0.00    +0.000 A 
ATOM     13  O   UNL     1      -6.416   4.597 132.127  0.00  0.00    +0.000 OA
ENDROOT
BRANCH   5  14
ATOM     14  C   UNL     1     -11.684   6.555 128.875  0.00  0.00    +0.000 C 
BRANCH  14  15
ATOM     15  C   UNL     1     -11.302   7.842 128.132  0.00  0.00    +0.000 C 
BRANCH  15  16
ATOM     16  O   UNL     1     -10.006   8.291 128.552  0.00  0.00    +0.000 OA
ATOM     17  H   UNL     1      -9.659   8.917 127.893  0.00  0.00    +0.000 HD
ENDBRANCH  15  16
BRANCH  15  18
ATOM     18  C   UNL     1     -11.296   7.640 126.616  0.00  0.00    +0.000 C 
BRANCH  18  19
ATOM     19  O   UNL     1     -10.508   6.509 126.256  0.00  0.00    +0.000 OA
ATOM     20  H   UNL     1     -10.244   6.049 127.071  0.00  0.00    +0.000 HD
ENDBRANCH  18  19
ENDBRANCH  15  18
ENDBRANCH  14  15
ENDBRANCH   5  14
TORSDOF 5
ENDMDL
MODEL 4
REMARK VINA RESULT:      -5.5      8.629     10.367
REMARK  Name = Dyphylline
REMARK  7 active torsions:
REMARK  status: ('A' for Active; 'I' for Inactive)
REMARK    1  A    between atoms: C_1  and  N_2
REMARK    2  A    between atoms: N_5  and  C_6
REMARK    3  A    between atoms: C_6  and  C_7
REMARK    4  A    between atoms: C_7  and  O_8
REMARK    5  A    between atoms: C_7  and  C_9
REMARK    6  A    between atoms: C_9  and  O_10
REMARK    7  A    between atoms: N_15  and  C_16
REMARK                            x       y       z     vdW  Elec       q    Type
REMARK                         _______ _______ _______ _____ _____    ______ ____
ROOT
ATOM      1  C   UNL     1     -13.013   8.394 131.128  0.00  0.00    +0.000 C 
ATOM      2  N   UNL     1     -12.003   7.700 130.357  0.00  0.00    +0.000 N 
ATOM      3  C   UNL     1     -11.121   6.828 130.938  0.00  0.00    +0.000 A 
ATOM      4  C   UNL     1     -10.170   6.175 130.210  0.00  0.00    +0.000 A 
ATOM      5  N   UNL     1      -9.494   5.407 131.122  0.00  0.00    +0.000 N 
ATOM      6  C   UNL     1     -10.080   5.646 132.341  0.00  0.00    +0.000 A 
ATOM      7  N   UNL     1     -11.068   6.508 132.254  0.00  0.00    +0.000 NA
ATOM      8  C   UNL     1     -10.018   6.344 128.807  0.00  0.00    +0.000 A 
ATOM      9  O   UNL     1      -9.162   5.746 128.157  0.00  0.00    +0.000 OA
ATOM     10  N   UNL     1     -10.934   7.250 128.266  0.00  0.00    +0.000 N 
ATOM     11  C   UNL     1     -10.877   7.528 126.844  0.00  0.00    +0.000 C 
ATOM     12  C   UNL     1     -11.929   7.936 128.987  0.00  0.00    +0.000 A 
ATOM     13  O   UNL     1     -12.705   8.718 128.428  0.00  0.00    +0.000 OA
ENDROOT
BRANCH   5  14
ATOM     14  C   UNL     1      -8.391   4.503 130.834  0.00  0.00    +0.000 C 
BRANCH  14  15
ATOM     15  C   UNL     1      -7.021   5.191 130.784  0.00  0.00    +0.000 C 
BRANCH  15  16
ATOM     16  O   UNL     1      -6.581   5.323 129.425  0.00  0.00    +0.000 OA
ATOM     17  H   UNL     1      -5.787   4.775 129.295  0.00  0.00    +0.000 HD
ENDBRANCH  15  16
BRANCH  15  18
ATOM     18  C   UNL     1      -7.057   6.574 131.436  0.00  0.00    +0.000 C 
BRANCH  18  19
ATOM     19  O   UNL     1      -6.659   7.583 130.512  0.00  0.00    +0.000 OA
ATOM     20  H   UNL     1      -5.728   7.431 130.276  0.00  0.00    +0.000 HD
ENDBRANCH  18  19
ENDBRANCH  15  18
ENDBRANCH  14  15
ENDBRANCH   5  14
TORSDOF 5
ENDMDL
MODEL 5
REMARK VINA RESULT:      -5.5      8.232     10.092
REMARK  Name = Dyphylline
REMARK  7 active torsions:
REMARK  status: ('A' for Active; 'I' for Inactive)
REMARK    1  A    between atoms: C_1  and  N_2
REMARK    2  A    between atoms: N_5  and  C_6
REMARK    3  A    between atoms: C_6  and  C_7
REMARK    4  A    between atoms: C_7  and  O_8
REMARK    5  A    between atoms: C_7  and  C_9
REMARK    6  A    between atoms: C_9  and  O_10
REMARK    7  A    between atoms: N_15  and  C_16
REMARK                            x       y       z     vdW  Elec       q    Type
REMARK                         _______ _______ _______ _____ _____    ______ ____
ROOT
ATOM      1  C   UNL     1     -13.109   8.125 131.424  0.00  0.00    +0.000 C 
ATOM      2  N   UNL     1     -12.126   7.568 130.520  0.00  0.00    +0.000 N 
ATOM      3  C   UNL     1     -11.107   6.768 130.964  0.00  0.00    +0.000 A 
ATOM      4  C   UNL     1     -10.180   6.243 130.112  0.00  0.00    +0.000 A 
ATOM      5  N   UNL     1      -9.339   5.514 130.911  0.00  0.00    +0.000 N 
ATOM      6  C   UNL     1      -9.812   5.645 132.194  0.00  0.00    +0.000 A 
ATOM      7  N   UNL     1     -10.882   6.406 132.251  0.00  0.00    +0.000 NA
ATOM      8  C   UNL     1     -10.196   6.480 128.710  0.00  0.00    +0.000 A 
ATOM      9  O   UNL     1      -9.360   5.997 127.948  0.00  0.00    +0.000 OA
ATOM     10  N   UNL     1     -11.248   7.309 128.311  0.00  0.00    +0.000 N 
ATOM     11  C   UNL     1     -11.370   7.645 126.906  0.00  0.00    +0.000 C 
ATOM     12  C   UNL     1     -12.222   7.862 129.163  0.00  0.00    +0.000 A 
ATOM     13  O   UNL     1     -13.125   8.582 128.725  0.00  0.00    +0.000 OA
ENDROOT
BRANCH   5  14
ATOM     14  C   UNL     1      -8.190   4.738 130.468  0.00  0.00    +0.000 C 
BRANCH  14  15
ATOM     15  C   UNL     1      -8.539   3.316 130.012  0.00  0.00    +0.000 C 
BRANCH  15  16
ATOM     16  O   UNL     1      -9.930   3.231 129.672  0.00  0.00    +0.000 OA
ATOM     17  H   UNL     1     -10.443   3.771 130.300  0.00  0.00    +0.000 HD
ENDBRANCH  15  16
BRANCH  15  18
ATOM     18  C   UNL     1      -7.701   2.885 128.808  0.00  0.00    +0.000 C 
BRANCH  18  19
ATOM     19  O   UNL     1      -8.340   3.249 127.587  0.00  0.00    +0.000 OA
ATOM     20  H   UNL     1      -7.898   2.778 126.859  0.00  0.00    +0.000 HD
ENDBRANCH  18  19
ENDBRANCH  15  18
ENDBRANCH  14  15
ENDBRANCH   5  14
TORSDOF 5
ENDMDL
MODEL 6
REMARK VINA RESULT:      -5.4      7.562      8.328
REMARK  Name = Dyphylline
REMARK  7 active torsions:
REMARK  status: ('A' for Active; 'I' for Inactive)
REMARK    1  A    between atoms: C_1  and  N_2
REMARK    2  A    between atoms: N_5  and  C_6
REMARK    3  A    between atoms: C_6  and  C_7
REMARK    4  A    between atoms: C_7  and  O_8
REMARK    5  A    between atoms: C_7  and  C_9
REMARK    6  A    between atoms: C_9  and  O_10
REMARK    7  A    between atoms: N_15  and  C_16
REMARK                            x       y       z     vdW  Elec       q    Type
REMARK                         _______ _______ _______ _____ _____    ______ ____
ROOT
ATOM      1  C   UNL     1      -9.708   2.630 132.450  0.00  0.00    +0.000 C 
ATOM      2  N   UNL     1      -9.422   3.352 131.228  0.00  0.00    +0.000 N 
ATOM      3  C   UNL     1      -9.800   4.657 131.054  0.00  0.00    +0.000 A 
ATOM      4  C   UNL     1      -9.530   5.337 129.903  0.00  0.00    +0.000 A 
ATOM      5  N   UNL     1     -10.054   6.588 130.101  0.00  0.00    +0.000 N 
ATOM      6  C   UNL     1     -10.605   6.583 131.359  0.00  0.00    +0.000 A 
ATOM      7  N   UNL     1     -10.466   5.420 131.955  0.00  0.00    +0.000 NA
ATOM      8  C   UNL     1      -8.843   4.754 128.803  0.00  0.00    +0.000 A 
ATOM      9  O   UNL     1      -8.598   5.377 127.771  0.00  0.00    +0.000 OA
ATOM     10  N   UNL     1      -8.489   3.421 129.027  0.00  0.00    +0.000 N 
ATOM     11  C   UNL     1      -7.797   2.701 127.977  0.00  0.00    +0.000 C 
ATOM     12  C   UNL     1      -8.748   2.693 130.204  0.00  0.00    +0.000 A 
ATOM     13  O   UNL     1      -8.394   1.516 130.323  0.00  0.00    +0.000 OA
ENDROOT
BRANCH   5  14
ATOM     14  C   UNL     1     -10.003   7.699 129.163  0.00  0.00    +0.000 C 
BRANCH  14  15
ATOM     15  C   UNL     1     -11.279   7.865 128.328  0.00  0.00    +0.000 C 
BRANCH  15  16
ATOM     16  O   UNL     1     -11.919   9.110 128.642  0.00  0.00    +0.000 OA
ATOM     17  H   UNL     1     -11.242   9.753 128.917  0.00  0.00    +0.000 HD
ENDBRANCH  15  16
BRANCH  15  18
ATOM     18  C   UNL     1     -10.985   7.817 126.828  0.00  0.00    +0.000 C 
BRANCH  18  19
ATOM     19  O   UNL     1     -10.913   6.471 126.366  0.00  0.00    +0.000 OA
ATOM     20  H   UNL     1     -10.228   6.421 125.676  0.00  0.00    +0.000 HD
ENDBRANCH  18  19
ENDBRANCH  15  18
ENDBRANCH  14  15
ENDBRANCH   5  14
TORSDOF 5
ENDMDL
MODEL 7
REMARK VINA RESULT:      -5.4      2.150      5.250
REMARK  Name = Dyphylline
REMARK  7 active torsions:
REMARK  status: ('A' for Active; 'I' for Inactive)
REMARK    1  A    between atoms: C_1  and  N_2
REMARK    2  A    between atoms: N_5  and  C_6
REMARK    3  A    between atoms: C_6  and  C_7
REMARK    4  A    between atoms: C_7  and  O_8
REMARK    5  A    between atoms: C_7  and  C_9
REMARK    6  A    between atoms: C_9  and  O_10
REMARK    7  A    between atoms: N_15  and  C_16
REMARK                            x       y       z     vdW  Elec       q    Type
REMARK                         _______ _______ _______ _____ _____    ______ ____
ROOT
ATOM      1  C   UNL     1     -10.401   0.815 122.665  0.00  0.00    +0.000 C 
ATOM      2  N   UNL     1      -9.157   0.477 123.323  0.00  0.00    +0.000 N 
ATOM      3  C   UNL     1      -8.757  -0.822 123.491  0.00  0.00    +0.000 A 
ATOM      4  C   UNL     1      -7.584  -1.140 124.111  0.00  0.00    +0.000 A 
ATOM      5  N   UNL     1      -7.533  -2.509 124.089  0.00  0.00    +0.000 N 
ATOM      6  C   UNL     1      -8.677  -2.930 123.456  0.00  0.00    +0.000 A 
ATOM      7  N   UNL     1      -9.437  -1.923 123.087  0.00  0.00    +0.000 NA
ATOM      8  C   UNL     1      -6.693  -0.161 124.628  0.00  0.00    +0.000 A 
ATOM      9  O   UNL     1      -5.634  -0.456 125.181  0.00  0.00    +0.000 OA
ATOM     10  N   UNL     1      -7.152   1.146 124.441  0.00  0.00    +0.000 N 
ATOM     11  C   UNL     1      -6.344   2.242 124.938  0.00  0.00    +0.000 C 
ATOM     12  C   UNL     1      -8.353   1.507 123.802  0.00  0.00    +0.000 A 
ATOM     13  O   UNL     1      -8.681   2.691 123.673  0.00  0.00    +0.000 OA
ENDROOT
BRANCH   5  14
ATOM     14  C   UNL     1      -6.458  -3.337 124.613  0.00  0.00    +0.000 C 
BRANCH  14  15
ATOM     15  C   UNL     1      -5.382  -3.687 123.578  0.00  0.00    +0.000 C 
BRANCH  15  16
ATOM     16  O   UNL     1      -4.465  -2.595 123.426  0.00  0.00    +0.000 OA
ATOM     17  H   UNL     1      -4.567  -1.989 124.181  0.00  0.00    +0.000 HD
ENDBRANCH  15  16
BRANCH  15  18
ATOM     18  C   UNL     1      -4.604  -4.944 123.972  0.00  0.00    +0.000 C 
BRANCH  18  19
ATOM     19  O   UNL     1      -4.109  -5.619 122.819  0.00  0.00    +0.000 OA
ATOM     20  H   UNL     1      -3.760  -4.954 122.202  0.00  0.00    +0.000 HD
ENDBRANCH  18  19
ENDBRANCH  15  18
ENDBRANCH  14  15
ENDBRANCH   5  14
TORSDOF 5
ENDMDL
MODEL 8
REMARK VINA RESULT:      -5.1      2.787      4.366
REMARK  Name = Dyphylline
REMARK  7 active torsions:
REMARK  status: ('A' for Active; 'I' for Inactive)
REMARK    1  A    between atoms: C_1  and  N_2
REMARK    2  A    between atoms: N_5  and  C_6
REMARK    3  A    between atoms: C_6  and  C_7
REMARK    4  A    between atoms: C_7  and  O_8
REMARK    5  A    between atoms: C_7  and  C_9
REMARK    6  A    between atoms: C_9  and  O_10
REMARK    7  A    between atoms: N_15  and  C_16
REMARK                            x       y       z     vdW  Elec       q    Type
REMARK                         _______ _______ _______ _____ _____    ______ ____
ROOT
ATOM      1  C   UNL     1      -5.123  -1.855 128.148  0.00  0.00    +0.000 C 
ATOM      2  N   UNL     1      -6.387  -2.112 127.491  0.00  0.00    +0.000 N 
ATOM      3  C   UNL     1      -6.708  -1.536 126.290  0.00  0.00    +0.000 A 
ATOM      4  C   UNL     1      -7.899  -1.778 125.671  0.00  0.00    +0.000 A 
ATOM      5  N   UNL     1      -7.854  -1.039 124.518  0.00  0.00    +0.000 N 
ATOM      6  C   UNL     1      -6.639  -0.400 124.514  0.00  0.00    +0.000 A 
ATOM      7  N   UNL     1      -5.927  -0.683 125.582  0.00  0.00    +0.000 NA
ATOM      8  C   UNL     1      -8.893  -2.637 126.215  0.00  0.00    +0.000 A 
ATOM      9  O   UNL     1      -9.963  -2.854 125.648  0.00  0.00    +0.000 OA
ATOM     10  N   UNL     1      -8.522  -3.189 127.444  0.00  0.00    +0.000 N 
ATOM     11  C   UNL     1      -9.453  -4.071 128.118  0.00  0.00    +0.000 C 
ATOM     12  C   UNL     1      -7.299  -2.964 128.106  0.00  0.00    +0.000 A 
ATOM     13  O   UNL     1      -7.047  -3.499 129.190  0.00  0.00    +0.000 OA
ENDROOT
BRANCH   5  14
ATOM     14  C   UNL     1      -8.889  -0.977 123.497  0.00  0.00    +0.000 C 
BRANCH  14  15
ATOM     15  C   UNL     1      -9.502   0.417 123.318  0.00  0.00    +0.000 C 
BRANCH  15  16
ATOM     16  O   UNL     1     -10.675   0.342 122.496  0.00  0.00    +0.000 OA
ATOM     17  H   UNL     1     -10.525   0.857 121.683  0.00  0.00    +0.000 HD
ENDBRANCH  15  16
BRANCH  15  18
ATOM     18  C   UNL     1      -9.870   1.051 124.660  0.00  0.00    +0.000 C 
BRANCH  18  19
ATOM     19  O   UNL     1      -9.753   2.470 124.603  0.00  0.00    +0.000 OA
ATOM     20  H   UNL     1     -10.533   2.822 124.140  0.00  0.00    +0.000 HD
ENDBRANCH  18  19
ENDBRANCH  15  18
ENDBRANCH  14  15
ENDBRANCH   5  14
TORSDOF 5
ENDMDL
MODEL 9
REMARK VINA RESULT:      -5.0      2.329      3.753
REMARK  Name = Dyphylline
REMARK  7 active torsions:
REMARK  status: ('A' for Active; 'I' for Inactive)
REMARK    1  A    between atoms: C_1  and  N_2
REMARK    2  A    between atoms: N_5  and  C_6
REMARK    3  A    between atoms: C_6  and  C_7
REMARK    4  A    between atoms: C_7  and  O_8
REMARK    5  A    between atoms: C_7  and  C_9
REMARK    6  A    between atoms: C_9  and  O_10
REMARK    7  A    between atoms: N_15  and  C_16
REMARK                            x       y       z     vdW  Elec       q    Type
REMARK                         _______ _______ _______ _____ _____    ______ ____
ROOT
ATOM      1  C   UNL     1      -7.414  -2.131 125.683  0.00  0.00    +0.000 C 
ATOM      2  N   UNL     1      -7.710  -0.922 124.946  0.00  0.00    +0.000 N 
ATOM      3  C   UNL     1      -6.982   0.226 125.117  0.00  0.00    +0.000 A 
ATOM      4  C   UNL     1      -7.261   1.366 124.422  0.00  0.00    +0.000 A 
ATOM      5  N   UNL     1      -6.337   2.279 124.856  0.00  0.00    +0.000 N 
ATOM      6  C   UNL     1      -5.558   1.632 125.785  0.00  0.00    +0.000 A 
ATOM      7  N   UNL     1      -5.934   0.385 125.962  0.00  0.00    +0.000 NA
ATOM      8  C   UNL     1      -8.317   1.455 123.474  0.00  0.00    +0.000 A 
ATOM      9  O   UNL     1      -8.558   2.486 122.847  0.00  0.00    +0.000 OA
ATOM     10  N   UNL     1      -9.035   0.263 123.345  0.00  0.00    +0.000 N 
ATOM     11  C   UNL     1     -10.152   0.222 122.423  0.00  0.00    +0.000 C 
ATOM     12  C   UNL     1      -8.770  -0.931 124.043  0.00  0.00    +0.000 A 
ATOM     13  O   UNL     1      -9.451  -1.945 123.864  0.00  0.00    +0.000 OA
ENDROOT
BRANCH   5  14
ATOM     14  C   UNL     1      -6.203   3.653 124.394  0.00  0.00    +0.000 C 
BRANCH  14  15
ATOM     15  C   UNL     1      -6.672   4.699 125.413  0.00  0.00    +0.000 C 
BRANCH  15  16
ATOM     16  O   UNL     1      -6.364   6.020 124.946  0.00  0.00    +0.000 OA
ATOM     17  H   UNL     1      -6.511   6.058 123.984  0.00  0.00    +0.000 HD
ENDBRANCH  15  16
BRANCH  15  18
ATOM     18  C   UNL     1      -8.174   4.598 125.678  0.00  0.00    +0.000 C 
BRANCH  18  19
ATOM     19  O   UNL     1      -8.533   5.313 126.858  0.00  0.00    +0.000 OA
ATOM     20  H   UNL     1      -9.225   5.956 126.627  0.00  0.00    +0.000 HD
ENDBRANCH  18  19
ENDBRANCH  15  18
ENDBRANCH  14  15
ENDBRANCH   5  14
TORSDOF 5
ENDMDL
