MODEL 1
REMARK VINA RESULT:      -8.6      0.000      0.000
REMARK  Name = Ebastine
REMARK  13 active torsions:
REMARK  status: ('A' for Active; 'I' for Inactive)
REMARK    1  A    between atoms: C_1  and  C_2
REMARK    2  A    between atoms: C_2  and  C_3
REMARK    3  A    between atoms: C_2  and  C_4
REMARK    4  A    between atoms: C_2  and  C_5
REMARK    5  A    between atoms: C_8  and  C_11
REMARK    6  A    between atoms: C_11  and  C_13
REMARK    7  A    between atoms: C_13  and  C_14
REMARK    8  A    between atoms: C_14  and  C_15
REMARK    9  A    between atoms: C_15  and  N_16
REMARK   10  A    between atoms: C_19  and  O_22
REMARK   11  A    between atoms: O_22  and  C_23
REMARK   12  A    between atoms: C_23  and  C_24
REMARK   13  A    between atoms: C_23  and  C_30
REMARK                            x       y       z     vdW  Elec       q    Type
REMARK                         _______ _______ _______ _____ _____    ______ ____
ROOT
ATOM      1  N   UNL     1      -4.872   1.862 133.192  0.00  0.00    +0.000 NA
ATOM      2  C   UNL     1      -5.625   0.824 133.864  0.00  0.00    +0.000 C 
ATOM      3  C   UNL     1      -5.174  -0.619 133.581  0.00  0.00    +0.000 C 
ATOM      4  C   UNL     1      -5.411  -0.953 132.121  0.00  0.00    +0.000 C 
ATOM      5  C   UNL     1      -4.581   0.133 131.389  0.00  0.00    +0.000 C 
ATOM      6  C   UNL     1      -5.012   1.579 131.739  0.00  0.00    +0.000 C 
ENDROOT
BRANCH   1   7
ATOM      7  C   UNL     1      -5.495   3.173 133.547  0.00  0.00    +0.000 C 
BRANCH   7   8
ATOM      8  C   UNL     1      -6.681   3.578 132.637  0.00  0.00    +0.000 C 
BRANCH   8   9
ATOM      9  C   UNL     1      -6.750   5.068 132.411  0.00  0.00    +0.000 C 
BRANCH   9  10
ATOM     10  C   UNL     1      -8.030   5.629 132.979  0.00  0.00    +0.000 C 
ATOM     11  O   UNL     1      -8.303   5.607 134.198  0.00  0.00    +0.000 OA
BRANCH  10  15
ATOM     12  C   UNL     1     -10.919   7.117 130.203  0.00  0.00    +0.000 A 
ATOM     13  C   UNL     1     -11.313   6.496 131.400  0.00  0.00    +0.000 A 
ATOM     14  C   UNL     1     -10.369   6.082 132.332  0.00  0.00    +0.000 A 
ATOM     15  C   UNL     1      -9.012   6.185 132.036  0.00  0.00    +0.000 A 
ATOM     16  C   UNL     1      -8.600   6.760 130.833  0.00  0.00    +0.000 A 
ATOM     17  C   UNL     1      -9.546   7.224 129.933  0.00  0.00    +0.000 A 
BRANCH  12  19
ATOM     18  C   UNL     1     -11.127   8.427 128.118  0.00  0.00    +0.000 C 
ATOM     19  C   UNL     1     -11.930   7.797 129.276  0.00  0.00    +0.000 C 
ATOM     20  C   UNL     1     -12.727   8.908 129.984  0.00  0.00    +0.000 C 
ATOM     21  C   UNL     1     -12.941   6.787 128.696  0.00  0.00    +0.000 C 
ENDBRANCH  12  19
ENDBRANCH  10  15
ENDBRANCH   9  10
ENDBRANCH   8   9
ENDBRANCH   7   8
ENDBRANCH   1   7
BRANCH   4  22
ATOM     22  O   UNL     1      -6.818  -0.919 131.741  0.00  0.00    +0.000 OA
BRANCH  22  23
ATOM     23  C   UNL     1      -7.207  -0.412 130.401  0.00  0.00    +0.000 C 
BRANCH  23  24
ATOM     24  C   UNL     1      -7.670  -1.488 129.393  0.00  0.00    +0.000 A 
ATOM     25  C   UNL     1      -7.411  -1.267 128.071  0.00  0.00    +0.000 A 
ATOM     26  C   UNL     1      -8.193  -1.815 127.072  0.00  0.00    +0.000 A 
ATOM     27  C   UNL     1      -8.604  -3.095 127.277  0.00  0.00    +0.000 A 
ATOM     28  C   UNL     1      -8.424  -3.624 128.548  0.00  0.00    +0.000 A 
ATOM     29  C   UNL     1      -8.114  -2.780 129.633  0.00  0.00    +0.000 A 
ENDBRANCH  23  24
BRANCH  23  30
ATOM     30  C   UNL     1      -8.309   0.649 130.586  0.00  0.00    +0.000 A 
ATOM     31  C   UNL     1      -8.446   1.714 129.667  0.00  0.00    +0.000 A 
ATOM     32  C   UNL     1      -9.211   2.836 129.923  0.00  0.00    +0.000 A 
ATOM     33  C   UNL     1     -10.035   2.836 131.029  0.00  0.00    +0.000 A 
ATOM     34  C   UNL     1     -10.025   1.745 131.902  0.00  0.00    +0.000 A 
ATOM     35  C   UNL     1      -9.145   0.670 131.706  0.00  0.00    +0.000 A 
ENDBRANCH  23  30
ENDBRANCH  22  23
ENDBRANCH   4  22
TORSDOF 10
ENDMDL
MODEL 2
REMARK VINA RESULT:      -8.6      1.782      3.791
REMARK  Name = Ebastine
REMARK  13 active torsions:
REMARK  status: ('A' for Active; 'I' for Inactive)
REMARK    1  A    between atoms: C_1  and  C_2
REMARK    2  A    between atoms: C_2  and  C_3
REMARK    3  A    between atoms: C_2  and  C_4
REMARK    4  A    between atoms: C_2  and  C_5
REMARK    5  A    between atoms: C_8  and  C_11
REMARK    6  A    between atoms: C_11  and  C_13
REMARK    7  A    between atoms: C_13  and  C_14
REMARK    8  A    between atoms: C_14  and  C_15
REMARK    9  A    between atoms: C_15  and  N_16
REMARK   10  A    between atoms: C_19  and  O_22
REMARK   11  A    between atoms: O_22  and  C_23
REMARK   12  A    between atoms: C_23  and  C_24
REMARK   13  A    between atoms: C_23  and  C_30
REMARK                            x       y       z     vdW  Elec       q    Type
REMARK                         _______ _______ _______ _____ _____    ______ ____
ROOT
ATOM      1  N   UNL     1      -7.976   1.915 131.763  0.00  0.00    +0.000 NA
ATOM      2  C   UNL     1      -7.362   1.999 130.454  0.00  0.00    +0.000 C 
ATOM      3  C   UNL     1      -7.978   1.102 129.368  0.00  0.00    +0.000 C 
ATOM      4  C   UNL     1      -7.760  -0.356 129.724  0.00  0.00    +0.000 C 
ATOM      5  C   UNL     1      -8.445  -0.468 131.110  0.00  0.00    +0.000 C 
ATOM      6  C   UNL     1      -7.850   0.491 132.171  0.00  0.00    +0.000 C 
ENDROOT
BRANCH   1   7
ATOM      7  C   UNL     1      -7.207   2.809 132.680  0.00  0.00    +0.000 C 
BRANCH   7   8
ATOM      8  C   UNL     1      -8.005   3.280 133.921  0.00  0.00    +0.000 C 
BRANCH   8   9
ATOM      9  C   UNL     1      -9.241   4.061 133.548  0.00  0.00    +0.000 C 
BRANCH   9  10
ATOM     10  C   UNL     1      -8.874   5.465 133.137  0.00  0.00    +0.000 C 
ATOM     11  O   UNL     1      -7.960   6.120 133.681  0.00  0.00    +0.000 OA
BRANCH  10  15
ATOM     12  C   UNL     1     -11.222   7.184 130.005  0.00  0.00    +0.000 A 
ATOM     13  C   UNL     1     -11.827   6.533 131.094  0.00  0.00    +0.000 A 
ATOM     14  C   UNL     1     -11.061   6.043 132.145  0.00  0.00    +0.000 A 
ATOM     15  C   UNL     1      -9.671   6.099 132.075  0.00  0.00    +0.000 A 
ATOM     16  C   UNL     1      -9.049   6.703 130.981  0.00  0.00    +0.000 A 
ATOM     17  C   UNL     1      -9.820   7.242 129.964  0.00  0.00    +0.000 A 
BRANCH  12  19
ATOM     18  C   UNL     1     -12.660   9.165 129.673  0.00  0.00    +0.000 C 
ATOM     19  C   UNL     1     -12.044   7.942 128.961  0.00  0.00    +0.000 C 
ATOM     20  C   UNL     1     -13.183   7.089 128.372  0.00  0.00    +0.000 C 
ATOM     21  C   UNL     1     -11.167   8.430 127.789  0.00  0.00    +0.000 C 
ENDBRANCH  12  19
ENDBRANCH  10  15
ENDBRANCH   9  10
ENDBRANCH   8   9
ENDBRANCH   7   8
ENDBRANCH   1   7
BRANCH   4  22
ATOM     22  O   UNL     1      -6.354  -0.737 129.772  0.00  0.00    +0.000 OA
BRANCH  22  23
ATOM     23  C   UNL     1      -5.953  -2.122 129.422  0.00  0.00    +0.000 C 
BRANCH  23  24
ATOM     24  C   UNL     1      -5.764  -3.081 130.620  0.00  0.00    +0.000 A 
ATOM     25  C   UNL     1      -5.132  -4.268 130.383  0.00  0.00    +0.000 A 
ATOM     26  C   UNL     1      -5.365  -5.387 131.160  0.00  0.00    +0.000 A 
ATOM     27  C   UNL     1      -5.494  -5.164 132.495  0.00  0.00    +0.000 A 
ATOM     28  C   UNL     1      -5.634  -3.846 132.909  0.00  0.00    +0.000 A 
ATOM     29  C   UNL     1      -5.932  -2.835 131.974  0.00  0.00    +0.000 A 
ENDBRANCH  23  24
BRANCH  23  30
ATOM     30  C   UNL     1      -6.997  -2.696 128.444  0.00  0.00    +0.000 A 
ATOM     31  C   UNL     1      -6.995  -2.317 127.084  0.00  0.00    +0.000 A 
ATOM     32  C   UNL     1      -8.054  -2.564 126.231  0.00  0.00    +0.000 A 
ATOM     33  C   UNL     1      -9.072  -3.388 126.663  0.00  0.00    +0.000 A 
ATOM     34  C   UNL     1      -9.051  -3.891 127.967  0.00  0.00    +0.000 A 
ATOM     35  C   UNL     1      -8.041  -3.524 128.867  0.00  0.00    +0.000 A 
ENDBRANCH  23  30
ENDBRANCH  22  23
ENDBRANCH   4  22
TORSDOF 10
ENDMDL
MODEL 3
REMARK VINA RESULT:      -8.5      1.953      4.111
REMARK  Name = Ebastine
REMARK  13 active torsions:
REMARK  status: ('A' for Active; 'I' for Inactive)
REMARK    1  A    between atoms: C_1  and  C_2
REMARK    2  A    between atoms: C_2  and  C_3
REMARK    3  A    between atoms: C_2  and  C_4
REMARK    4  A    between atoms: C_2  and  C_5
REMARK    5  A    between atoms: C_8  and  C_11
REMARK    6  A    between atoms: C_11  and  C_13
REMARK    7  A    between atoms: C_13  and  C_14
REMARK    8  A    between atoms: C_14  and  C_15
REMARK    9  A    between atoms: C_15  and  N_16
REMARK   10  A    between atoms: C_19  and  O_22
REMARK   11  A    between atoms: O_22  and  C_23
REMARK   12  A    between atoms: C_23  and  C_24
REMARK   13  A    between atoms: C_23  and  C_30
REMARK                            x       y       z     vdW  Elec       q    Type
REMARK                         _______ _______ _______ _____ _____    ______ ____
ROOT
ATOM      1  N   UNL     1      -7.682   2.203 130.942  0.00  0.00    +0.000 NA
ATOM      2  C   UNL     1      -6.593   1.335 130.546  0.00  0.00    +0.000 C 
ATOM      3  C   UNL     1      -6.073   1.528 129.112  0.00  0.00    +0.000 C 
ATOM      4  C   UNL     1      -7.154   1.150 128.119  0.00  0.00    +0.000 C 
ATOM      5  C   UNL     1      -8.316   2.098 128.511  0.00  0.00    +0.000 C 
ATOM      6  C   UNL     1      -8.781   1.929 129.980  0.00  0.00    +0.000 C 
ENDROOT
BRANCH   1   7
ATOM      7  C   UNL     1      -8.078   1.824 132.333  0.00  0.00    +0.000 C 
BRANCH   7   8
ATOM      8  C   UNL     1      -7.996   2.986 133.353  0.00  0.00    +0.000 C 
BRANCH   8   9
ATOM      9  C   UNL     1      -9.267   3.796 133.406  0.00  0.00    +0.000 C 
BRANCH   9  10
ATOM     10  C   UNL     1      -8.973   5.257 133.171  0.00  0.00    +0.000 C 
ATOM     11  O   UNL     1      -8.171   5.913 133.870  0.00  0.00    +0.000 OA
BRANCH  10  15
ATOM     12  C   UNL     1     -11.061   7.358 130.089  0.00  0.00    +0.000 A 
ATOM     13  C   UNL     1      -9.661   7.227 130.061  0.00  0.00    +0.000 A 
ATOM     14  C   UNL     1      -8.997   6.479 131.026  0.00  0.00    +0.000 A 
ATOM     15  C   UNL     1      -9.707   5.939 132.095  0.00  0.00    +0.000 A 
ATOM     16  C   UNL     1     -11.093   6.094 132.164  0.00  0.00    +0.000 A 
ATOM     17  C   UNL     1     -11.757   6.791 131.168  0.00  0.00    +0.000 A 
BRANCH  12  19
ATOM     18  C   UNL     1     -10.796   8.424 127.877  0.00  0.00    +0.000 C 
ATOM     19  C   UNL     1     -11.837   7.964 128.919  0.00  0.00    +0.000 C 
ATOM     20  C   UNL     1     -12.685   9.179 129.338  0.00  0.00    +0.000 C 
ATOM     21  C   UNL     1     -12.781   6.933 128.265  0.00  0.00    +0.000 C 
ENDBRANCH  12  19
ENDBRANCH  10  15
ENDBRANCH   9  10
ENDBRANCH   8   9
ENDBRANCH   7   8
ENDBRANCH   1   7
BRANCH   4  22
ATOM     22  O   UNL     1      -7.541  -0.254 128.191  0.00  0.00    +0.000 OA
BRANCH  22  23
ATOM     23  C   UNL     1      -6.631  -1.297 127.656  0.00  0.00    +0.000 C 
BRANCH  23  24
ATOM     24  C   UNL     1      -6.162  -2.356 128.679  0.00  0.00    +0.000 A 
ATOM     25  C   UNL     1      -4.841  -2.355 129.026  0.00  0.00    +0.000 A 
ATOM     26  C   UNL     1      -4.199  -3.498 129.463  0.00  0.00    +0.000 A 
ATOM     27  C   UNL     1      -4.918  -4.300 130.293  0.00  0.00    +0.000 A 
ATOM     28  C   UNL     1      -6.276  -4.037 130.413  0.00  0.00    +0.000 A 
ATOM     29  C   UNL     1      -6.919  -3.184 129.493  0.00  0.00    +0.000 A 
ENDBRANCH  23  24
BRANCH  23  30
ATOM     30  C   UNL     1      -7.329  -1.983 126.465  0.00  0.00    +0.000 A 
ATOM     31  C   UNL     1      -8.735  -2.116 126.432  0.00  0.00    +0.000 A 
ATOM     32  C   UNL     1      -9.392  -2.955 125.553  0.00  0.00    +0.000 A 
ATOM     33  C   UNL     1      -8.671  -3.539 124.532  0.00  0.00    +0.000 A 
ATOM     34  C   UNL     1      -7.291  -3.333 124.452  0.00  0.00    +0.000 A 
ATOM     35  C   UNL     1      -6.613  -2.588 125.428  0.00  0.00    +0.000 A 
ENDBRANCH  23  30
ENDBRANCH  22  23
ENDBRANCH   4  22
TORSDOF 10
ENDMDL
MODEL 4
REMARK VINA RESULT:      -8.3      3.551      7.408
REMARK  Name = Ebastine
REMARK  13 active torsions:
REMARK  status: ('A' for Active; 'I' for Inactive)
REMARK    1  A    between atoms: C_1  and  C_2
REMARK    2  A    between atoms: C_2  and  C_3
REMARK    3  A    between atoms: C_2  and  C_4
REMARK    4  A    between atoms: C_2  and  C_5
REMARK    5  A    between atoms: C_8  and  C_11
REMARK    6  A    between atoms: C_11  and  C_13
REMARK    7  A    between atoms: C_13  and  C_14
REMARK    8  A    between atoms: C_14  and  C_15
REMARK    9  A    between atoms: C_15  and  N_16
REMARK   10  A    between atoms: C_19  and  O_22
REMARK   11  A    between atoms: O_22  and  C_23
REMARK   12  A    between atoms: C_23  and  C_24
REMARK   13  A    between atoms: C_23  and  C_30
REMARK                            x       y       z     vdW  Elec       q    Type
REMARK                         _______ _______ _______ _____ _____    ______ ____
ROOT
ATOM      1  N   UNL     1      -7.975   2.703 130.908  0.00  0.00    +0.000 NA
ATOM      2  C   UNL     1      -8.730   1.523 130.540  0.00  0.00    +0.000 C 
ATOM      3  C   UNL     1      -9.149   0.609 131.704  0.00  0.00    +0.000 C 
ATOM      4  C   UNL     1      -7.917   0.005 132.350  0.00  0.00    +0.000 C 
ATOM      5  C   UNL     1      -7.115   1.261 132.780  0.00  0.00    +0.000 C 
ATOM      6  C   UNL     1      -6.760   2.199 131.599  0.00  0.00    +0.000 C 
ENDROOT
BRANCH   1   7
ATOM      7  C   UNL     1      -7.619   3.421 129.647  0.00  0.00    +0.000 C 
BRANCH   7   8
ATOM      8  C   UNL     1      -6.876   2.545 128.608  0.00  0.00    +0.000 C 
BRANCH   8   9
ATOM      9  C   UNL     1      -6.710   3.242 127.281  0.00  0.00    +0.000 C 
BRANCH   9  10
ATOM     10  C   UNL     1      -5.558   2.646 126.511  0.00  0.00    +0.000 C 
ATOM     11  O   UNL     1      -4.429   3.176 126.453  0.00  0.00    +0.000 OA
BRANCH  10  15
ATOM     12  C   UNL     1      -6.393  -0.971 124.390  0.00  0.00    +0.000 A 
ATOM     13  C   UNL     1      -7.090   0.217 124.107  0.00  0.00    +0.000 A 
ATOM     14  C   UNL     1      -6.762   1.405 124.748  0.00  0.00    +0.000 A 
ATOM     15  C   UNL     1      -5.805   1.406 125.759  0.00  0.00    +0.000 A 
ATOM     16  C   UNL     1      -5.131   0.228 126.085  0.00  0.00    +0.000 A 
ATOM     17  C   UNL     1      -5.421  -0.942 125.402  0.00  0.00    +0.000 A 
BRANCH  12  19
ATOM     18  C   UNL     1      -5.806  -3.366 124.254  0.00  0.00    +0.000 C 
ATOM     19  C   UNL     1      -6.564  -2.229 123.536  0.00  0.00    +0.000 C 
ATOM     20  C   UNL     1      -5.981  -2.066 122.120  0.00  0.00    +0.000 C 
ATOM     21  C   UNL     1      -8.048  -2.625 123.393  0.00  0.00    +0.000 C 
ENDBRANCH  12  19
ENDBRANCH  10  15
ENDBRANCH   9  10
ENDBRANCH   8   9
ENDBRANCH   7   8
ENDBRANCH   1   7
BRANCH   4  22
ATOM     22  O   UNL     1      -7.155  -0.854 131.453  0.00  0.00    +0.000 OA
BRANCH  22  23
ATOM     23  C   UNL     1      -7.694  -2.184 131.072  0.00  0.00    +0.000 C 
BRANCH  23  24
ATOM     24  C   UNL     1      -7.978  -2.378 129.566  0.00  0.00    +0.000 A 
ATOM     25  C   UNL     1      -8.803  -3.405 129.207  0.00  0.00    +0.000 A 
ATOM     26  C   UNL     1      -8.717  -4.013 127.969  0.00  0.00    +0.000 A 
ATOM     27  C   UNL     1      -8.490  -3.183 126.916  0.00  0.00    +0.000 A 
ATOM     28  C   UNL     1      -8.120  -1.876 127.205  0.00  0.00    +0.000 A 
ATOM     29  C   UNL     1      -7.709  -1.525 128.506  0.00  0.00    +0.000 A 
ENDBRANCH  23  24
BRANCH  23  30
ATOM     30  C   UNL     1      -6.714  -3.264 131.570  0.00  0.00    +0.000 A 
ATOM     31  C   UNL     1      -5.979  -4.049 130.655  0.00  0.00    +0.000 A 
ATOM     32  C   UNL     1      -5.313  -5.204 131.017  0.00  0.00    +0.000 A 
ATOM     33  C   UNL     1      -5.188  -5.502 132.358  0.00  0.00    +0.000 A 
ATOM     34  C   UNL     1      -5.794  -4.679 133.311  0.00  0.00    +0.000 A 
ATOM     35  C   UNL     1      -6.582  -3.584 132.925  0.00  0.00    +0.000 A 
ENDBRANCH  23  30
ENDBRANCH  22  23
ENDBRANCH   4  22
TORSDOF 10
ENDMDL
MODEL 5
REMARK VINA RESULT:      -8.3      2.632      9.124
REMARK  Name = Ebastine
REMARK  13 active torsions:
REMARK  status: ('A' for Active; 'I' for Inactive)
REMARK    1  A    between atoms: C_1  and  C_2
REMARK    2  A    between atoms: C_2  and  C_3
REMARK    3  A    between atoms: C_2  and  C_4
REMARK    4  A    between atoms: C_2  and  C_5
REMARK    5  A    between atoms: C_8  and  C_11
REMARK    6  A    between atoms: C_11  and  C_13
REMARK    7  A    between atoms: C_13  and  C_14
REMARK    8  A    between atoms: C_14  and  C_15
REMARK    9  A    between atoms: C_15  and  N_16
REMARK   10  A    between atoms: C_19  and  O_22
REMARK   11  A    between atoms: O_22  and  C_23
REMARK   12  A    between atoms: C_23  and  C_24
REMARK   13  A    between atoms: C_23  and  C_30
REMARK                            x       y       z     vdW  Elec       q    Type
REMARK                         _______ _______ _______ _____ _____    ______ ____
ROOT
ATOM      1  N   UNL     1      -7.821   2.077 127.137  0.00  0.00    +0.000 NA
ATOM      2  C   UNL     1      -7.829   3.523 127.215  0.00  0.00    +0.000 C 
ATOM      3  C   UNL     1      -7.247   4.126 128.504  0.00  0.00    +0.000 C 
ATOM      4  C   UNL     1      -8.116   3.743 129.687  0.00  0.00    +0.000 C 
ATOM      5  C   UNL     1      -8.087   2.194 129.635  0.00  0.00    +0.000 C 
ATOM      6  C   UNL     1      -8.619   1.611 128.301  0.00  0.00    +0.000 C 
ENDROOT
BRANCH   1   7
ATOM      7  C   UNL     1      -8.472   1.690 125.849  0.00  0.00    +0.000 C 
BRANCH   7   8
ATOM      8  C   UNL     1      -9.382   0.441 125.949  0.00  0.00    +0.000 C 
BRANCH   8   9
ATOM      9  C   UNL     1      -8.852  -0.722 125.150  0.00  0.00    +0.000 C 
BRANCH   9  10
ATOM     10  C   UNL     1      -9.061  -2.016 125.898  0.00  0.00    +0.000 C 
ATOM     11  O   UNL     1     -10.010  -2.794 125.663  0.00  0.00    +0.000 OA
BRANCH  10  15
ATOM     12  C   UNL     1      -6.273  -3.048 128.969  0.00  0.00    +0.000 A 
ATOM     13  C   UNL     1      -5.877  -2.297 127.849  0.00  0.00    +0.000 A 
ATOM     14  C   UNL     1      -6.804  -1.902 126.893  0.00  0.00    +0.000 A 
ATOM     15  C   UNL     1      -8.123  -2.341 126.983  0.00  0.00    +0.000 A 
ATOM     16  C   UNL     1      -8.527  -3.123 128.065  0.00  0.00    +0.000 A 
ATOM     17  C   UNL     1      -7.611  -3.466 129.047  0.00  0.00    +0.000 A 
BRANCH  12  19
ATOM     18  C   UNL     1      -3.894  -3.270 129.595  0.00  0.00    +0.000 C 
ATOM     19  C   UNL     1      -5.333  -3.290 130.152  0.00  0.00    +0.000 C 
ATOM     20  C   UNL     1      -5.579  -4.648 130.835  0.00  0.00    +0.000 C 
ATOM     21  C   UNL     1      -5.473  -2.191 131.225  0.00  0.00    +0.000 C 
ENDBRANCH  12  19
ENDBRANCH  10  15
ENDBRANCH   9  10
ENDBRANCH   8   9
ENDBRANCH   7   8
ENDBRANCH   1   7
BRANCH   4  22
ATOM     22  O   UNL     1      -9.472   4.271 129.603  0.00  0.00    +0.000 OA
BRANCH  22  23
ATOM     23  C   UNL     1     -10.199   4.634 130.846  0.00  0.00    +0.000 C 
BRANCH  23  24
ATOM     24  C   UNL     1      -9.339   4.675 132.129  0.00  0.00    +0.000 A 
ATOM     25  C   UNL     1      -8.610   5.806 132.364  0.00  0.00    +0.000 A 
ATOM     26  C   UNL     1      -7.449   5.784 133.113  0.00  0.00    +0.000 A 
ATOM     27  C   UNL     1      -7.468   4.984 134.212  0.00  0.00    +0.000 A 
ATOM     28  C   UNL     1      -8.526   4.092 134.331  0.00  0.00    +0.000 A 
ATOM     29  C   UNL     1      -9.359   3.826 133.225  0.00  0.00    +0.000 A 
ENDBRANCH  23  24
BRANCH  23  30
ATOM     30  C   UNL     1     -10.887   5.995 130.625  0.00  0.00    +0.000 A 
ATOM     31  C   UNL     1     -11.944   6.413 131.463  0.00  0.00    +0.000 A 
ATOM     32  C   UNL     1     -12.779   7.470 131.152  0.00  0.00    +0.000 A 
ATOM     33  C   UNL     1     -12.452   8.279 130.084  0.00  0.00    +0.000 A 
ATOM     34  C   UNL     1     -11.336   7.974 129.299  0.00  0.00    +0.000 A 
ATOM     35  C   UNL     1     -10.574   6.822 129.542  0.00  0.00    +0.000 A 
ENDBRANCH  23  30
ENDBRANCH  22  23
ENDBRANCH   4  22
TORSDOF 10
ENDMDL
MODEL 6
REMARK VINA RESULT:      -8.3      2.435      4.296
REMARK  Name = Ebastine
REMARK  13 active torsions:
REMARK  status: ('A' for Active; 'I' for Inactive)
REMARK    1  A    between atoms: C_1  and  C_2
REMARK    2  A    between atoms: C_2  and  C_3
REMARK    3  A    between atoms: C_2  and  C_4
REMARK    4  A    between atoms: C_2  and  C_5
REMARK    5  A    between atoms: C_8  and  C_11
REMARK    6  A    between atoms: C_11  and  C_13
REMARK    7  A    between atoms: C_13  and  C_14
REMARK    8  A    between atoms: C_14  and  C_15
REMARK    9  A    between atoms: C_15  and  N_16
REMARK   10  A    between atoms: C_19  and  O_22
REMARK   11  A    between atoms: O_22  and  C_23
REMARK   12  A    between atoms: C_23  and  C_24
REMARK   13  A    between atoms: C_23  and  C_30
REMARK                            x       y       z     vdW  Elec       q    Type
REMARK                         _______ _______ _______ _____ _____    ______ ____
ROOT
ATOM      1  N   UNL     1      -7.360   3.362 128.604  0.00  0.00    +0.000 NA
ATOM      2  C   UNL     1      -6.154   2.861 127.977  0.00  0.00    +0.000 C 
ATOM      3  C   UNL     1      -6.335   2.233 126.586  0.00  0.00    +0.000 C 
ATOM      4  C   UNL     1      -7.177   0.976 126.697  0.00  0.00    +0.000 C 
ATOM      5  C   UNL     1      -8.487   1.505 127.335  0.00  0.00    +0.000 C 
ATOM      6  C   UNL     1      -8.270   2.191 128.708  0.00  0.00    +0.000 C 
ENDROOT
BRANCH   1   7
ATOM      7  C   UNL     1      -6.986   3.875 129.956  0.00  0.00    +0.000 C 
BRANCH   7   8
ATOM      8  C   UNL     1      -8.186   4.063 130.916  0.00  0.00    +0.000 C 
BRANCH   8   9
ATOM      9  C   UNL     1      -7.771   4.618 132.255  0.00  0.00    +0.000 C 
BRANCH   9  10
ATOM     10  C   UNL     1      -8.678   5.753 132.662  0.00  0.00    +0.000 C 
ATOM     11  O   UNL     1      -8.715   6.216 133.821  0.00  0.00    +0.000 OA
BRANCH  10  15
ATOM     12  C   UNL     1     -11.307   7.463 129.757  0.00  0.00    +0.000 A 
ATOM     13  C   UNL     1      -9.916   7.646 129.676  0.00  0.00    +0.000 A 
ATOM     14  C   UNL     1      -9.062   7.026 130.581  0.00  0.00    +0.000 A 
ATOM     15  C   UNL     1      -9.590   6.299 131.645  0.00  0.00    +0.000 A 
ATOM     16  C   UNL     1     -10.971   6.141 131.768  0.00  0.00    +0.000 A 
ATOM     17  C   UNL     1     -11.815   6.714 130.830  0.00  0.00    +0.000 A 
BRANCH  12  19
ATOM     18  C   UNL     1     -13.372   6.878 128.534  0.00  0.00    +0.000 C 
ATOM     19  C   UNL     1     -12.248   7.929 128.644  0.00  0.00    +0.000 C 
ATOM     20  C   UNL     1     -11.541   8.040 127.280  0.00  0.00    +0.000 C 
ATOM     21  C   UNL     1     -12.873   9.303 128.964  0.00  0.00    +0.000 C 
ENDBRANCH  12  19
ENDBRANCH  10  15
ENDBRANCH   9  10
ENDBRANCH   8   9
ENDBRANCH   7   8
ENDBRANCH   1   7
BRANCH   4  22
ATOM     22  O   UNL     1      -6.555  -0.068 127.502  0.00  0.00    +0.000 OA
BRANCH  22  23
ATOM     23  C   UNL     1      -7.269  -1.350 127.725  0.00  0.00    +0.000 C 
BRANCH  23  24
ATOM     24  C   UNL     1      -7.647  -2.130 126.445  0.00  0.00    +0.000 A 
ATOM     25  C   UNL     1      -8.970  -2.193 126.113  0.00  0.00    +0.000 A 
ATOM     26  C   UNL     1      -9.488  -3.238 125.373  0.00  0.00    +0.000 A 
ATOM     27  C   UNL     1      -8.710  -3.682 124.350  0.00  0.00    +0.000 A 
ATOM     28  C   UNL     1      -7.397  -3.232 124.308  0.00  0.00    +0.000 A 
ATOM     29  C   UNL     1      -6.827  -2.598 125.430  0.00  0.00    +0.000 A 
ENDBRANCH  23  24
BRANCH  23  30
ATOM     30  C   UNL     1      -6.404  -2.231 128.647  0.00  0.00    +0.000 A 
ATOM     31  C   UNL     1      -4.994  -2.182 128.578  0.00  0.00    +0.000 A 
ATOM     32  C   UNL     1      -4.177  -3.132 129.161  0.00  0.00    +0.000 A 
ATOM     33  C   UNL     1      -4.743  -4.057 130.013  0.00  0.00    +0.000 A 
ATOM     34  C   UNL     1      -6.127  -4.063 130.211  0.00  0.00    +0.000 A 
ATOM     35  C   UNL     1      -6.961  -3.180 129.509  0.00  0.00    +0.000 A 
ENDBRANCH  23  30
ENDBRANCH  22  23
ENDBRANCH   4  22
TORSDOF 10
ENDMDL
MODEL 7
REMARK VINA RESULT:      -8.2      5.884     10.677
REMARK  Name = Ebastine
REMARK  13 active torsions:
REMARK  status: ('A' for Active; 'I' for Inactive)
REMARK    1  A    between atoms: C_1  and  C_2
REMARK    2  A    between atoms: C_2  and  C_3
REMARK    3  A    between atoms: C_2  and  C_4
REMARK    4  A    between atoms: C_2  and  C_5
REMARK    5  A    between atoms: C_8  and  C_11
REMARK    6  A    between atoms: C_11  and  C_13
REMARK    7  A    between atoms: C_13  and  C_14
REMARK    8  A    between atoms: C_14  and  C_15
REMARK    9  A    between atoms: C_15  and  N_16
REMARK   10  A    between atoms: C_19  and  O_22
REMARK   11  A    between atoms: O_22  and  C_23
REMARK   12  A    between atoms: C_23  and  C_24
REMARK   13  A    between atoms: C_23  and  C_30
REMARK                            x       y       z     vdW  Elec       q    Type
REMARK                         _______ _______ _______ _____ _____    ______ ____
ROOT
ATOM      1  N   UNL     1      -9.383  -1.220 124.841  0.00  0.00    +0.000 NA
ATOM      2  C   UNL     1      -9.146   0.154 125.234  0.00  0.00    +0.000 C 
ATOM      3  C   UNL     1      -9.984   1.213 124.499  0.00  0.00    +0.000 C 
ATOM      4  C   UNL     1      -9.607   1.236 123.030  0.00  0.00    +0.000 C 
ATOM      5  C   UNL     1      -9.890  -0.223 122.589  0.00  0.00    +0.000 C 
ATOM      6  C   UNL     1      -9.081  -1.277 123.387  0.00  0.00    +0.000 C 
ENDROOT
BRANCH   1   7
ATOM      7  C   UNL     1      -8.442  -2.081 125.620  0.00  0.00    +0.000 C 
BRANCH   7   8
ATOM      8  C   UNL     1      -8.107  -1.537 127.031  0.00  0.00    +0.000 C 
BRANCH   8   9
ATOM      9  C   UNL     1      -7.128  -2.415 127.768  0.00  0.00    +0.000 C 
BRANCH   9  10
ATOM     10  C   UNL     1      -7.836  -3.224 128.827  0.00  0.00    +0.000 C 
ATOM     11  O   UNL     1      -9.018  -3.613 128.712  0.00  0.00    +0.000 OA
BRANCH  10  15
ATOM     12  C   UNL     1      -5.772  -4.205 132.439  0.00  0.00    +0.000 A 
ATOM     13  C   UNL     1      -5.473  -4.856 131.230  0.00  0.00    +0.000 A 
ATOM     14  C   UNL     1      -6.095  -4.480 130.045  0.00  0.00    +0.000 A 
ATOM     15  C   UNL     1      -7.104  -3.521 130.067  0.00  0.00    +0.000 A 
ATOM     16  C   UNL     1      -7.446  -2.892 131.265  0.00  0.00    +0.000 A 
ATOM     17  C   UNL     1      -6.781  -3.230 132.433  0.00  0.00    +0.000 A 
BRANCH  12  19
ATOM     18  C   UNL     1      -5.154  -3.196 134.607  0.00  0.00    +0.000 C 
ATOM     19  C   UNL     1      -4.938  -4.427 133.702  0.00  0.00    +0.000 C 
ATOM     20  C   UNL     1      -3.433  -4.559 133.402  0.00  0.00    +0.000 C 
ATOM     21  C   UNL     1      -5.380  -5.694 134.463  0.00  0.00    +0.000 C 
ENDBRANCH  12  19
ENDBRANCH  10  15
ENDBRANCH   9  10
ENDBRANCH   8   9
ENDBRANCH   7   8
ENDBRANCH   1   7
BRANCH   4  22
ATOM     22  O   UNL     1      -8.222   1.623 122.794  0.00  0.00    +0.000 OA
BRANCH  22  23
ATOM     23  C   UNL     1      -7.804   3.031 123.007  0.00  0.00    +0.000 C 
BRANCH  23  24
ATOM     24  C   UNL     1      -6.864   3.270 124.210  0.00  0.00    +0.000 A 
ATOM     25  C   UNL     1      -6.895   4.501 124.800  0.00  0.00    +0.000 A 
ATOM     26  C   UNL     1      -5.804   5.017 125.473  0.00  0.00    +0.000 A 
ATOM     27  C   UNL     1      -5.105   4.132 126.234  0.00  0.00    +0.000 A 
ATOM     28  C   UNL     1      -5.390   2.784 126.064  0.00  0.00    +0.000 A 
ATOM     29  C   UNL     1      -6.138   2.350 124.951  0.00  0.00    +0.000 A 
ENDBRANCH  23  24
BRANCH  23  30
ATOM     30  C   UNL     1      -7.146   3.542 121.710  0.00  0.00    +0.000 A 
ATOM     31  C   UNL     1      -5.773   3.874 121.680  0.00  0.00    +0.000 A 
ATOM     32  C   UNL     1      -5.194   4.594 120.652  0.00  0.00    +0.000 A 
ATOM     33  C   UNL     1      -5.933   4.830 119.513  0.00  0.00    +0.000 A 
ATOM     34  C   UNL     1      -7.264   4.407 119.448  0.00  0.00    +0.000 A 
ATOM     35  C   UNL     1      -7.883   3.796 120.549  0.00  0.00    +0.000 A 
ENDBRANCH  23  30
ENDBRANCH  22  23
ENDBRANCH   4  22
TORSDOF 10
ENDMDL
MODEL 8
REMARK VINA RESULT:      -8.1      2.627      4.324
REMARK  Name = Ebastine
REMARK  13 active torsions:
REMARK  status: ('A' for Active; 'I' for Inactive)
REMARK    1  A    between atoms: C_1  and  C_2
REMARK    2  A    between atoms: C_2  and  C_3
REMARK    3  A    between atoms: C_2  and  C_4
REMARK    4  A    between atoms: C_2  and  C_5
REMARK    5  A    between atoms: C_8  and  C_11
REMARK    6  A    between atoms: C_11  and  C_13
REMARK    7  A    between atoms: C_13  and  C_14
REMARK    8  A    between atoms: C_14  and  C_15
REMARK    9  A    between atoms: C_15  and  N_16
REMARK   10  A    between atoms: C_19  and  O_22
REMARK   11  A    between atoms: O_22  and  C_23
REMARK   12  A    between atoms: C_23  and  C_24
REMARK   13  A    between atoms: C_23  and  C_30
REMARK                            x       y       z     vdW  Elec       q    Type
REMARK                         _______ _______ _______ _____ _____    ______ ____
ROOT
ATOM      1  N   UNL     1      -6.278   3.443 128.781  0.00  0.00    +0.000 NA
ATOM      2  C   UNL     1      -5.204   2.544 128.412  0.00  0.00    +0.000 C 
ATOM      3  C   UNL     1      -4.986   2.349 126.902  0.00  0.00    +0.000 C 
ATOM      4  C   UNL     1      -6.194   1.663 126.294  0.00  0.00    +0.000 C 
ATOM      5  C   UNL     1      -7.347   2.635 126.653  0.00  0.00    +0.000 C 
ATOM      6  C   UNL     1      -7.507   2.866 128.177  0.00  0.00    +0.000 C 
ENDROOT
BRANCH   1   7
ATOM      7  C   UNL     1      -6.365   3.453 130.273  0.00  0.00    +0.000 C 
BRANCH   7   8
ATOM      8  C   UNL     1      -7.798   3.254 130.825  0.00  0.00    +0.000 C 
BRANCH   8   9
ATOM      9  C   UNL     1      -7.968   3.834 132.206  0.00  0.00    +0.000 C 
BRANCH   9  10
ATOM     10  C   UNL     1      -7.983   5.342 132.148  0.00  0.00    +0.000 C 
ATOM     11  O   UNL     1      -7.149   6.056 132.743  0.00  0.00    +0.000 OA
BRANCH  10  15
ATOM     12  C   UNL     1     -11.140   7.109 129.870  0.00  0.00    +0.000 A 
ATOM     13  C   UNL     1     -11.395   6.075 130.788  0.00  0.00    +0.000 A 
ATOM     14  C   UNL     1     -10.376   5.557 131.579  0.00  0.00    +0.000 A 
ATOM     15  C   UNL     1      -9.066   5.988 131.390  0.00  0.00    +0.000 A 
ATOM     16  C   UNL     1      -8.784   6.983 130.454  0.00  0.00    +0.000 A 
ATOM     17  C   UNL     1      -9.813   7.538 129.709  0.00  0.00    +0.000 A 
BRANCH  12  19
ATOM     18  C   UNL     1     -12.735   8.977 130.125  0.00  0.00    +0.000 C 
ATOM     19  C   UNL     1     -12.271   7.860 129.166  0.00  0.00    +0.000 C 
ATOM     20  C   UNL     1     -13.474   6.953 128.847  0.00  0.00    +0.000 C 
ATOM     21  C   UNL     1     -11.797   8.497 127.844  0.00  0.00    +0.000 C 
ENDBRANCH  12  19
ENDBRANCH  10  15
ENDBRANCH   9  10
ENDBRANCH   8   9
ENDBRANCH   7   8
ENDBRANCH   1   7
BRANCH   4  22
ATOM     22  O   UNL     1      -6.422   0.322 126.816  0.00  0.00    +0.000 OA
BRANCH  22  23
ATOM     23  C   UNL     1      -7.255  -0.637 126.047  0.00  0.00    +0.000 C 
BRANCH  23  24
ATOM     24  C   UNL     1      -6.523  -1.394 124.916  0.00  0.00    +0.000 A 
ATOM     25  C   UNL     1      -6.714  -0.955 123.637  0.00  0.00    +0.000 A 
ATOM     26  C   UNL     1      -6.591  -1.799 122.550  0.00  0.00    +0.000 A 
ATOM     27  C   UNL     1      -5.568  -2.694 122.607  0.00  0.00    +0.000 A 
ATOM     28  C   UNL     1      -4.924  -2.845 123.828  0.00  0.00    +0.000 A 
ATOM     29  C   UNL     1      -5.500  -2.326 125.005  0.00  0.00    +0.000 A 
ENDBRANCH  23  24
BRANCH  23  30
ATOM     30  C   UNL     1      -7.880  -1.638 127.037  0.00  0.00    +0.000 A 
ATOM     31  C   UNL     1      -7.611  -1.548 128.421  0.00  0.00    +0.000 A 
ATOM     32  C   UNL     1      -7.901  -2.563 129.313  0.00  0.00    +0.000 A 
ATOM     33  C   UNL     1      -8.663  -3.627 128.878  0.00  0.00    +0.000 A 
ATOM     34  C   UNL     1      -9.061  -3.695 127.540  0.00  0.00    +0.000 A 
ATOM     35  C   UNL     1      -8.647  -2.728 126.613  0.00  0.00    +0.000 A 
ENDBRANCH  23  30
ENDBRANCH  22  23
ENDBRANCH   4  22
TORSDOF 10
ENDMDL
MODEL 9
REMARK VINA RESULT:      -8.0      4.776      9.294
REMARK  Name = Ebastine
REMARK  13 active torsions:
REMARK  status: ('A' for Active; 'I' for Inactive)
REMARK    1  A    between atoms: C_1  and  C_2
REMARK    2  A    between atoms: C_2  and  C_3
REMARK    3  A    between atoms: C_2  and  C_4
REMARK    4  A    between atoms: C_2  and  C_5
REMARK    5  A    between atoms: C_8  and  C_11
REMARK    6  A    between atoms: C_11  and  C_13
REMARK    7  A    between atoms: C_13  and  C_14
REMARK    8  A    between atoms: C_14  and  C_15
REMARK    9  A    between atoms: C_15  and  N_16
REMARK   10  A    between atoms: C_19  and  O_22
REMARK   11  A    between atoms: O_22  and  C_23
REMARK   12  A    between atoms: C_23  and  C_24
REMARK   13  A    between atoms: C_23  and  C_30
REMARK                            x       y       z     vdW  Elec       q    Type
REMARK                         _______ _______ _______ _____ _____    ______ ____
ROOT
ATOM      1  N   UNL     1      -8.613   1.932 123.366  0.00  0.00    +0.000 NA
ATOM      2  C   UNL     1      -8.818   2.504 124.681  0.00  0.00    +0.000 C 
ATOM      3  C   UNL     1      -8.223   3.905 124.900  0.00  0.00    +0.000 C 
ATOM      4  C   UNL     1      -6.710   3.838 124.819  0.00  0.00    +0.000 C 
ATOM      5  C   UNL     1      -6.476   3.258 123.400  0.00  0.00    +0.000 C 
ATOM      6  C   UNL     1      -7.139   1.874 123.182  0.00  0.00    +0.000 C 
ENDROOT
BRANCH   1   7
ATOM      7  C   UNL     1      -9.209   0.562 123.372  0.00  0.00    +0.000 C 
BRANCH   7   8
ATOM      8  C   UNL     1      -9.170  -0.139 124.753  0.00  0.00    +0.000 C 
BRANCH   8   9
ATOM      9  C   UNL     1      -8.337  -1.395 124.738  0.00  0.00    +0.000 C 
BRANCH   9  10
ATOM     10  C   UNL     1      -8.877  -2.400 125.725  0.00  0.00    +0.000 C 
ATOM     11  O   UNL     1      -9.950  -3.016 125.553  0.00  0.00    +0.000 OA
BRANCH  10  15
ATOM     12  C   UNL     1      -6.598  -3.134 129.266  0.00  0.00    +0.000 A 
ATOM     13  C   UNL     1      -6.031  -2.482 128.158  0.00  0.00    +0.000 A 
ATOM     14  C   UNL     1      -6.799  -2.181 127.039  0.00  0.00    +0.000 A 
ATOM     15  C   UNL     1      -8.118  -2.620 126.965  0.00  0.00    +0.000 A 
ATOM     16  C   UNL     1      -8.688  -3.306 128.038  0.00  0.00    +0.000 A 
ATOM     17  C   UNL     1      -7.935  -3.553 129.175  0.00  0.00    +0.000 A 
BRANCH  12  19
ATOM     18  C   UNL     1      -5.338  -4.714 130.686  0.00  0.00    +0.000 C 
ATOM     19  C   UNL     1      -5.852  -3.262 130.595  0.00  0.00    +0.000 C 
ATOM     20  C   UNL     1      -6.756  -2.983 131.810  0.00  0.00    +0.000 C 
ATOM     21  C   UNL     1      -4.650  -2.298 130.670  0.00  0.00    +0.000 C 
ENDBRANCH  12  19
ENDBRANCH  10  15
ENDBRANCH   9  10
ENDBRANCH   8   9
ENDBRANCH   7   8
ENDBRANCH   1   7
BRANCH   4  22
ATOM     22  O   UNL     1      -6.112   3.009 125.858  0.00  0.00    +0.000 OA
BRANCH  22  23
ATOM     23  C   UNL     1      -6.215   3.421 127.280  0.00  0.00    +0.000 C 
BRANCH  23  24
ATOM     24  C   UNL     1      -6.721   2.331 128.252  0.00  0.00    +0.000 A 
ATOM     25  C   UNL     1      -6.425   2.481 129.576  0.00  0.00    +0.000 A 
ATOM     26  C   UNL     1      -6.325   1.399 130.430  0.00  0.00    +0.000 A 
ATOM     27  C   UNL     1      -7.245   0.414 130.248  0.00  0.00    +0.000 A 
ATOM     28  C   UNL     1      -8.011   0.466 129.090  0.00  0.00    +0.000 A 
ATOM     29  C   UNL     1      -7.640   1.317 128.030  0.00  0.00    +0.000 A 
ENDBRANCH  23  24
BRANCH  23  30
ATOM     30  C   UNL     1      -4.837   3.939 127.735  0.00  0.00    +0.000 A 
ATOM     31  C   UNL     1      -4.719   5.168 128.422  0.00  0.00    +0.000 A 
ATOM     32  C   UNL     1      -3.513   5.818 128.602  0.00  0.00    +0.000 A 
ATOM     33  C   UNL     1      -2.349   5.152 128.279  0.00  0.00    +0.000 A 
ATOM     34  C   UNL     1      -2.414   3.877 127.712  0.00  0.00    +0.000 A 
ATOM     35  C   UNL     1      -3.647   3.282 127.408  0.00  0.00    +0.000 A 
ENDBRANCH  23  30
ENDBRANCH  22  23
ENDBRANCH   4  22
TORSDOF 10
ENDMDL
