MODEL 1
REMARK VINA RESULT:      -8.9      0.000      0.000
REMARK  Name = Ecamsule
REMARK  12 active torsions:
REMARK  status: ('A' for Active; 'I' for Inactive)
REMARK    1  A    between atoms: C_1  and  C_2
REMARK    2  A    between atoms: C_2  and  C_3
REMARK    3  A    between atoms: C_7  and  C_8
REMARK    4  A    between atoms: C_8  and  S_9
REMARK    5  A    between atoms: S_9  and  O_10
REMARK    6  A    between atoms: C_16  and  C_17
REMARK    7  A    between atoms: C_20  and  C_21
REMARK    8  A    between atoms: C_26  and  C_27
REMARK    9  A    between atoms: C_27  and  S_28
REMARK   10  A    between atoms: S_28  and  O_29
REMARK   11  A    between atoms: C_34  and  C_35
REMARK   12  A    between atoms: C_34  and  C_36
REMARK                            x       y       z     vdW  Elec       q    Type
REMARK                         _______ _______ _______ _____ _____    ______ ____
ROOT
ATOM      1  C   UNL     1      -3.173   4.686 127.653  0.00  0.00    +0.000 A 
ATOM      2  C   UNL     1      -4.309   5.172 126.997  0.00  0.00    +0.000 A 
ATOM      3  C   UNL     1      -5.116   4.315 126.224  0.00  0.00    +0.000 A 
ATOM      4  C   UNL     1      -4.757   2.977 126.048  0.00  0.00    +0.000 A 
ATOM      5  C   UNL     1      -3.665   2.522 126.787  0.00  0.00    +0.000 A 
ATOM      6  C   UNL     1      -2.855   3.348 127.535  0.00  0.00    +0.000 A 
ENDROOT
BRANCH   1  17
ATOM      7  C   UNL     1      -2.696   8.172 132.806  0.00  0.00    +0.000 C 
ATOM      8  C   UNL     1      -3.166   7.377 131.574  0.00  0.00    +0.000 C 
ATOM      9  C   UNL     1      -4.020   8.344 130.731  0.00  0.00    +0.000 C 
ATOM     10  C   UNL     1      -1.996   6.706 130.796  0.00  0.00    +0.000 C 
ATOM     11  C   UNL     1      -1.429   5.715 131.835  0.00  0.00    +0.000 C 
ATOM     12  C   UNL     1      -2.690   5.243 132.606  0.00  0.00    +0.000 C 
ATOM     13  C   UNL     1      -3.849   6.017 131.927  0.00  0.00    +0.000 C 
ATOM     14  C   UNL     1      -3.934   5.424 130.539  0.00  0.00    +0.000 C 
ATOM     15  O   UNL     1      -4.808   4.677 130.140  0.00  0.00    +0.000 OA
ATOM     16  C   UNL     1      -2.715   5.845 129.783  0.00  0.00    +0.000 C 
ATOM     17  C   UNL     1      -2.356   5.508 128.540  0.00  0.00    +0.000 C 
BRANCH  13  18
ATOM     18  C   UNL     1      -5.170   6.080 132.672  0.00  0.00    +0.000 C 
BRANCH  18  19
ATOM     19  S   UNL     1      -5.513   4.719 133.809  0.00  0.00    +0.000 S 
ATOM     20  O   UNL     1      -5.287   3.466 133.127  0.00  0.00    +0.000 OA
ATOM     21  O   UNL     1      -4.859   5.021 135.064  0.00  0.00    +0.000 OA
BRANCH  19  22
ATOM     22  O   UNL     1      -7.096   4.863 134.072  0.00  0.00    +0.000 OA
ATOM     23  H   UNL     1      -7.437   5.787 133.976  0.00  0.00    +0.000 HD
ENDBRANCH  19  22
ENDBRANCH  18  19
ENDBRANCH  13  18
ENDBRANCH   1  17
BRANCH   4  24
ATOM     24  C   UNL     1      -5.492   2.098 125.119  0.00  0.00    +0.000 C 
ATOM     25  C   UNL     1      -6.353   1.143 125.502  0.00  0.00    +0.000 C 
ATOM     26  C   UNL     1      -6.814   0.649 126.858  0.00  0.00    +0.000 C 
ATOM     27  C   UNL     1      -8.238   1.195 127.029  0.00  0.00    +0.000 C 
ATOM     28  C   UNL     1      -9.047   0.282 126.092  0.00  0.00    +0.000 C 
ATOM     29  C   UNL     1      -7.983  -0.672 125.472  0.00  0.00    +0.000 C 
ATOM     30  C   UNL     1      -7.099   0.217 124.585  0.00  0.00    +0.000 C 
ATOM     31  O   UNL     1      -6.947   0.180 123.379  0.00  0.00    +0.000 OA
ATOM     32  C   UNL     1      -6.988  -0.858 126.649  0.00  0.00    +0.000 C 
ATOM     33  C   UNL     1      -7.525  -1.541 127.919  0.00  0.00    +0.000 C 
ATOM     34  C   UNL     1      -5.651  -1.550 126.303  0.00  0.00    +0.000 C 
BRANCH  29  35
ATOM     35  C   UNL     1      -8.491  -1.971 124.890  0.00  0.00    +0.000 C 
BRANCH  35  36
ATOM     36  S   UNL     1      -9.183  -1.880 123.242  0.00  0.00    +0.000 S 
ATOM     37  O   UNL     1     -10.047  -0.733 123.078  0.00  0.00    +0.000 OA
ATOM     38  O   UNL     1      -8.148  -2.195 122.292  0.00  0.00    +0.000 OA
BRANCH  36  39
ATOM     39  O   UNL     1     -10.165  -3.159 123.340  0.00  0.00    +0.000 OA
ATOM     40  H   UNL     1      -9.808  -3.881 122.781  0.00  0.00    +0.000 HD
ENDBRANCH  36  39
ENDBRANCH  35  36
ENDBRANCH  29  35
ENDBRANCH   4  24
TORSDOF 8
ENDMDL
MODEL 2
REMARK VINA RESULT:      -8.5      5.966      7.940
REMARK  Name = Ecamsule
REMARK  12 active torsions:
REMARK  status: ('A' for Active; 'I' for Inactive)
REMARK    1  A    between atoms: C_1  and  C_2
REMARK    2  A    between atoms: C_2  and  C_3
REMARK    3  A    between atoms: C_7  and  C_8
REMARK    4  A    between atoms: C_8  and  S_9
REMARK    5  A    between atoms: S_9  and  O_10
REMARK    6  A    between atoms: C_16  and  C_17
REMARK    7  A    between atoms: C_20  and  C_21
REMARK    8  A    between atoms: C_26  and  C_27
REMARK    9  A    between atoms: C_27  and  S_28
REMARK   10  A    between atoms: S_28  and  O_29
REMARK   11  A    between atoms: C_34  and  C_35
REMARK   12  A    between atoms: C_34  and  C_36
REMARK                            x       y       z     vdW  Elec       q    Type
REMARK                         _______ _______ _______ _____ _____    ______ ____
ROOT
ATOM      1  C   UNL     1      -5.626  -4.039 130.941  0.00  0.00    +0.000 A 
ATOM      2  C   UNL     1      -4.677  -3.367 130.163  0.00  0.00    +0.000 A 
ATOM      3  C   UNL     1      -5.054  -2.291 129.337  0.00  0.00    +0.000 A 
ATOM      4  C   UNL     1      -6.395  -1.918 129.232  0.00  0.00    +0.000 A 
ATOM      5  C   UNL     1      -7.290  -2.562 130.087  0.00  0.00    +0.000 A 
ATOM      6  C   UNL     1      -6.942  -3.627 130.890  0.00  0.00    +0.000 A 
ENDROOT
BRANCH   1  17
ATOM      7  C   UNL     1      -3.258  -5.743 136.457  0.00  0.00    +0.000 C 
ATOM      8  C   UNL     1      -3.662  -5.017 135.160  0.00  0.00    +0.000 C 
ATOM      9  C   UNL     1      -2.351  -4.568 134.486  0.00  0.00    +0.000 C 
ATOM     10  C   UNL     1      -4.597  -5.866 134.249  0.00  0.00    +0.000 C 
ATOM     11  C   UNL     1      -5.854  -6.038 135.128  0.00  0.00    +0.000 C 
ATOM     12  C   UNL     1      -5.942  -4.692 135.896  0.00  0.00    +0.000 C 
ATOM     13  C   UNL     1      -4.722  -3.889 135.375  0.00  0.00    +0.000 C 
ATOM     14  C   UNL     1      -5.056  -3.596 133.929  0.00  0.00    +0.000 C 
ATOM     15  O   UNL     1      -5.382  -2.512 133.484  0.00  0.00    +0.000 OA
ATOM     16  C   UNL     1      -5.001  -4.885 133.173  0.00  0.00    +0.000 C 
ATOM     17  C   UNL     1      -5.276  -5.098 131.883  0.00  0.00    +0.000 C 
BRANCH  13  18
ATOM     18  C   UNL     1      -4.291  -2.680 136.184  0.00  0.00    +0.000 C 
BRANCH  18  19
ATOM     19  S   UNL     1      -5.580  -1.864 137.150  0.00  0.00    +0.000 S 
ATOM     20  O   UNL     1      -6.686  -1.537 136.281  0.00  0.00    +0.000 OA
ATOM     21  O   UNL     1      -5.777  -2.635 138.359  0.00  0.00    +0.000 OA
BRANCH  19  22
ATOM     22  O   UNL     1      -4.875  -0.486 137.596  0.00  0.00    +0.000 OA
ATOM     23  H   UNL     1      -4.404  -0.539 138.466  0.00  0.00    +0.000 HD
ENDBRANCH  19  22
ENDBRANCH  18  19
ENDBRANCH  13  18
ENDBRANCH   1  17
BRANCH   4  24
ATOM     24  C   UNL     1      -6.839  -0.903 128.259  0.00  0.00    +0.000 C 
ATOM     25  C   UNL     1      -7.333  -1.184 127.044  0.00  0.00    +0.000 C 
ATOM     26  C   UNL     1      -7.563  -2.481 126.295  0.00  0.00    +0.000 C 
ATOM     27  C   UNL     1      -9.080  -2.710 126.331  0.00  0.00    +0.000 C 
ATOM     28  C   UNL     1      -9.584  -1.683 125.303  0.00  0.00    +0.000 C 
ATOM     29  C   UNL     1      -8.293  -0.965 124.812  0.00  0.00    +0.000 C 
ATOM     30  C   UNL     1      -7.773  -0.176 126.022  0.00  0.00    +0.000 C 
ATOM     31  O   UNL     1      -7.660   1.028 126.156  0.00  0.00    +0.000 OA
ATOM     32  C   UNL     1      -7.250  -2.115 124.842  0.00  0.00    +0.000 C 
ATOM     33  C   UNL     1      -7.493  -3.306 123.899  0.00  0.00    +0.000 C 
ATOM     34  C   UNL     1      -5.774  -1.696 124.658  0.00  0.00    +0.000 C 
BRANCH  29  35
ATOM     35  C   UNL     1      -8.375  -0.250 123.483  0.00  0.00    +0.000 C 
BRANCH  35  36
ATOM     36  S   UNL     1      -9.711   0.928 123.302  0.00  0.00    +0.000 S 
ATOM     37  O   UNL     1     -10.492   1.054 124.513  0.00  0.00    +0.000 OA
ATOM     38  O   UNL     1      -9.215   2.079 122.595  0.00  0.00    +0.000 OA
BRANCH  36  39
ATOM     39  O   UNL     1     -10.625   0.077 122.278  0.00  0.00    +0.000 OA
ATOM     40  H   UNL     1     -10.130  -0.721 121.995  0.00  0.00    +0.000 HD
ENDBRANCH  36  39
ENDBRANCH  35  36
ENDBRANCH  29  35
ENDBRANCH   4  24
TORSDOF 8
ENDMDL
MODEL 3
REMARK VINA RESULT:      -8.4      5.752      8.157
REMARK  Name = Ecamsule
REMARK  12 active torsions:
REMARK  status: ('A' for Active; 'I' for Inactive)
REMARK    1  A    between atoms: C_1  and  C_2
REMARK    2  A    between atoms: C_2  and  C_3
REMARK    3  A    between atoms: C_7  and  C_8
REMARK    4  A    between atoms: C_8  and  S_9
REMARK    5  A    between atoms: S_9  and  O_10
REMARK    6  A    between atoms: C_16  and  C_17
REMARK    7  A    between atoms: C_20  and  C_21
REMARK    8  A    between atoms: C_26  and  C_27
REMARK    9  A    between atoms: C_27  and  S_28
REMARK   10  A    between atoms: S_28  and  O_29
REMARK   11  A    between atoms: C_34  and  C_35
REMARK   12  A    between atoms: C_34  and  C_36
REMARK                            x       y       z     vdW  Elec       q    Type
REMARK                         _______ _______ _______ _____ _____    ______ ____
ROOT
ATOM      1  C   UNL     1      -5.746  -3.420 131.469  0.00  0.00    +0.000 A 
ATOM      2  C   UNL     1      -5.123  -2.195 131.208  0.00  0.00    +0.000 A 
ATOM      3  C   UNL     1      -5.758  -1.218 130.418  0.00  0.00    +0.000 A 
ATOM      4  C   UNL     1      -6.995  -1.482 129.829  0.00  0.00    +0.000 A 
ATOM      5  C   UNL     1      -7.613  -2.681 130.185  0.00  0.00    +0.000 A 
ATOM      6  C   UNL     1      -7.001  -3.656 130.943  0.00  0.00    +0.000 A 
ENDROOT
BRANCH   1  17
ATOM      7  C   UNL     1      -4.288  -5.277 137.245  0.00  0.00    +0.000 C 
ATOM      8  C   UNL     1      -4.658  -4.493 135.972  0.00  0.00    +0.000 C 
ATOM      9  C   UNL     1      -3.602  -3.380 135.824  0.00  0.00    +0.000 C 
ATOM     10  C   UNL     1      -4.816  -5.401 134.718  0.00  0.00    +0.000 C 
ATOM     11  C   UNL     1      -6.009  -6.301 135.105  0.00  0.00    +0.000 C 
ATOM     12  C   UNL     1      -6.916  -5.356 135.937  0.00  0.00    +0.000 C 
ATOM     13  C   UNL     1      -6.143  -4.011 135.940  0.00  0.00    +0.000 C 
ATOM     14  C   UNL     1      -6.211  -3.537 134.506  0.00  0.00    +0.000 C 
ATOM     15  O   UNL     1      -6.896  -2.619 134.095  0.00  0.00    +0.000 OA
ATOM     16  C   UNL     1      -5.363  -4.449 133.679  0.00  0.00    +0.000 C 
ATOM     17  C   UNL     1      -5.176  -4.429 132.356  0.00  0.00    +0.000 C 
BRANCH  13  18
ATOM     18  C   UNL     1      -6.558  -2.977 136.971  0.00  0.00    +0.000 C 
BRANCH  18  19
ATOM     19  S   UNL     1      -8.280  -3.033 137.513  0.00  0.00    +0.000 S 
ATOM     20  O   UNL     1      -8.523  -4.287 138.186  0.00  0.00    +0.000 OA
ATOM     21  O   UNL     1      -8.580  -1.768 138.149  0.00  0.00    +0.000 OA
BRANCH  19  22
ATOM     22  O   UNL     1      -9.093  -3.049 136.122  0.00  0.00    +0.000 OA
ATOM     23  H   UNL     1      -8.514  -3.031 135.319  0.00  0.00    +0.000 HD
ENDBRANCH  19  22
ENDBRANCH  18  19
ENDBRANCH  13  18
ENDBRANCH   1  17
BRANCH   4  24
ATOM     24  C   UNL     1      -7.610  -0.543 128.871  0.00  0.00    +0.000 C 
ATOM     25  C   UNL     1      -7.650  -0.733 127.544  0.00  0.00    +0.000 C 
ATOM     26  C   UNL     1      -7.120  -1.827 126.639  0.00  0.00    +0.000 C 
ATOM     27  C   UNL     1      -8.353  -2.636 126.212  0.00  0.00    +0.000 C 
ATOM     28  C   UNL     1      -9.013  -1.698 125.186  0.00  0.00    +0.000 C 
ATOM     29  C   UNL     1      -8.089  -0.444 125.162  0.00  0.00    +0.000 C 
ATOM     30  C   UNL     1      -8.247   0.212 126.541  0.00  0.00    +0.000 C 
ATOM     31  O   UNL     1      -8.700   1.305 126.818  0.00  0.00    +0.000 OA
ATOM     32  C   UNL     1      -6.685  -1.071 125.381  0.00  0.00    +0.000 C 
ATOM     33  C   UNL     1      -6.171  -2.034 124.298  0.00  0.00    +0.000 C 
ATOM     34  C   UNL     1      -5.539  -0.077 125.674  0.00  0.00    +0.000 C 
BRANCH  29  35
ATOM     35  C   UNL     1      -8.178   0.443 123.941  0.00  0.00    +0.000 C 
BRANCH  35  36
ATOM     36  S   UNL     1      -9.819   0.706 123.275  0.00  0.00    +0.000 S 
ATOM     37  O   UNL     1     -10.197  -0.328 122.338  0.00  0.00    +0.000 OA
ATOM     38  O   UNL     1     -10.688   1.116 124.346  0.00  0.00    +0.000 OA
BRANCH  36  39
ATOM     39  O   UNL     1      -9.492   2.010 122.381  0.00  0.00    +0.000 OA
ATOM     40  H   UNL     1     -10.244   2.180 121.776  0.00  0.00    +0.000 HD
ENDBRANCH  36  39
ENDBRANCH  35  36
ENDBRANCH  29  35
ENDBRANCH   4  24
TORSDOF 8
ENDMDL
MODEL 4
REMARK VINA RESULT:      -8.3      5.198      8.167
REMARK  Name = Ecamsule
REMARK  12 active torsions:
REMARK  status: ('A' for Active; 'I' for Inactive)
REMARK    1  A    between atoms: C_1  and  C_2
REMARK    2  A    between atoms: C_2  and  C_3
REMARK    3  A    between atoms: C_7  and  C_8
REMARK    4  A    between atoms: C_8  and  S_9
REMARK    5  A    between atoms: S_9  and  O_10
REMARK    6  A    between atoms: C_16  and  C_17
REMARK    7  A    between atoms: C_20  and  C_21
REMARK    8  A    between atoms: C_26  and  C_27
REMARK    9  A    between atoms: C_27  and  S_28
REMARK   10  A    between atoms: S_28  and  O_29
REMARK   11  A    between atoms: C_34  and  C_35
REMARK   12  A    between atoms: C_34  and  C_36
REMARK                            x       y       z     vdW  Elec       q    Type
REMARK                         _______ _______ _______ _____ _____    ______ ____
ROOT
ATOM      1  C   UNL     1      -5.560  -4.245 130.318  0.00  0.00    +0.000 A 
ATOM      2  C   UNL     1      -4.436  -3.710 129.680  0.00  0.00    +0.000 A 
ATOM      3  C   UNL     1      -4.575  -2.737 128.671  0.00  0.00    +0.000 A 
ATOM      4  C   UNL     1      -5.843  -2.337 128.248  0.00  0.00    +0.000 A 
ATOM      5  C   UNL     1      -6.929  -2.836 128.969  0.00  0.00    +0.000 A 
ATOM      6  C   UNL     1      -6.813  -3.800 129.947  0.00  0.00    +0.000 A 
ENDROOT
BRANCH   1  17
ATOM      7  C   UNL     1      -4.074  -5.380 136.271  0.00  0.00    +0.000 C 
ATOM      8  C   UNL     1      -4.227  -4.813 134.848  0.00  0.00    +0.000 C 
ATOM      9  C   UNL     1      -2.799  -4.640 134.292  0.00  0.00    +0.000 C 
ATOM     10  C   UNL     1      -5.169  -5.666 133.948  0.00  0.00    +0.000 C 
ATOM     11  C   UNL     1      -6.525  -5.543 134.673  0.00  0.00    +0.000 C 
ATOM     12  C   UNL     1      -6.503  -4.096 135.235  0.00  0.00    +0.000 C 
ATOM     13  C   UNL     1      -5.131  -3.542 134.771  0.00  0.00    +0.000 C 
ATOM     14  C   UNL     1      -5.261  -3.431 133.268  0.00  0.00    +0.000 C 
ATOM     15  O   UNL     1      -5.378  -2.394 132.642  0.00  0.00    +0.000 OA
ATOM     16  C   UNL     1      -5.309  -4.815 132.706  0.00  0.00    +0.000 C 
ATOM     17  C   UNL     1      -5.470  -5.184 131.431  0.00  0.00    +0.000 C 
BRANCH  13  18
ATOM     18  C   UNL     1      -4.622  -2.288 135.458  0.00  0.00    +0.000 C 
BRANCH  18  19
ATOM     19  S   UNL     1      -5.872  -1.075 135.937  0.00  0.00    +0.000 S 
ATOM     20  O   UNL     1      -6.821  -1.701 136.827  0.00  0.00    +0.000 OA
ATOM     21  O   UNL     1      -5.181   0.141 136.310  0.00  0.00    +0.000 OA
BRANCH  19  22
ATOM     22  O   UNL     1      -6.623  -0.766 134.546  0.00  0.00    +0.000 OA
ATOM     23  H   UNL     1      -6.520  -1.479 133.867  0.00  0.00    +0.000 HD
ENDBRANCH  19  22
ENDBRANCH  18  19
ENDBRANCH  13  18
ENDBRANCH   1  17
BRANCH   4  24
ATOM     24  C   UNL     1      -6.023  -1.441 127.089  0.00  0.00    +0.000 C 
ATOM     25  C   UNL     1      -6.113  -0.105 127.173  0.00  0.00    +0.000 C 
ATOM     26  C   UNL     1      -6.098   0.863 128.339  0.00  0.00    +0.000 C 
ATOM     27  C   UNL     1      -4.719   1.534 128.294  0.00  0.00    +0.000 C 
ATOM     28  C   UNL     1      -4.872   2.503 127.108  0.00  0.00    +0.000 C 
ATOM     29  C   UNL     1      -6.322   2.256 126.595  0.00  0.00    +0.000 C 
ATOM     30  C   UNL     1      -6.318   0.833 126.018  0.00  0.00    +0.000 C 
ATOM     31  O   UNL     1      -6.503   0.474 124.871  0.00  0.00    +0.000 OA
ATOM     32  C   UNL     1      -7.086   1.952 127.912  0.00  0.00    +0.000 C 
ATOM     33  C   UNL     1      -7.161   3.080 128.955  0.00  0.00    +0.000 C 
ATOM     34  C   UNL     1      -8.520   1.398 127.751  0.00  0.00    +0.000 C 
BRANCH  29  35
ATOM     35  C   UNL     1      -6.947   3.354 125.766  0.00  0.00    +0.000 C 
BRANCH  35  36
ATOM     36  S   UNL     1      -5.898   4.755 125.393  0.00  0.00    +0.000 S 
ATOM     37  O   UNL     1      -5.318   5.333 126.585  0.00  0.00    +0.000 OA
ATOM     38  O   UNL     1      -5.101   4.437 124.237  0.00  0.00    +0.000 OA
BRANCH  36  39
ATOM     39  O   UNL     1      -7.053   5.783 124.926  0.00  0.00    +0.000 OA
ATOM     40  H   UNL     1      -7.912   5.487 125.293  0.00  0.00    +0.000 HD
ENDBRANCH  36  39
ENDBRANCH  35  36
ENDBRANCH  29  35
ENDBRANCH   4  24
TORSDOF 8
ENDMDL
MODEL 5
REMARK VINA RESULT:      -8.2      6.718      9.665
REMARK  Name = Ecamsule
REMARK  12 active torsions:
REMARK  status: ('A' for Active; 'I' for Inactive)
REMARK    1  A    between atoms: C_1  and  C_2
REMARK    2  A    between atoms: C_2  and  C_3
REMARK    3  A    between atoms: C_7  and  C_8
REMARK    4  A    between atoms: C_8  and  S_9
REMARK    5  A    between atoms: S_9  and  O_10
REMARK    6  A    between atoms: C_16  and  C_17
REMARK    7  A    between atoms: C_20  and  C_21
REMARK    8  A    between atoms: C_26  and  C_27
REMARK    9  A    between atoms: C_27  and  S_28
REMARK   10  A    between atoms: S_28  and  O_29
REMARK   11  A    between atoms: C_34  and  C_35
REMARK   12  A    between atoms: C_34  and  C_36
REMARK                            x       y       z     vdW  Elec       q    Type
REMARK                         _______ _______ _______ _____ _____    ______ ____
ROOT
ATOM      1  C   UNL     1      -6.530  -0.768 132.239  0.00  0.00    +0.000 A 
ATOM      2  C   UNL     1      -6.629   0.431 132.953  0.00  0.00    +0.000 A 
ATOM      3  C   UNL     1      -7.682   1.332 132.707  0.00  0.00    +0.000 A 
ATOM      4  C   UNL     1      -8.612   1.071 131.699  0.00  0.00    +0.000 A 
ATOM      5  C   UNL     1      -8.521  -0.173 131.072  0.00  0.00    +0.000 A 
ATOM      6  C   UNL     1      -7.488  -1.059 131.288  0.00  0.00    +0.000 A 
ENDROOT
BRANCH   1  17
ATOM      7  C   UNL     1      -4.128  -5.031 136.111  0.00  0.00    +0.000 C 
ATOM      8  C   UNL     1      -4.877  -3.856 135.456  0.00  0.00    +0.000 C 
ATOM      9  C   UNL     1      -4.478  -2.592 136.243  0.00  0.00    +0.000 C 
ATOM     10  C   UNL     1      -4.641  -3.760 133.920  0.00  0.00    +0.000 C 
ATOM     11  C   UNL     1      -5.251  -5.080 133.405  0.00  0.00    +0.000 C 
ATOM     12  C   UNL     1      -6.460  -5.309 134.350  0.00  0.00    +0.000 C 
ATOM     13  C   UNL     1      -6.414  -4.093 135.311  0.00  0.00    +0.000 C 
ATOM     14  C   UNL     1      -6.757  -2.910 134.434  0.00  0.00    +0.000 C 
ATOM     15  O   UNL     1      -7.810  -2.300 134.447  0.00  0.00    +0.000 OA
ATOM     16  C   UNL     1      -5.615  -2.684 133.496  0.00  0.00    +0.000 C 
ATOM     17  C   UNL     1      -5.515  -1.779 132.518  0.00  0.00    +0.000 C 
BRANCH  13  18
ATOM     18  C   UNL     1      -7.224  -4.190 136.590  0.00  0.00    +0.000 C 
BRANCH  18  19
ATOM     19  S   UNL     1      -8.723  -5.195 136.515  0.00  0.00    +0.000 S 
ATOM     20  O   UNL     1      -8.355  -6.577 136.315  0.00  0.00    +0.000 OA
ATOM     21  O   UNL     1      -9.573  -4.796 137.616  0.00  0.00    +0.000 OA
BRANCH  19  22
ATOM     22  O   UNL     1      -9.438  -4.671 135.170  0.00  0.00    +0.000 OA
ATOM     23  H   UNL     1      -9.904  -5.380 134.661  0.00  0.00    +0.000 HD
ENDBRANCH  19  22
ENDBRANCH  18  19
ENDBRANCH  13  18
ENDBRANCH   1  17
BRANCH   4  24
ATOM     24  C   UNL     1      -9.629   2.067 131.312  0.00  0.00    +0.000 C 
ATOM     25  C   UNL     1      -9.359   3.343 130.998  0.00  0.00    +0.000 C 
ATOM     26  C   UNL     1      -8.077   4.149 130.957  0.00  0.00    +0.000 C 
ATOM     27  C   UNL     1      -7.747   4.316 129.468  0.00  0.00    +0.000 C 
ATOM     28  C   UNL     1      -8.775   5.373 129.028  0.00  0.00    +0.000 C 
ATOM     29  C   UNL     1      -9.593   5.674 130.318  0.00  0.00    +0.000 C 
ATOM     30  C   UNL     1     -10.372   4.386 130.622  0.00  0.00    +0.000 C 
ATOM     31  O   UNL     1     -11.575   4.206 130.633  0.00  0.00    +0.000 OA
ATOM     32  C   UNL     1      -8.514   5.540 131.427  0.00  0.00    +0.000 C 
ATOM     33  C   UNL     1      -7.344   6.537 131.390  0.00  0.00    +0.000 C 
ATOM     34  C   UNL     1      -9.036   5.519 132.881  0.00  0.00    +0.000 C 
BRANCH  29  35
ATOM     35  C   UNL     1     -10.348   6.983 130.356  0.00  0.00    +0.000 C 
BRANCH  35  36
ATOM     36  S   UNL     1     -11.067   7.524 128.809  0.00  0.00    +0.000 S 
ATOM     37  O   UNL     1     -10.131   8.283 128.010  0.00  0.00    +0.000 OA
ATOM     38  O   UNL     1     -11.834   6.439 128.255  0.00  0.00    +0.000 OA
BRANCH  36  39
ATOM     39  O   UNL     1     -12.107   8.604 129.409  0.00  0.00    +0.000 OA
ATOM     40  H   UNL     1     -11.604   9.322 129.850  0.00  0.00    +0.000 HD
ENDBRANCH  36  39
ENDBRANCH  35  36
ENDBRANCH  29  35
ENDBRANCH   4  24
TORSDOF 8
ENDMDL
MODEL 6
REMARK VINA RESULT:      -8.2      4.331     11.794
REMARK  Name = Ecamsule
REMARK  12 active torsions:
REMARK  status: ('A' for Active; 'I' for Inactive)
REMARK    1  A    between atoms: C_1  and  C_2
REMARK    2  A    between atoms: C_2  and  C_3
REMARK    3  A    between atoms: C_7  and  C_8
REMARK    4  A    between atoms: C_8  and  S_9
REMARK    5  A    between atoms: S_9  and  O_10
REMARK    6  A    between atoms: C_16  and  C_17
REMARK    7  A    between atoms: C_20  and  C_21
REMARK    8  A    between atoms: C_26  and  C_27
REMARK    9  A    between atoms: C_27  and  S_28
REMARK   10  A    between atoms: S_28  and  O_29
REMARK   11  A    between atoms: C_34  and  C_35
REMARK   12  A    between atoms: C_34  and  C_36
REMARK                            x       y       z     vdW  Elec       q    Type
REMARK                         _______ _______ _______ _____ _____    ______ ____
ROOT
ATOM      1  C   UNL     1      -3.601   4.519 130.317  0.00  0.00    +0.000 A 
ATOM      2  C   UNL     1      -2.581   5.307 129.774  0.00  0.00    +0.000 A 
ATOM      3  C   UNL     1      -2.288   6.575 130.311  0.00  0.00    +0.000 A 
ATOM      4  C   UNL     1      -3.055   7.094 131.355  0.00  0.00    +0.000 A 
ATOM      5  C   UNL     1      -4.005   6.239 131.916  0.00  0.00    +0.000 A 
ATOM      6  C   UNL     1      -4.317   5.003 131.394  0.00  0.00    +0.000 A 
ENDROOT
BRANCH   1  17
ATOM      7  C   UNL     1      -7.514   0.481 127.611  0.00  0.00    +0.000 C 
ATOM      8  C   UNL     1      -6.848   1.672 128.326  0.00  0.00    +0.000 C 
ATOM      9  C   UNL     1      -7.613   1.868 129.649  0.00  0.00    +0.000 C 
ATOM     10  C   UNL     1      -5.309   1.504 128.490  0.00  0.00    +0.000 C 
ATOM     11  C   UNL     1      -4.818   1.472 127.027  0.00  0.00    +0.000 C 
ATOM     12  C   UNL     1      -5.777   2.456 126.306  0.00  0.00    +0.000 C 
ATOM     13  C   UNL     1      -6.719   2.948 127.434  0.00  0.00    +0.000 C 
ATOM     14  C   UNL     1      -5.829   3.778 128.332  0.00  0.00    +0.000 C 
ATOM     15  O   UNL     1      -5.842   4.992 128.416  0.00  0.00    +0.000 OA
ATOM     16  C   UNL     1      -4.878   2.852 129.021  0.00  0.00    +0.000 C 
ATOM     17  C   UNL     1      -3.886   3.162 129.861  0.00  0.00    +0.000 C 
BRANCH  13  18
ATOM     18  C   UNL     1      -8.008   3.630 127.013  0.00  0.00    +0.000 C 
BRANCH  18  19
ATOM     19  S   UNL     1      -7.928   4.634 125.513  0.00  0.00    +0.000 S 
ATOM     20  O   UNL     1      -6.645   5.294 125.455  0.00  0.00    +0.000 OA
ATOM     21  O   UNL     1      -8.406   3.820 124.416  0.00  0.00    +0.000 OA
BRANCH  19  22
ATOM     22  O   UNL     1      -9.053   5.757 125.774  0.00  0.00    +0.000 OA
ATOM     23  H   UNL     1      -9.744   5.805 125.066  0.00  0.00    +0.000 HD
ENDBRANCH  19  22
ENDBRANCH  18  19
ENDBRANCH  13  18
ENDBRANCH   1  17
BRANCH   4  24
ATOM     24  C   UNL     1      -2.874   8.478 131.832  0.00  0.00    +0.000 C 
ATOM     25  C   UNL     1      -2.081   8.829 132.855  0.00  0.00    +0.000 C 
ATOM     26  C   UNL     1      -1.208   8.037 133.808  0.00  0.00    +0.000 C 
ATOM     27  C   UNL     1       0.234   8.299 133.353  0.00  0.00    +0.000 C 
ATOM     28  C   UNL     1       0.474   9.732 133.857  0.00  0.00    +0.000 C 
ATOM     29  C   UNL     1      -0.874  10.136 134.525  0.00  0.00    +0.000 C 
ATOM     30  C   UNL     1      -1.892  10.224 133.379  0.00  0.00    +0.000 C 
ATOM     31  O   UNL     1      -2.504  11.194 132.975  0.00  0.00    +0.000 OA
ATOM     32  C   UNL     1      -1.351   8.789 135.133  0.00  0.00    +0.000 C 
ATOM     33  C   UNL     1      -0.471   8.164 136.230  0.00  0.00    +0.000 C 
ATOM     34  C   UNL     1      -2.804   8.760 135.659  0.00  0.00    +0.000 C 
BRANCH  29  35
ATOM     35  C   UNL     1      -0.827  11.273 135.519  0.00  0.00    +0.000 C 
BRANCH  35  36
ATOM     36  S   UNL     1       0.317  12.598 135.149  0.00  0.00    +0.000 S 
ATOM     37  O   UNL     1       1.657  12.303 135.603  0.00  0.00    +0.000 OA
ATOM     38  O   UNL     1       0.053  13.072 133.816  0.00  0.00    +0.000 OA
BRANCH  36  39
ATOM     39  O   UNL     1      -0.265  13.694 136.184  0.00  0.00    +0.000 OA
ATOM     40  H   UNL     1      -0.802  14.348 135.689  0.00  0.00    +0.000 HD
ENDBRANCH  36  39
ENDBRANCH  35  36
ENDBRANCH  29  35
ENDBRANCH   4  24
TORSDOF 8
ENDMDL
MODEL 7
REMARK VINA RESULT:      -8.2      5.492     12.221
REMARK  Name = Ecamsule
REMARK  12 active torsions:
REMARK  status: ('A' for Active; 'I' for Inactive)
REMARK    1  A    between atoms: C_1  and  C_2
REMARK    2  A    between atoms: C_2  and  C_3
REMARK    3  A    between atoms: C_7  and  C_8
REMARK    4  A    between atoms: C_8  and  S_9
REMARK    5  A    between atoms: S_9  and  O_10
REMARK    6  A    between atoms: C_16  and  C_17
REMARK    7  A    between atoms: C_20  and  C_21
REMARK    8  A    between atoms: C_26  and  C_27
REMARK    9  A    between atoms: C_27  and  S_28
REMARK   10  A    between atoms: S_28  and  O_29
REMARK   11  A    between atoms: C_34  and  C_35
REMARK   12  A    between atoms: C_34  and  C_36
REMARK                            x       y       z     vdW  Elec       q    Type
REMARK                         _______ _______ _______ _____ _____    ______ ____
ROOT
ATOM      1  C   UNL     1      -4.508   5.807 131.722  0.00  0.00    +0.000 A 
ATOM      2  C   UNL     1      -4.213   6.524 130.557  0.00  0.00    +0.000 A 
ATOM      3  C   UNL     1      -3.514   7.744 130.621  0.00  0.00    +0.000 A 
ATOM      4  C   UNL     1      -3.159   8.290 131.855  0.00  0.00    +0.000 A 
ATOM      5  C   UNL     1      -3.401   7.501 132.980  0.00  0.00    +0.000 A 
ATOM      6  C   UNL     1      -4.098   6.313 132.939  0.00  0.00    +0.000 A 
ENDROOT
BRANCH   1  17
ATOM      7  C   UNL     1      -9.596   2.310 132.629  0.00  0.00    +0.000 C 
ATOM      8  C   UNL     1      -8.517   3.408 132.613  0.00  0.00    +0.000 C 
ATOM      9  C   UNL     1      -8.210   3.739 134.086  0.00  0.00    +0.000 C 
ATOM     10  C   UNL     1      -7.268   3.027 131.765  0.00  0.00    +0.000 C 
ATOM     11  C   UNL     1      -7.856   2.895 130.344  0.00  0.00    +0.000 C 
ATOM     12  C   UNL     1      -8.956   3.990 130.308  0.00  0.00    +0.000 C 
ATOM     13  C   UNL     1      -8.882   4.634 131.716  0.00  0.00    +0.000 C 
ATOM     14  C   UNL     1      -7.548   5.348 131.732  0.00  0.00    +0.000 C 
ATOM     15  O   UNL     1      -7.389   6.553 131.673  0.00  0.00    +0.000 OA
ATOM     16  C   UNL     1      -6.471   4.312 131.742  0.00  0.00    +0.000 C 
ATOM     17  C   UNL     1      -5.148   4.495 131.707  0.00  0.00    +0.000 C 
BRANCH  13  18
ATOM     18  C   UNL     1     -10.061   5.484 132.152  0.00  0.00    +0.000 C 
BRANCH  18  19
ATOM     19  S   UNL     1     -11.124   6.113 130.835  0.00  0.00    +0.000 S 
ATOM     20  O   UNL     1     -10.477   7.240 130.204  0.00  0.00    +0.000 OA
ATOM     21  O   UNL     1     -11.582   4.979 130.061  0.00  0.00    +0.000 OA
BRANCH  19  22
ATOM     22  O   UNL     1     -12.405   6.664 131.641  0.00  0.00    +0.000 OA
ATOM     23  H   UNL     1     -12.577   7.630 131.510  0.00  0.00    +0.000 HD
ENDBRANCH  19  22
ENDBRANCH  18  19
ENDBRANCH  13  18
ENDBRANCH   1  17
BRANCH   4  24
ATOM     24  C   UNL     1      -2.568   9.638 131.961  0.00  0.00    +0.000 C 
ATOM     25  C   UNL     1      -1.707  10.013 132.919  0.00  0.00    +0.000 C 
ATOM     26  C   UNL     1      -1.115   9.299 134.117  0.00  0.00    +0.000 C 
ATOM     27  C   UNL     1       0.340   8.994 133.732  0.00  0.00    +0.000 C 
ATOM     28  C   UNL     1       1.002  10.377 133.857  0.00  0.00    +0.000 C 
ATOM     29  C   UNL     1      -0.161  11.323 134.279  0.00  0.00    +0.000 C 
ATOM     30  C   UNL     1      -1.105  11.381 133.069  0.00  0.00    +0.000 C 
ATOM     31  O   UNL     1      -1.394  12.335 132.372  0.00  0.00    +0.000 OA
ATOM     32  C   UNL     1      -1.023  10.398 135.179  0.00  0.00    +0.000 C 
ATOM     33  C   UNL     1      -0.374   9.875 136.472  0.00  0.00    +0.000 C 
ATOM     34  C   UNL     1      -2.417  10.939 135.569  0.00  0.00    +0.000 C 
BRANCH  29  35
ATOM     35  C   UNL     1       0.227  12.627 134.937  0.00  0.00    +0.000 C 
BRANCH  35  36
ATOM     36  S   UNL     1       1.791  13.333 134.428  0.00  0.00    +0.000 S 
ATOM     37  O   UNL     1       2.910  12.728 135.115  0.00  0.00    +0.000 OA
ATOM     38  O   UNL     1       1.776  13.498 132.998  0.00  0.00    +0.000 OA
BRANCH  36  39
ATOM     39  O   UNL     1       1.606  14.793 135.093  0.00  0.00    +0.000 OA
ATOM     40  H   UNL     1       1.773  14.729 136.057  0.00  0.00    +0.000 HD
ENDBRANCH  36  39
ENDBRANCH  35  36
ENDBRANCH  29  35
ENDBRANCH   4  24
TORSDOF 8
ENDMDL
MODEL 8
REMARK VINA RESULT:      -8.1      1.587      2.065
REMARK  Name = Ecamsule
REMARK  12 active torsions:
REMARK  status: ('A' for Active; 'I' for Inactive)
REMARK    1  A    between atoms: C_1  and  C_2
REMARK    2  A    between atoms: C_2  and  C_3
REMARK    3  A    between atoms: C_7  and  C_8
REMARK    4  A    between atoms: C_8  and  S_9
REMARK    5  A    between atoms: S_9  and  O_10
REMARK    6  A    between atoms: C_16  and  C_17
REMARK    7  A    between atoms: C_20  and  C_21
REMARK    8  A    between atoms: C_26  and  C_27
REMARK    9  A    between atoms: C_27  and  S_28
REMARK   10  A    between atoms: S_28  and  O_29
REMARK   11  A    between atoms: C_34  and  C_35
REMARK   12  A    between atoms: C_34  and  C_36
REMARK                            x       y       z     vdW  Elec       q    Type
REMARK                         _______ _______ _______ _____ _____    ______ ____
ROOT
ATOM      1  C   UNL     1      -2.695   5.468 128.151  0.00  0.00    +0.000 A 
ATOM      2  C   UNL     1      -3.915   6.020 127.745  0.00  0.00    +0.000 A 
ATOM      3  C   UNL     1      -4.712   5.376 126.780  0.00  0.00    +0.000 A 
ATOM      4  C   UNL     1      -4.267   4.205 126.165  0.00  0.00    +0.000 A 
ATOM      5  C   UNL     1      -3.086   3.650 126.661  0.00  0.00    +0.000 A 
ATOM      6  C   UNL     1      -2.285   4.274 127.592  0.00  0.00    +0.000 A 
ENDROOT
BRANCH   1  17
ATOM      7  C   UNL     1      -2.058   7.129 134.132  0.00  0.00    +0.000 C 
ATOM      8  C   UNL     1      -2.567   6.727 132.735  0.00  0.00    +0.000 C 
ATOM      9  C   UNL     1      -3.575   7.813 132.310  0.00  0.00    +0.000 C 
ATOM     10  C   UNL     1      -1.418   6.480 131.713  0.00  0.00    +0.000 C 
ATOM     11  C   UNL     1      -0.675   5.276 132.330  0.00  0.00    +0.000 C 
ATOM     12  C   UNL     1      -1.816   4.442 132.973  0.00  0.00    +0.000 C 
ATOM     13  C   UNL     1      -3.095   5.259 132.656  0.00  0.00    +0.000 C 
ATOM     14  C   UNL     1      -3.253   5.142 131.157  0.00  0.00    +0.000 C 
ATOM     15  O   UNL     1      -4.091   4.471 130.584  0.00  0.00    +0.000 OA
ATOM     16  C   UNL     1      -2.149   5.919 130.514  0.00  0.00    +0.000 C 
ATOM     17  C   UNL     1      -1.876   6.044 129.212  0.00  0.00    +0.000 C 
BRANCH  13  18
ATOM     18  C   UNL     1      -4.343   4.929 133.454  0.00  0.00    +0.000 C 
BRANCH  18  19
ATOM     19  S   UNL     1      -4.445   3.256 134.125  0.00  0.00    +0.000 S 
ATOM     20  O   UNL     1      -5.695   3.107 134.833  0.00  0.00    +0.000 OA
ATOM     21  O   UNL     1      -4.063   2.338 133.074  0.00  0.00    +0.000 OA
BRANCH  19  22
ATOM     22  O   UNL     1      -3.254   3.232 135.209  0.00  0.00    +0.000 OA
ATOM     23  H   UNL     1      -2.761   2.374 135.245  0.00  0.00    +0.000 HD
ENDBRANCH  19  22
ENDBRANCH  18  19
ENDBRANCH  13  18
ENDBRANCH   1  17
BRANCH   4  24
ATOM     24  C   UNL     1      -5.003   3.595 125.042  0.00  0.00    +0.000 C 
ATOM     25  C   UNL     1      -6.091   2.823 125.180  0.00  0.00    +0.000 C 
ATOM     26  C   UNL     1      -6.859   2.323 126.387  0.00  0.00    +0.000 C 
ATOM     27  C   UNL     1      -8.150   3.152 126.422  0.00  0.00    +0.000 C 
ATOM     28  C   UNL     1      -8.963   2.527 125.276  0.00  0.00    +0.000 C 
ATOM     29  C   UNL     1      -8.029   1.422 124.700  0.00  0.00    +0.000 C 
ATOM     30  C   UNL     1      -6.850   2.170 124.062  0.00  0.00    +0.000 C 
ATOM     31  O   UNL     1      -6.514   2.208 122.893  0.00  0.00    +0.000 OA
ATOM     32  C   UNL     1      -7.299   0.917 125.974  0.00  0.00    +0.000 C 
ATOM     33  C   UNL     1      -8.164   0.257 127.062  0.00  0.00    +0.000 C 
ATOM     34  C   UNL     1      -6.093  -0.019 125.736  0.00  0.00    +0.000 C 
BRANCH  29  35
ATOM     35  C   UNL     1      -8.689   0.323 123.898  0.00  0.00    +0.000 C 
BRANCH  35  36
ATOM     36  S   UNL     1     -10.004   0.832 122.796  0.00  0.00    +0.000 S 
ATOM     37  O   UNL     1      -9.670   2.037 122.070  0.00  0.00    +0.000 OA
ATOM     38  O   UNL     1     -10.524  -0.334 122.133  0.00  0.00    +0.000 OA
BRANCH  36  39
ATOM     39  O   UNL     1     -11.077   1.280 123.917  0.00  0.00    +0.000 OA
ATOM     40  H   UNL     1     -10.679   1.162 124.806  0.00  0.00    +0.000 HD
ENDBRANCH  36  39
ENDBRANCH  35  36
ENDBRANCH  29  35
ENDBRANCH   4  24
TORSDOF 8
ENDMDL
MODEL 9
REMARK VINA RESULT:      -8.0      5.315     11.821
REMARK  Name = Ecamsule
REMARK  12 active torsions:
REMARK  status: ('A' for Active; 'I' for Inactive)
REMARK    1  A    between atoms: C_1  and  C_2
REMARK    2  A    between atoms: C_2  and  C_3
REMARK    3  A    between atoms: C_7  and  C_8
REMARK    4  A    between atoms: C_8  and  S_9
REMARK    5  A    between atoms: S_9  and  O_10
REMARK    6  A    between atoms: C_16  and  C_17
REMARK    7  A    between atoms: C_20  and  C_21
REMARK    8  A    between atoms: C_26  and  C_27
REMARK    9  A    between atoms: C_27  and  S_28
REMARK   10  A    between atoms: S_28  and  O_29
REMARK   11  A    between atoms: C_34  and  C_35
REMARK   12  A    between atoms: C_34  and  C_36
REMARK                            x       y       z     vdW  Elec       q    Type
REMARK                         _______ _______ _______ _____ _____    ______ ____
ROOT
ATOM      1  C   UNL     1      -3.025   4.344 131.552  0.00  0.00    +0.000 A 
ATOM      2  C   UNL     1      -2.763   5.345 130.611  0.00  0.00    +0.000 A 
ATOM      3  C   UNL     1      -1.837   6.369 130.887  0.00  0.00    +0.000 A 
ATOM      4  C   UNL     1      -1.210   6.436 132.133  0.00  0.00    +0.000 A 
ATOM      5  C   UNL     1      -1.440   5.371 133.005  0.00  0.00    +0.000 A 
ATOM      6  C   UNL     1      -2.356   4.370 132.759  0.00  0.00    +0.000 A 
ENDROOT
BRANCH   1  17
ATOM      7  C   UNL     1      -8.543   1.535 132.326  0.00  0.00    +0.000 C 
ATOM      8  C   UNL     1      -7.281   2.412 132.428  0.00  0.00    +0.000 C 
ATOM      9  C   UNL     1      -6.735   2.224 133.857  0.00  0.00    +0.000 C 
ATOM     10  C   UNL     1      -6.246   2.128 131.300  0.00  0.00    +0.000 C 
ATOM     11  C   UNL     1      -7.021   2.528 130.027  0.00  0.00    +0.000 C 
ATOM     12  C   UNL     1      -7.882   3.732 130.494  0.00  0.00    +0.000 C 
ATOM     13  C   UNL     1      -7.509   3.894 131.991  0.00  0.00    +0.000 C 
ATOM     14  C   UNL     1      -6.071   4.362 131.970  0.00  0.00    +0.000 C 
ATOM     15  O   UNL     1      -5.689   5.489 132.224  0.00  0.00    +0.000 OA
ATOM     16  C   UNL     1      -5.223   3.224 131.499  0.00  0.00    +0.000 C 
ATOM     17  C   UNL     1      -3.904   3.210 131.283  0.00  0.00    +0.000 C 
BRANCH  13  18
ATOM     18  C   UNL     1      -8.437   4.734 132.849  0.00  0.00    +0.000 C 
BRANCH  18  19
ATOM     19  S   UNL     1      -9.504   5.898 131.971  0.00  0.00    +0.000 S 
ATOM     20  O   UNL     1      -8.688   6.930 131.376  0.00  0.00    +0.000 OA
ATOM     21  O   UNL     1     -10.435   5.125 131.177  0.00  0.00    +0.000 OA
BRANCH  19  22
ATOM     22  O   UNL     1     -10.360   6.565 133.161  0.00  0.00    +0.000 OA
ATOM     23  H   UNL     1     -11.240   6.137 133.312  0.00  0.00    +0.000 HD
ENDBRANCH  19  22
ENDBRANCH  18  19
ENDBRANCH  13  18
ENDBRANCH   1  17
BRANCH   4  24
ATOM     24  C   UNL     1      -0.358   7.580 132.507  0.00  0.00    +0.000 C 
ATOM     25  C   UNL     1      -0.670   8.478 133.454  0.00  0.00    +0.000 C 
ATOM     26  C   UNL     1      -1.873   8.653 134.359  0.00  0.00    +0.000 C 
ATOM     27  C   UNL     1      -1.405   8.205 135.750  0.00  0.00    +0.000 C 
ATOM     28  C   UNL     1      -0.530   9.391 136.191  0.00  0.00    +0.000 C 
ATOM     29  C   UNL     1      -0.579  10.375 134.985  0.00  0.00    +0.000 C 
ATOM     30  C   UNL     1       0.163   9.665 133.843  0.00  0.00    +0.000 C 
ATOM     31  O   UNL     1       1.192   9.991 133.284  0.00  0.00    +0.000 OA
ATOM     32  C   UNL     1      -2.026  10.173 134.460  0.00  0.00    +0.000 C 
ATOM     33  C   UNL     1      -3.176  10.559 135.406  0.00  0.00    +0.000 C 
ATOM     34  C   UNL     1      -2.344  10.813 133.090  0.00  0.00    +0.000 C 
BRANCH  29  35
ATOM     35  C   UNL     1      -0.228  11.817 135.269  0.00  0.00    +0.000 C 
BRANCH  35  36
ATOM     36  S   UNL     1       1.055  12.092 136.488  0.00  0.00    +0.000 S 
ATOM     37  O   UNL     1       0.540  12.045 137.838  0.00  0.00    +0.000 OA
ATOM     38  O   UNL     1       2.226  11.355 136.094  0.00  0.00    +0.000 OA
BRANCH  36  39
ATOM     39  O   UNL     1       1.329  13.653 136.178  0.00  0.00    +0.000 OA
ATOM     40  H   UNL     1       2.129  13.941 136.665  0.00  0.00    +0.000 HD
ENDBRANCH  36  39
ENDBRANCH  35  36
ENDBRANCH  29  35
ENDBRANCH   4  24
TORSDOF 8
ENDMDL
