MODEL 1
REMARK VINA RESULT:      -4.5      0.000      0.000
REMARK  Name = Echothiophate
REMARK  13 active torsions:
REMARK  status: ('A' for Active; 'I' for Inactive)
REMARK    1  A    between atoms: C_1  and  C_2
REMARK    2  A    between atoms: C_2  and  O_3
REMARK    3  A    between atoms: O_3  and  P_4
REMARK    4  A    between atoms: P_4  and  O_6
REMARK    5  A    between atoms: P_4  and  S_9
REMARK    6  A    between atoms: O_6  and  C_7
REMARK    7  A    between atoms: C_7  and  C_8
REMARK    8  A    between atoms: S_9  and  C_10
REMARK    9  A    between atoms: C_10  and  C_11
REMARK   10  A    between atoms: C_11  and  N_12
REMARK   11  A    between atoms: N_12  and  C_13
REMARK   12  A    between atoms: N_12  and  C_14
REMARK   13  A    between atoms: N_12  and  C_15
REMARK                            x       y       z     vdW  Elec       q    Type
REMARK                         _______ _______ _______ _____ _____    ______ ____
ROOT
ATOM      1  P   UNL     1     -11.585   7.600 129.402  0.00  0.00    +0.000 P 
ATOM      2  O   UNL     1     -10.116   7.887 129.696  0.00  0.00    +0.000 OA
ENDROOT
BRANCH   1   3
ATOM      3  O   UNL     1     -11.577   8.592 127.985  0.00  0.00    +0.000 OA
BRANCH   3   5
ATOM      4  C   UNL     1     -12.319   7.045 126.296  0.00  0.00    +0.000 C 
ATOM      5  C   UNL     1     -11.159   7.840 126.847  0.00  0.00    +0.000 C 
ENDBRANCH   3   5
ENDBRANCH   1   3
BRANCH   1   6
ATOM      6  O   UNL     1     -12.556   8.757 130.134  0.00  0.00    +0.000 OA
BRANCH   6   7
ATOM      7  C   UNL     1     -13.093   9.838 129.362  0.00  0.00    +0.000 C 
ATOM      8  C   UNL     1     -13.478  11.047 130.178  0.00  0.00    +0.000 C 
ENDBRANCH   6   7
ENDBRANCH   1   6
BRANCH   1   9
ATOM      9  S   UNL     1     -11.596   6.383 131.138  0.00  0.00    +0.000 S 
BRANCH   9  10
ATOM     10  C   UNL     1     -10.770   4.873 130.717  0.00  0.00    +0.000 C 
BRANCH  10  11
ATOM     11  C   UNL     1      -9.655   4.637 131.743  0.00  0.00    +0.000 C 
BRANCH  11  12
ATOM     12  N   UNL     1      -8.254   4.930 131.164  0.00  0.00    +0.000 N 
ATOM     13  C   UNL     1      -8.284   4.898 129.642  0.00  0.00    +0.000 C 
ATOM     14  C   UNL     1      -7.745   6.273 131.670  0.00  0.00    +0.000 C 
ATOM     15  C   UNL     1      -7.295   3.838 131.646  0.00  0.00    +0.000 C 
ENDBRANCH  11  12
ENDBRANCH  10  11
ENDBRANCH   9  10
ENDBRANCH   1   9
TORSDOF 8
ENDMDL
MODEL 2
REMARK VINA RESULT:      -4.4      1.641      3.150
REMARK  Name = Echothiophate
REMARK  13 active torsions:
REMARK  status: ('A' for Active; 'I' for Inactive)
REMARK    1  A    between atoms: C_1  and  C_2
REMARK    2  A    between atoms: C_2  and  O_3
REMARK    3  A    between atoms: O_3  and  P_4
REMARK    4  A    between atoms: P_4  and  O_6
REMARK    5  A    between atoms: P_4  and  S_9
REMARK    6  A    between atoms: O_6  and  C_7
REMARK    7  A    between atoms: C_7  and  C_8
REMARK    8  A    between atoms: S_9  and  C_10
REMARK    9  A    between atoms: C_10  and  C_11
REMARK   10  A    between atoms: C_11  and  N_12
REMARK   11  A    between atoms: N_12  and  C_13
REMARK   12  A    between atoms: N_12  and  C_14
REMARK   13  A    between atoms: N_12  and  C_15
REMARK                            x       y       z     vdW  Elec       q    Type
REMARK                         _______ _______ _______ _____ _____    ______ ____
ROOT
ATOM      1  P   UNL     1     -12.125   7.230 129.848  0.00  0.00    +0.000 P 
ATOM      2  O   UNL     1     -13.121   6.859 130.943  0.00  0.00    +0.000 OA
ENDROOT
BRANCH   1   3
ATOM      3  O   UNL     1     -13.096   8.555 129.305  0.00  0.00    +0.000 OA
BRANCH   3   5
ATOM      4  C   UNL     1     -13.539  10.906 129.582  0.00  0.00    +0.000 C 
ATOM      5  C   UNL     1     -13.027   9.640 130.229  0.00  0.00    +0.000 C 
ENDBRANCH   3   5
ENDBRANCH   1   3
BRANCH   1   6
ATOM      6  O   UNL     1     -12.517   6.437 128.422  0.00  0.00    +0.000 OA
BRANCH   6   7
ATOM      7  C   UNL     1     -12.578   7.162 127.188  0.00  0.00    +0.000 C 
ATOM      8  C   UNL     1     -11.232   7.434 126.564  0.00  0.00    +0.000 C 
ENDBRANCH   6   7
ENDBRANCH   1   6
BRANCH   1   9
ATOM      9  S   UNL     1     -10.936   5.606 130.514  0.00  0.00    +0.000 S 
BRANCH   9  10
ATOM     10  C   UNL     1      -9.526   6.300 131.334  0.00  0.00    +0.000 C 
BRANCH  10  11
ATOM     11  C   UNL     1      -9.619   5.947 132.823  0.00  0.00    +0.000 C 
BRANCH  11  12
ATOM     12  N   UNL     1      -8.503   4.978 133.267  0.00  0.00    +0.000 N 
ATOM     13  C   UNL     1      -7.534   4.715 132.122  0.00  0.00    +0.000 C 
ATOM     14  C   UNL     1      -7.771   5.537 134.480  0.00  0.00    +0.000 C 
ATOM     15  C   UNL     1      -9.147   3.647 133.663  0.00  0.00    +0.000 C 
ENDBRANCH  11  12
ENDBRANCH  10  11
ENDBRANCH   9  10
ENDBRANCH   1   9
TORSDOF 8
ENDMDL
MODEL 3
REMARK VINA RESULT:      -4.3      2.279      2.837
REMARK  Name = Echothiophate
REMARK  13 active torsions:
REMARK  status: ('A' for Active; 'I' for Inactive)
REMARK    1  A    between atoms: C_1  and  C_2
REMARK    2  A    between atoms: C_2  and  O_3
REMARK    3  A    between atoms: O_3  and  P_4
REMARK    4  A    between atoms: P_4  and  O_6
REMARK    5  A    between atoms: P_4  and  S_9
REMARK    6  A    between atoms: O_6  and  C_7
REMARK    7  A    between atoms: C_7  and  C_8
REMARK    8  A    between atoms: S_9  and  C_10
REMARK    9  A    between atoms: C_10  and  C_11
REMARK   10  A    between atoms: C_11  and  N_12
REMARK   11  A    between atoms: N_12  and  C_13
REMARK   12  A    between atoms: N_12  and  C_14
REMARK   13  A    between atoms: N_12  and  C_15
REMARK                            x       y       z     vdW  Elec       q    Type
REMARK                         _______ _______ _______ _____ _____    ______ ____
ROOT
ATOM      1  P   UNL     1      -9.696   6.123 129.794  0.00  0.00    +0.000 P 
ATOM      2  O   UNL     1      -9.113   7.518 129.998  0.00  0.00    +0.000 OA
ENDROOT
BRANCH   1   3
ATOM      3  O   UNL     1      -9.872   6.360 128.089  0.00  0.00    +0.000 OA
BRANCH   3   5
ATOM      4  C   UNL     1     -11.258   7.490 126.476  0.00  0.00    +0.000 C 
ATOM      5  C   UNL     1     -10.575   7.573 127.821  0.00  0.00    +0.000 C 
ENDBRANCH   3   5
ENDBRANCH   1   3
BRANCH   1   6
ATOM      6  O   UNL     1     -11.370   6.175 129.913  0.00  0.00    +0.000 OA
BRANCH   6   7
ATOM      7  C   UNL     1     -11.994   6.401 131.183  0.00  0.00    +0.000 C 
ATOM      8  C   UNL     1     -12.866   7.631 131.231  0.00  0.00    +0.000 C 
ENDBRANCH   6   7
ENDBRANCH   1   6
BRANCH   1   9
ATOM      9  S   UNL     1      -9.480   5.832 131.883  0.00  0.00    +0.000 S 
BRANCH   9  10
ATOM     10  C   UNL     1      -9.135   4.111 132.132  0.00  0.00    +0.000 C 
BRANCH  10  11
ATOM     11  C   UNL     1      -9.599   3.347 130.887  0.00  0.00    +0.000 C 
BRANCH  11  12
ATOM     12  N   UNL     1      -8.550   2.324 130.402  0.00  0.00    +0.000 N 
ATOM     13  C   UNL     1      -8.733   0.989 131.112  0.00  0.00    +0.000 C 
ATOM     14  C   UNL     1      -8.640   2.153 128.891  0.00  0.00    +0.000 C 
ATOM     15  C   UNL     1      -7.158   2.861 130.745  0.00  0.00    +0.000 C 
ENDBRANCH  11  12
ENDBRANCH  10  11
ENDBRANCH   9  10
ENDBRANCH   1   9
TORSDOF 8
ENDMDL
MODEL 4
REMARK VINA RESULT:      -4.3      9.811     11.620
REMARK  Name = Echothiophate
REMARK  13 active torsions:
REMARK  status: ('A' for Active; 'I' for Inactive)
REMARK    1  A    between atoms: C_1  and  C_2
REMARK    2  A    between atoms: C_2  and  O_3
REMARK    3  A    between atoms: O_3  and  P_4
REMARK    4  A    between atoms: P_4  and  O_6
REMARK    5  A    between atoms: P_4  and  S_9
REMARK    6  A    between atoms: O_6  and  C_7
REMARK    7  A    between atoms: C_7  and  C_8
REMARK    8  A    between atoms: S_9  and  C_10
REMARK    9  A    between atoms: C_10  and  C_11
REMARK   10  A    between atoms: C_11  and  N_12
REMARK   11  A    between atoms: N_12  and  C_13
REMARK   12  A    between atoms: N_12  and  C_14
REMARK   13  A    between atoms: N_12  and  C_15
REMARK                            x       y       z     vdW  Elec       q    Type
REMARK                         _______ _______ _______ _____ _____    ______ ____
ROOT
ATOM      1  P   UNL     1      -7.425  -2.504 124.503  0.00  0.00    +0.000 P 
ATOM      2  O   UNL     1      -8.533  -3.005 123.581  0.00  0.00    +0.000 OA
ENDROOT
BRANCH   1   3
ATOM      3  O   UNL     1      -6.406  -3.854 124.141  0.00  0.00    +0.000 OA
BRANCH   3   5
ATOM      4  C   UNL     1      -4.196  -4.595 123.534  0.00  0.00    +0.000 C 
ATOM      5  C   UNL     1      -5.115  -3.411 123.725  0.00  0.00    +0.000 C 
ENDBRANCH   3   5
ENDBRANCH   1   3
BRANCH   1   6
ATOM      6  O   UNL     1      -7.625  -3.145 126.042  0.00  0.00    +0.000 OA
BRANCH   6   7
ATOM      7  C   UNL     1      -8.939  -3.323 126.583  0.00  0.00    +0.000 C 
ATOM      8  C   UNL     1      -8.961  -3.916 127.970  0.00  0.00    +0.000 C 
ENDBRANCH   6   7
ENDBRANCH   1   6
BRANCH   1   9
ATOM      9  S   UNL     1      -8.675  -0.850 124.947  0.00  0.00    +0.000 S 
BRANCH   9  10
ATOM     10  C   UNL     1      -8.643   0.216 123.532  0.00  0.00    +0.000 C 
BRANCH  10  11
ATOM     11  C   UNL     1      -7.224   0.780 123.391  0.00  0.00    +0.000 C 
BRANCH  11  12
ATOM     12  N   UNL     1      -7.160   2.289 123.703  0.00  0.00    +0.000 N 
ATOM     13  C   UNL     1      -8.555   2.848 123.949  0.00  0.00    +0.000 C 
ATOM     14  C   UNL     1      -6.255   2.542 124.903  0.00  0.00    +0.000 C 
ATOM     15  C   UNL     1      -6.564   3.008 122.491  0.00  0.00    +0.000 C 
ENDBRANCH  11  12
ENDBRANCH  10  11
ENDBRANCH   9  10
ENDBRANCH   1   9
TORSDOF 8
ENDMDL
MODEL 5
REMARK VINA RESULT:      -4.3      8.995     10.780
REMARK  Name = Echothiophate
REMARK  13 active torsions:
REMARK  status: ('A' for Active; 'I' for Inactive)
REMARK    1  A    between atoms: C_1  and  C_2
REMARK    2  A    between atoms: C_2  and  O_3
REMARK    3  A    between atoms: O_3  and  P_4
REMARK    4  A    between atoms: P_4  and  O_6
REMARK    5  A    between atoms: P_4  and  S_9
REMARK    6  A    between atoms: O_6  and  C_7
REMARK    7  A    between atoms: C_7  and  C_8
REMARK    8  A    between atoms: S_9  and  C_10
REMARK    9  A    between atoms: C_10  and  C_11
REMARK   10  A    between atoms: C_11  and  N_12
REMARK   11  A    between atoms: N_12  and  C_13
REMARK   12  A    between atoms: N_12  and  C_14
REMARK   13  A    between atoms: N_12  and  C_15
REMARK                            x       y       z     vdW  Elec       q    Type
REMARK                         _______ _______ _______ _____ _____    ______ ____
ROOT
ATOM      1  P   UNL     1      -8.326  -1.674 125.205  0.00  0.00    +0.000 P 
ATOM      2  O   UNL     1      -9.170  -0.681 125.998  0.00  0.00    +0.000 OA
ENDROOT
BRANCH   1   3
ATOM      3  O   UNL     1      -9.709  -2.611 124.755  0.00  0.00    +0.000 OA
BRANCH   3   5
ATOM      4  C   UNL     1      -8.466  -2.418 122.701  0.00  0.00    +0.000 C 
ATOM      5  C   UNL     1      -9.530  -3.178 123.458  0.00  0.00    +0.000 C 
ENDBRANCH   3   5
ENDBRANCH   1   3
BRANCH   1   6
ATOM      6  O   UNL     1      -7.858  -2.949 126.192  0.00  0.00    +0.000 OA
BRANCH   6   7
ATOM      7  C   UNL     1      -8.806  -3.562 127.073  0.00  0.00    +0.000 C 
ATOM      8  C   UNL     1      -8.484  -3.395 128.538  0.00  0.00    +0.000 C 
ENDBRANCH   6   7
ENDBRANCH   1   6
BRANCH   1   9
ATOM      9  S   UNL     1      -6.631  -0.525 125.756  0.00  0.00    +0.000 S 
BRANCH   9  10
ATOM     10  C   UNL     1      -6.866   1.098 125.084  0.00  0.00    +0.000 C 
BRANCH  10  11
ATOM     11  C   UNL     1      -7.400   0.949 123.655  0.00  0.00    +0.000 C 
BRANCH  11  12
ATOM     12  N   UNL     1      -8.582   1.900 123.370  0.00  0.00    +0.000 N 
ATOM     13  C   UNL     1      -8.185   2.961 122.352  0.00  0.00    +0.000 C 
ATOM     14  C   UNL     1      -9.791   1.108 122.886  0.00  0.00    +0.000 C 
ATOM     15  C   UNL     1      -8.960   2.606 124.674  0.00  0.00    +0.000 C 
ENDBRANCH  11  12
ENDBRANCH  10  11
ENDBRANCH   9  10
ENDBRANCH   1   9
TORSDOF 8
ENDMDL
MODEL 6
REMARK VINA RESULT:      -4.3      3.381      5.833
REMARK  Name = Echothiophate
REMARK  13 active torsions:
REMARK  status: ('A' for Active; 'I' for Inactive)
REMARK    1  A    between atoms: C_1  and  C_2
REMARK    2  A    between atoms: C_2  and  O_3
REMARK    3  A    between atoms: O_3  and  P_4
REMARK    4  A    between atoms: P_4  and  O_6
REMARK    5  A    between atoms: P_4  and  S_9
REMARK    6  A    between atoms: O_6  and  C_7
REMARK    7  A    between atoms: C_7  and  C_8
REMARK    8  A    between atoms: S_9  and  C_10
REMARK    9  A    between atoms: C_10  and  C_11
REMARK   10  A    between atoms: C_11  and  N_12
REMARK   11  A    between atoms: N_12  and  C_13
REMARK   12  A    between atoms: N_12  and  C_14
REMARK   13  A    between atoms: N_12  and  C_15
REMARK                            x       y       z     vdW  Elec       q    Type
REMARK                         _______ _______ _______ _____ _____    ______ ____
ROOT
ATOM      1  P   UNL     1      -8.539   4.423 129.098  0.00  0.00    +0.000 P 
ATOM      2  O   UNL     1      -9.068   5.515 128.173  0.00  0.00    +0.000 OA
ENDROOT
BRANCH   1   3
ATOM      3  O   UNL     1      -8.198   3.359 127.777  0.00  0.00    +0.000 OA
BRANCH   3   5
ATOM      4  C   UNL     1      -8.719   1.143 126.993  0.00  0.00    +0.000 C 
ATOM      5  C   UNL     1      -8.338   1.998 128.179  0.00  0.00    +0.000 C 
ENDBRANCH   3   5
ENDBRANCH   1   3
BRANCH   1   6
ATOM      6  O   UNL     1      -9.784   3.384 129.534  0.00  0.00    +0.000 OA
BRANCH   6   7
ATOM      7  C   UNL     1     -10.276   3.376 130.879  0.00  0.00    +0.000 C 
ATOM      8  C   UNL     1      -9.916   2.138 131.661  0.00  0.00    +0.000 C 
ENDBRANCH   6   7
ENDBRANCH   1   6
BRANCH   1   9
ATOM      9  S   UNL     1      -8.956   5.726 130.718  0.00  0.00    +0.000 S 
BRANCH   9  10
ATOM     10  C   UNL     1      -9.595   7.226 130.023  0.00  0.00    +0.000 C 
BRANCH  10  11
ATOM     11  C   UNL     1     -11.119   7.217 130.189  0.00  0.00    +0.000 C 
BRANCH  11  12
ATOM     12  N   UNL     1     -11.838   7.943 129.033  0.00  0.00    +0.000 N 
ATOM     13  C   UNL     1     -12.694   9.085 129.566  0.00  0.00    +0.000 C 
ATOM     14  C   UNL     1     -10.824   8.453 128.017  0.00  0.00    +0.000 C 
ATOM     15  C   UNL     1     -12.760   6.942 128.332  0.00  0.00    +0.000 C 
ENDBRANCH  11  12
ENDBRANCH  10  11
ENDBRANCH   9  10
ENDBRANCH   1   9
TORSDOF 8
ENDMDL
MODEL 7
REMARK VINA RESULT:      -4.3      9.987     11.841
REMARK  Name = Echothiophate
REMARK  13 active torsions:
REMARK  status: ('A' for Active; 'I' for Inactive)
REMARK    1  A    between atoms: C_1  and  C_2
REMARK    2  A    between atoms: C_2  and  O_3
REMARK    3  A    between atoms: O_3  and  P_4
REMARK    4  A    between atoms: P_4  and  O_6
REMARK    5  A    between atoms: P_4  and  S_9
REMARK    6  A    between atoms: O_6  and  C_7
REMARK    7  A    between atoms: C_7  and  C_8
REMARK    8  A    between atoms: S_9  and  C_10
REMARK    9  A    between atoms: C_10  and  C_11
REMARK   10  A    between atoms: C_11  and  N_12
REMARK   11  A    between atoms: N_12  and  C_13
REMARK   12  A    between atoms: N_12  and  C_14
REMARK   13  A    between atoms: N_12  and  C_15
REMARK                            x       y       z     vdW  Elec       q    Type
REMARK                         _______ _______ _______ _____ _____    ______ ____
ROOT
ATOM      1  P   UNL     1      -6.732  -1.970 123.905  0.00  0.00    +0.000 P 
ATOM      2  O   UNL     1      -6.223  -1.896 122.468  0.00  0.00    +0.000 OA
ENDROOT
BRANCH   1   3
ATOM      3  O   UNL     1      -5.313  -2.798 124.447  0.00  0.00    +0.000 OA
BRANCH   3   5
ATOM      4  C   UNL     1      -3.920  -4.544 123.546  0.00  0.00    +0.000 C 
ATOM      5  C   UNL     1      -5.311  -4.148 123.984  0.00  0.00    +0.000 C 
ENDBRANCH   3   5
ENDBRANCH   1   3
BRANCH   1   6
ATOM      6  O   UNL     1      -7.582  -3.399 124.140  0.00  0.00    +0.000 OA
BRANCH   6   7
ATOM      7  C   UNL     1      -8.871  -3.374 124.763  0.00  0.00    +0.000 C 
ATOM      8  C   UNL     1      -8.828  -3.320 126.270  0.00  0.00    +0.000 C 
ENDBRANCH   6   7
ENDBRANCH   1   6
BRANCH   1   9
ATOM      9  S   UNL     1      -8.471  -0.956 123.240  0.00  0.00    +0.000 S 
BRANCH   9  10
ATOM     10  C   UNL     1      -8.474   0.633 124.024  0.00  0.00    +0.000 C 
BRANCH  10  11
ATOM     11  C   UNL     1      -7.236   1.403 123.547  0.00  0.00    +0.000 C 
BRANCH  11  12
ATOM     12  N   UNL     1      -7.530   2.900 123.318  0.00  0.00    +0.000 N 
ATOM     13  C   UNL     1      -8.080   3.540 124.585  0.00  0.00    +0.000 C 
ATOM     14  C   UNL     1      -6.271   3.619 122.848  0.00  0.00    +0.000 C 
ATOM     15  C   UNL     1      -8.591   3.022 122.221  0.00  0.00    +0.000 C 
ENDBRANCH  11  12
ENDBRANCH  10  11
ENDBRANCH   9  10
ENDBRANCH   1   9
TORSDOF 8
ENDMDL
MODEL 8
REMARK VINA RESULT:      -4.2      9.252     11.331
REMARK  Name = Echothiophate
REMARK  13 active torsions:
REMARK  status: ('A' for Active; 'I' for Inactive)
REMARK    1  A    between atoms: C_1  and  C_2
REMARK    2  A    between atoms: C_2  and  O_3
REMARK    3  A    between atoms: O_3  and  P_4
REMARK    4  A    between atoms: P_4  and  O_6
REMARK    5  A    between atoms: P_4  and  S_9
REMARK    6  A    between atoms: O_6  and  C_7
REMARK    7  A    between atoms: C_7  and  C_8
REMARK    8  A    between atoms: S_9  and  C_10
REMARK    9  A    between atoms: C_10  and  C_11
REMARK   10  A    between atoms: C_11  and  N_12
REMARK   11  A    between atoms: N_12  and  C_13
REMARK   12  A    between atoms: N_12  and  C_14
REMARK   13  A    between atoms: N_12  and  C_15
REMARK                            x       y       z     vdW  Elec       q    Type
REMARK                         _______ _______ _______ _____ _____    ______ ____
ROOT
ATOM      1  P   UNL     1      -8.432  -2.545 124.627  0.00  0.00    +0.000 P 
ATOM      2  O   UNL     1      -9.686  -1.887 125.198  0.00  0.00    +0.000 OA
ENDROOT
BRANCH   1   3
ATOM      3  O   UNL     1      -8.397  -3.743 125.875  0.00  0.00    +0.000 OA
BRANCH   3   5
ATOM      4  C   UNL     1      -8.988  -4.096 128.183  0.00  0.00    +0.000 C 
ATOM      5  C   UNL     1      -8.435  -3.128 127.162  0.00  0.00    +0.000 C 
ENDBRANCH   3   5
ENDBRANCH   1   3
BRANCH   1   6
ATOM      6  O   UNL     1      -7.061  -1.869 125.321  0.00  0.00    +0.000 OA
BRANCH   6   7
ATOM      7  C   UNL     1      -5.795  -1.970 124.658  0.00  0.00    +0.000 C 
ATOM      8  C   UNL     1      -5.502  -3.337 124.092  0.00  0.00    +0.000 C 
ENDBRANCH   6   7
ENDBRANCH   1   6
BRANCH   1   9
ATOM      9  S   UNL     1      -8.475  -1.077 123.098  0.00  0.00    +0.000 S 
BRANCH   9  10
ATOM     10  C   UNL     1      -8.565   0.501 123.899  0.00  0.00    +0.000 C 
BRANCH  10  11
ATOM     11  C   UNL     1      -7.321   1.307 123.505  0.00  0.00    +0.000 C 
BRANCH  11  12
ATOM     12  N   UNL     1      -7.629   2.808 123.321  0.00  0.00    +0.000 N 
ATOM     13  C   UNL     1      -6.345   3.598 123.108  0.00  0.00    +0.000 C 
ATOM     14  C   UNL     1      -8.592   3.010 122.158  0.00  0.00    +0.000 C 
ATOM     15  C   UNL     1      -8.301   3.322 124.597  0.00  0.00    +0.000 C 
ENDBRANCH  11  12
ENDBRANCH  10  11
ENDBRANCH   9  10
ENDBRANCH   1   9
TORSDOF 8
ENDMDL
MODEL 9
REMARK VINA RESULT:      -4.2      1.985      3.617
REMARK  Name = Echothiophate
REMARK  13 active torsions:
REMARK  status: ('A' for Active; 'I' for Inactive)
REMARK    1  A    between atoms: C_1  and  C_2
REMARK    2  A    between atoms: C_2  and  O_3
REMARK    3  A    between atoms: O_3  and  P_4
REMARK    4  A    between atoms: P_4  and  O_6
REMARK    5  A    between atoms: P_4  and  S_9
REMARK    6  A    between atoms: O_6  and  C_7
REMARK    7  A    between atoms: C_7  and  C_8
REMARK    8  A    between atoms: S_9  and  C_10
REMARK    9  A    between atoms: C_10  and  C_11
REMARK   10  A    between atoms: C_11  and  N_12
REMARK   11  A    between atoms: N_12  and  C_13
REMARK   12  A    between atoms: N_12  and  C_14
REMARK   13  A    between atoms: N_12  and  C_15
REMARK                            x       y       z     vdW  Elec       q    Type
REMARK                         _______ _______ _______ _____ _____    ______ ____
ROOT
ATOM      1  P   UNL     1     -10.147   6.637 129.332  0.00  0.00    +0.000 P 
ATOM      2  O   UNL     1      -9.476   5.576 128.465  0.00  0.00    +0.000 OA
ENDROOT
BRANCH   1   3
ATOM      3  O   UNL     1      -9.974   7.854 128.115  0.00  0.00    +0.000 OA
BRANCH   3   5
ATOM      4  C   UNL     1     -12.091   8.717 128.874  0.00  0.00    +0.000 C 
ATOM      5  C   UNL     1     -11.253   8.316 127.682  0.00  0.00    +0.000 C 
ENDBRANCH   3   5
ENDBRANCH   1   3
BRANCH   1   6
ATOM      6  O   UNL     1      -8.993   7.459 130.232  0.00  0.00    +0.000 OA
BRANCH   6   7
ATOM      7  C   UNL     1      -8.266   6.779 131.262  0.00  0.00    +0.000 C 
ATOM      8  C   UNL     1      -6.767   6.895 131.140  0.00  0.00    +0.000 C 
ENDBRANCH   6   7
ENDBRANCH   1   6
BRANCH   1   9
ATOM      9  S   UNL     1     -10.359   5.145 130.824  0.00  0.00    +0.000 S 
BRANCH   9  10
ATOM     10  C   UNL     1      -9.626   3.665 130.182  0.00  0.00    +0.000 C 
BRANCH  10  11
ATOM     11  C   UNL     1      -9.772   2.564 131.240  0.00  0.00    +0.000 C 
BRANCH  11  12
ATOM     12  N   UNL     1      -8.454   2.303 131.999  0.00  0.00    +0.000 N 
ATOM     13  C   UNL     1      -8.230   0.809 132.188  0.00  0.00    +0.000 C 
ATOM     14  C   UNL     1      -7.284   2.939 131.259  0.00  0.00    +0.000 C 
ATOM     15  C   UNL     1      -8.558   2.950 133.382  0.00  0.00    +0.000 C 
ENDBRANCH  11  12
ENDBRANCH  10  11
ENDBRANCH   9  10
ENDBRANCH   1   9
TORSDOF 8
ENDMDL
