MODEL 1
REMARK VINA RESULT:      -7.2      0.000      0.000
REMARK  Name = Econazole
REMARK  6 active torsions:
REMARK  status: ('A' for Active; 'I' for Inactive)
REMARK    1  A    between atoms: C_5  and  C_6
REMARK    2  A    between atoms: C_6  and  O_7
REMARK    3  A    between atoms: O_7  and  C_8
REMARK    4  A    between atoms: C_8  and  C_9
REMARK    5  A    between atoms: C_8  and  C_15
REMARK    6  A    between atoms: C_9  and  N_10
REMARK                            x       y       z     vdW  Elec       q    Type
REMARK                         _______ _______ _______ _____ _____    ______ ____
ROOT
ATOM      1  C   UNL     1      -6.329   3.195 124.728  0.00  0.00    +0.000 C 
ENDROOT
BRANCH   1   2
ATOM      2  C   UNL     1      -6.612   3.452 123.226  0.00  0.00    +0.000 A 
ATOM      3  C   UNL     1      -7.858   3.181 122.629  0.00  0.00    +0.000 A 
ATOM      4 CL   UNL     1      -9.150   2.414 123.484  0.00  0.00    +0.000 Cl
ATOM      5  C   UNL     1      -8.099   3.477 121.280  0.00  0.00    +0.000 A 
ATOM      6  C   UNL     1      -7.082   3.988 120.481  0.00  0.00    +0.000 A 
ATOM      7 CL   UNL     1      -7.379   4.315 118.819  0.00  0.00    +0.000 Cl
ATOM      8  C   UNL     1      -5.824   4.216 121.018  0.00  0.00    +0.000 A 
ATOM      9  C   UNL     1      -5.597   3.963 122.376  0.00  0.00    +0.000 A 
ENDBRANCH   1   2
BRANCH   1  10
ATOM     10  O   UNL     1      -5.894   1.818 124.800  0.00  0.00    +0.000 OA
BRANCH  10  11
ATOM     11  C   UNL     1      -6.629   1.035 125.720  0.00  0.00    +0.000 C 
BRANCH  11  16
ATOM     12 CL   UNL     1      -9.759  -3.468 123.315  0.00  0.00    +0.000 Cl
ATOM     13  C   UNL     1      -8.758  -2.276 124.042  0.00  0.00    +0.000 A 
ATOM     14  C   UNL     1      -8.914  -1.969 125.390  0.00  0.00    +0.000 A 
ATOM     15  C   UNL     1      -8.184  -0.917 125.935  0.00  0.00    +0.000 A 
ATOM     16  C   UNL     1      -7.313  -0.160 125.126  0.00  0.00    +0.000 A 
ATOM     17  C   UNL     1      -7.074  -0.563 123.814  0.00  0.00    +0.000 A 
ATOM     18  C   UNL     1      -7.812  -1.607 123.265  0.00  0.00    +0.000 A 
ENDBRANCH  11  16
ENDBRANCH  10  11
ENDBRANCH   1  10
BRANCH   1  19
ATOM     19  C   UNL     1      -5.280   4.239 125.306  0.00  0.00    +0.000 C 
BRANCH  19  20
ATOM     20  N   UNL     1      -4.397   3.853 126.410  0.00  0.00    +0.000 N 
ATOM     21  C   UNL     1      -4.760   3.601 127.707  0.00  0.00    +0.000 A 
ATOM     22  C   UNL     1      -3.650   3.014 128.280  0.00  0.00    +0.000 A 
ATOM     23  N   UNL     1      -2.595   3.029 127.416  0.00  0.00    +0.000 NA
ATOM     24  C   UNL     1      -3.031   3.701 126.362  0.00  0.00    +0.000 A 
ENDBRANCH  19  20
ENDBRANCH   1  19
TORSDOF 6
ENDMDL
MODEL 2
REMARK VINA RESULT:      -7.2      3.810      6.245
REMARK  Name = Econazole
REMARK  6 active torsions:
REMARK  status: ('A' for Active; 'I' for Inactive)
REMARK    1  A    between atoms: C_5  and  C_6
REMARK    2  A    between atoms: C_6  and  O_7
REMARK    3  A    between atoms: O_7  and  C_8
REMARK    4  A    between atoms: C_8  and  C_9
REMARK    5  A    between atoms: C_8  and  C_15
REMARK    6  A    between atoms: C_9  and  N_10
REMARK                            x       y       z     vdW  Elec       q    Type
REMARK                         _______ _______ _______ _____ _____    ______ ____
ROOT
ATOM      1  C   UNL     1      -8.282  -0.242 125.198  0.00  0.00    +0.000 C 
ENDROOT
BRANCH   1   2
ATOM      2  C   UNL     1      -7.362  -1.431 124.823  0.00  0.00    +0.000 A 
ATOM      3  C   UNL     1      -7.819  -2.762 124.776  0.00  0.00    +0.000 A 
ATOM      4 CL   UNL     1      -9.418  -3.212 125.256  0.00  0.00    +0.000 Cl
ATOM      5  C   UNL     1      -6.975  -3.808 124.379  0.00  0.00    +0.000 A 
ATOM      6  C   UNL     1      -5.639  -3.560 124.085  0.00  0.00    +0.000 A 
ATOM      7 CL   UNL     1      -4.603  -4.856 123.634  0.00  0.00    +0.000 Cl
ATOM      8  C   UNL     1      -5.135  -2.270 124.175  0.00  0.00    +0.000 A 
ATOM      9  C   UNL     1      -5.990  -1.219 124.528  0.00  0.00    +0.000 A 
ENDBRANCH   1   2
BRANCH   1  10
ATOM     10  O   UNL     1      -8.658  -0.473 126.575  0.00  0.00    +0.000 OA
BRANCH  10  11
ATOM     11  C   UNL     1      -7.613  -0.238 127.498  0.00  0.00    +0.000 C 
BRANCH  11  16
ATOM     12 CL   UNL     1      -5.531  -4.803 130.766  0.00  0.00    +0.000 Cl
ATOM     13  C   UNL     1      -6.140  -3.588 129.715  0.00  0.00    +0.000 A 
ATOM     14  C   UNL     1      -5.258  -2.820 128.961  0.00  0.00    +0.000 A 
ATOM     15  C   UNL     1      -5.754  -1.758 128.210  0.00  0.00    +0.000 A 
ATOM     16  C   UNL     1      -7.131  -1.455 128.229  0.00  0.00    +0.000 A 
ATOM     17  C   UNL     1      -8.012  -2.311 128.885  0.00  0.00    +0.000 A 
ATOM     18  C   UNL     1      -7.515  -3.365 129.646  0.00  0.00    +0.000 A 
ENDBRANCH  11  16
ENDBRANCH  10  11
ENDBRANCH   1  10
BRANCH   1  19
ATOM     19  C   UNL     1      -7.559   1.151 124.947  0.00  0.00    +0.000 C 
BRANCH  19  20
ATOM     20  N   UNL     1      -7.772   1.869 123.688  0.00  0.00    +0.000 N 
ATOM     21  C   UNL     1      -8.973   2.168 123.101  0.00  0.00    +0.000 A 
ATOM     22  C   UNL     1      -8.667   3.076 122.108  0.00  0.00    +0.000 A 
ATOM     23  N   UNL     1      -7.317   3.228 121.989  0.00  0.00    +0.000 NA
ATOM     24  C   UNL     1      -6.803   2.352 122.840  0.00  0.00    +0.000 A 
ENDBRANCH  19  20
ENDBRANCH   1  19
TORSDOF 6
ENDMDL
MODEL 3
REMARK VINA RESULT:      -7.2      1.855      2.225
REMARK  Name = Econazole
REMARK  6 active torsions:
REMARK  status: ('A' for Active; 'I' for Inactive)
REMARK    1  A    between atoms: C_5  and  C_6
REMARK    2  A    between atoms: C_6  and  O_7
REMARK    3  A    between atoms: O_7  and  C_8
REMARK    4  A    between atoms: C_8  and  C_9
REMARK    5  A    between atoms: C_8  and  C_15
REMARK    6  A    between atoms: C_9  and  N_10
REMARK                            x       y       z     vdW  Elec       q    Type
REMARK                         _______ _______ _______ _____ _____    ______ ____
ROOT
ATOM      1  C   UNL     1      -7.098   2.854 123.898  0.00  0.00    +0.000 C 
ENDROOT
BRANCH   1   2
ATOM      2  C   UNL     1      -6.783   3.464 122.510  0.00  0.00    +0.000 A 
ATOM      3  C   UNL     1      -7.711   3.468 121.451  0.00  0.00    +0.000 A 
ATOM      4 CL   UNL     1      -9.245   2.677 121.559  0.00  0.00    +0.000 Cl
ATOM      5  C   UNL     1      -7.415   4.077 120.225  0.00  0.00    +0.000 A 
ATOM      6  C   UNL     1      -6.161   4.638 120.003  0.00  0.00    +0.000 A 
ATOM      7 CL   UNL     1      -5.796   5.352 118.482  0.00  0.00    +0.000 Cl
ATOM      8  C   UNL     1      -5.199   4.604 121.001  0.00  0.00    +0.000 A 
ATOM      9  C   UNL     1      -5.511   4.035 122.242  0.00  0.00    +0.000 A 
ENDBRANCH   1   2
BRANCH   1  10
ATOM     10  O   UNL     1      -6.397   1.590 123.925  0.00  0.00    +0.000 OA
BRANCH  10  11
ATOM     11  C   UNL     1      -7.179   0.513 124.402  0.00  0.00    +0.000 C 
BRANCH  11  16
ATOM     12 CL   UNL     1      -4.335  -4.681 123.510  0.00  0.00    +0.000 Cl
ATOM     13  C   UNL     1      -5.276  -3.268 123.772  0.00  0.00    +0.000 A 
ATOM     14  C   UNL     1      -5.789  -2.566 122.685  0.00  0.00    +0.000 A 
ATOM     15  C   UNL     1      -6.443  -1.357 122.906  0.00  0.00    +0.000 A 
ATOM     16  C   UNL     1      -6.568  -0.843 124.213  0.00  0.00    +0.000 A 
ATOM     17  C   UNL     1      -6.164  -1.620 125.296  0.00  0.00    +0.000 A 
ATOM     18  C   UNL     1      -5.498  -2.823 125.075  0.00  0.00    +0.000 A 
ENDBRANCH  11  16
ENDBRANCH  10  11
ENDBRANCH   1  10
BRANCH   1  19
ATOM     19  C   UNL     1      -6.692   3.845 125.072  0.00  0.00    +0.000 C 
BRANCH  19  20
ATOM     20  N   UNL     1      -5.582   3.505 125.966  0.00  0.00    +0.000 N 
ATOM     21  C   UNL     1      -5.652   2.794 127.135  0.00  0.00    +0.000 A 
ATOM     22  C   UNL     1      -4.341   2.501 127.452  0.00  0.00    +0.000 A 
ATOM     23  N   UNL     1      -3.484   3.124 126.593  0.00  0.00    +0.000 NA
ATOM     24  C   UNL     1      -4.262   3.862 125.816  0.00  0.00    +0.000 A 
ENDBRANCH  19  20
ENDBRANCH   1  19
TORSDOF 6
ENDMDL
MODEL 4
REMARK VINA RESULT:      -6.9      3.418      7.008
REMARK  Name = Econazole
REMARK  6 active torsions:
REMARK  status: ('A' for Active; 'I' for Inactive)
REMARK    1  A    between atoms: C_5  and  C_6
REMARK    2  A    between atoms: C_6  and  O_7
REMARK    3  A    between atoms: O_7  and  C_8
REMARK    4  A    between atoms: C_8  and  C_9
REMARK    5  A    between atoms: C_8  and  C_15
REMARK    6  A    between atoms: C_9  and  N_10
REMARK                            x       y       z     vdW  Elec       q    Type
REMARK                         _______ _______ _______ _____ _____    ______ ____
ROOT
ATOM      1  C   UNL     1      -6.945   0.185 125.152  0.00  0.00    +0.000 C 
ENDROOT
BRANCH   1   2
ATOM      2  C   UNL     1      -6.213  -1.109 124.718  0.00  0.00    +0.000 A 
ATOM      3  C   UNL     1      -5.675  -2.026 125.641  0.00  0.00    +0.000 A 
ATOM      4 CL   UNL     1      -5.666  -1.731 127.344  0.00  0.00    +0.000 Cl
ATOM      5  C   UNL     1      -5.067  -3.215 125.216  0.00  0.00    +0.000 A 
ATOM      6  C   UNL     1      -4.922  -3.485 123.859  0.00  0.00    +0.000 A 
ATOM      7 CL   UNL     1      -4.143  -4.930 123.349  0.00  0.00    +0.000 Cl
ATOM      8  C   UNL     1      -5.388  -2.580 122.917  0.00  0.00    +0.000 A 
ATOM      9  C   UNL     1      -6.036  -1.414 123.343  0.00  0.00    +0.000 A 
ENDBRANCH   1   2
BRANCH   1  10
ATOM     10  O   UNL     1      -6.328   1.245 124.388  0.00  0.00    +0.000 OA
BRANCH  10  11
ATOM     11  C   UNL     1      -7.161   2.371 124.196  0.00  0.00    +0.000 C 
BRANCH  11  16
ATOM     12 CL   UNL     1      -7.618   4.757 118.723  0.00  0.00    +0.000 Cl
ATOM     13  C   UNL     1      -7.486   3.940 120.228  0.00  0.00    +0.000 A 
ATOM     14  C   UNL     1      -8.636   3.572 120.919  0.00  0.00    +0.000 A 
ATOM     15  C   UNL     1      -8.516   3.023 122.193  0.00  0.00    +0.000 A 
ATOM     16  C   UNL     1      -7.245   2.860 122.782  0.00  0.00    +0.000 A 
ATOM     17  C   UNL     1      -6.103   3.113 122.026  0.00  0.00    +0.000 A 
ATOM     18  C   UNL     1      -6.223   3.673 120.758  0.00  0.00    +0.000 A 
ENDBRANCH  11  16
ENDBRANCH  10  11
ENDBRANCH   1  10
BRANCH   1  19
ATOM     19  C   UNL     1      -8.516   0.061 124.938  0.00  0.00    +0.000 C 
BRANCH  19  20
ATOM     20  N   UNL     1      -9.100  -1.221 124.538  0.00  0.00    +0.000 N 
ATOM     21  C   UNL     1      -9.431  -1.617 123.268  0.00  0.00    +0.000 A 
ATOM     22  C   UNL     1      -9.672  -2.972 123.369  0.00  0.00    +0.000 A 
ATOM     23  N   UNL     1      -9.632  -3.375 124.672  0.00  0.00    +0.000 NA
ATOM     24  C   UNL     1      -9.458  -2.260 125.365  0.00  0.00    +0.000 A 
ENDBRANCH  19  20
ENDBRANCH   1  19
TORSDOF 6
ENDMDL
MODEL 5
REMARK VINA RESULT:      -6.9      3.023      6.202
REMARK  Name = Econazole
REMARK  6 active torsions:
REMARK  status: ('A' for Active; 'I' for Inactive)
REMARK    1  A    between atoms: C_5  and  C_6
REMARK    2  A    between atoms: C_6  and  O_7
REMARK    3  A    between atoms: O_7  and  C_8
REMARK    4  A    between atoms: C_8  and  C_9
REMARK    5  A    between atoms: C_8  and  C_15
REMARK    6  A    between atoms: C_9  and  N_10
REMARK                            x       y       z     vdW  Elec       q    Type
REMARK                         _______ _______ _______ _____ _____    ______ ____
ROOT
ATOM      1  C   UNL     1      -8.020   1.894 125.502  0.00  0.00    +0.000 C 
ENDROOT
BRANCH   1   2
ATOM      2  C   UNL     1      -6.613   2.451 125.836  0.00  0.00    +0.000 A 
ATOM      3  C   UNL     1      -6.333   3.829 125.888  0.00  0.00    +0.000 A 
ATOM      4 CL   UNL     1      -7.500   5.031 125.460  0.00  0.00    +0.000 Cl
ATOM      5  C   UNL     1      -5.063   4.301 126.248  0.00  0.00    +0.000 A 
ATOM      6  C   UNL     1      -4.026   3.408 126.497  0.00  0.00    +0.000 A 
ATOM      7 CL   UNL     1      -2.463   3.998 126.902  0.00  0.00    +0.000 Cl
ATOM      8  C   UNL     1      -4.247   2.042 126.399  0.00  0.00    +0.000 A 
ATOM      9  C   UNL     1      -5.527   1.571 126.084  0.00  0.00    +0.000 A 
ENDBRANCH   1   2
BRANCH   1  10
ATOM     10  O   UNL     1      -7.965   1.538 124.102  0.00  0.00    +0.000 OA
BRANCH  10  11
ATOM     11  C   UNL     1      -8.689   2.414 123.261  0.00  0.00    +0.000 C 
BRANCH  11  16
ATOM     12 CL   UNL     1      -5.641   5.341 119.018  0.00  0.00    +0.000 Cl
ATOM     13  C   UNL     1      -6.490   4.377 120.159  0.00  0.00    +0.000 A 
ATOM     14  C   UNL     1      -7.856   4.164 120.005  0.00  0.00    +0.000 A 
ATOM     15  C   UNL     1      -8.554   3.487 121.002  0.00  0.00    +0.000 A 
ATOM     16  C   UNL     1      -7.886   3.040 122.160  0.00  0.00    +0.000 A 
ATOM     17  C   UNL     1      -6.500   3.148 122.236  0.00  0.00    +0.000 A 
ATOM     18  C   UNL     1      -5.804   3.836 121.247  0.00  0.00    +0.000 A 
ENDBRANCH  11  16
ENDBRANCH  10  11
ENDBRANCH   1  10
BRANCH   1  19
ATOM     19  C   UNL     1      -8.409   0.689 126.463  0.00  0.00    +0.000 C 
BRANCH  19  20
ATOM     20  N   UNL     1      -8.267  -0.692 125.997  0.00  0.00    +0.000 N 
ATOM     21  C   UNL     1      -9.157  -1.402 125.235  0.00  0.00    +0.000 A 
ATOM     22  C   UNL     1      -8.464  -2.524 124.830  0.00  0.00    +0.000 A 
ATOM     23  N   UNL     1      -7.241  -2.581 125.431  0.00  0.00    +0.000 NA
ATOM     24  C   UNL     1      -7.226  -1.551 126.264  0.00  0.00    +0.000 A 
ENDBRANCH  19  20
ENDBRANCH   1  19
TORSDOF 6
ENDMDL
MODEL 6
REMARK VINA RESULT:      -6.7      1.612      2.123
REMARK  Name = Econazole
REMARK  6 active torsions:
REMARK  status: ('A' for Active; 'I' for Inactive)
REMARK    1  A    between atoms: C_5  and  C_6
REMARK    2  A    between atoms: C_6  and  O_7
REMARK    3  A    between atoms: O_7  and  C_8
REMARK    4  A    between atoms: C_8  and  C_9
REMARK    5  A    between atoms: C_8  and  C_15
REMARK    6  A    between atoms: C_9  and  N_10
REMARK                            x       y       z     vdW  Elec       q    Type
REMARK                         _______ _______ _______ _____ _____    ______ ____
ROOT
ATOM      1  C   UNL     1      -6.618   1.315 126.554  0.00  0.00    +0.000 C 
ENDROOT
BRANCH   1   2
ATOM      2  C   UNL     1      -7.204   1.826 125.214  0.00  0.00    +0.000 A 
ATOM      3  C   UNL     1      -8.540   1.598 124.832  0.00  0.00    +0.000 A 
ATOM      4 CL   UNL     1      -9.617   0.616 125.762  0.00  0.00    +0.000 Cl
ATOM      5  C   UNL     1      -9.055   2.121 123.638  0.00  0.00    +0.000 A 
ATOM      6  C   UNL     1      -8.232   2.826 122.767  0.00  0.00    +0.000 A 
ATOM      7 CL   UNL     1      -8.865   3.433 121.288  0.00  0.00    +0.000 Cl
ATOM      8  C   UNL     1      -6.895   3.023 123.080  0.00  0.00    +0.000 A 
ATOM      9  C   UNL     1      -6.393   2.540 124.294  0.00  0.00    +0.000 A 
ENDBRANCH   1   2
BRANCH   1  10
ATOM     10  O   UNL     1      -5.397   0.629 126.197  0.00  0.00    +0.000 OA
BRANCH  10  11
ATOM     11  C   UNL     1      -5.426  -0.761 126.455  0.00  0.00    +0.000 C 
BRANCH  11  16
ATOM     12 CL   UNL     1      -9.765  -3.482 123.352  0.00  0.00    +0.000 Cl
ATOM     13  C   UNL     1      -8.446  -2.828 124.238  0.00  0.00    +0.000 A 
ATOM     14  C   UNL     1      -8.442  -2.899 125.627  0.00  0.00    +0.000 A 
ATOM     15  C   UNL     1      -7.431  -2.257 126.337  0.00  0.00    +0.000 A 
ATOM     16  C   UNL     1      -6.434  -1.530 125.655  0.00  0.00    +0.000 A 
ATOM     17  C   UNL     1      -6.380  -1.580 124.264  0.00  0.00    +0.000 A 
ATOM     18  C   UNL     1      -7.398  -2.210 123.554  0.00  0.00    +0.000 A 
ENDBRANCH  11  16
ENDBRANCH  10  11
ENDBRANCH   1  10
BRANCH   1  19
ATOM     19  C   UNL     1      -6.414   2.505 127.588  0.00  0.00    +0.000 C 
BRANCH  19  20
ATOM     20  N   UNL     1      -5.107   3.158 127.704  0.00  0.00    +0.000 N 
ATOM     21  C   UNL     1      -4.049   2.754 128.474  0.00  0.00    +0.000 A 
ATOM     22  C   UNL     1      -2.981   3.510 128.035  0.00  0.00    +0.000 A 
ATOM     23  N   UNL     1      -3.388   4.444 127.129  0.00  0.00    +0.000 NA
ATOM     24  C   UNL     1      -4.706   4.318 127.085  0.00  0.00    +0.000 A 
ENDBRANCH  19  20
ENDBRANCH   1  19
TORSDOF 6
ENDMDL
MODEL 7
REMARK VINA RESULT:      -6.6      7.798      9.983
REMARK  Name = Econazole
REMARK  6 active torsions:
REMARK  status: ('A' for Active; 'I' for Inactive)
REMARK    1  A    between atoms: C_5  and  C_6
REMARK    2  A    between atoms: C_6  and  O_7
REMARK    3  A    between atoms: O_7  and  C_8
REMARK    4  A    between atoms: C_8  and  C_9
REMARK    5  A    between atoms: C_8  and  C_15
REMARK    6  A    between atoms: C_9  and  N_10
REMARK                            x       y       z     vdW  Elec       q    Type
REMARK                         _______ _______ _______ _____ _____    ______ ____
ROOT
ATOM      1  C   UNL     1      -9.435   6.342 130.715  0.00  0.00    +0.000 C 
ENDROOT
BRANCH   1   2
ATOM      2  C   UNL     1      -7.914   6.061 130.625  0.00  0.00    +0.000 A 
ATOM      3  C   UNL     1      -7.390   4.872 130.082  0.00  0.00    +0.000 A 
ATOM      4 CL   UNL     1      -8.396   3.558 129.582  0.00  0.00    +0.000 Cl
ATOM      5  C   UNL     1      -6.008   4.673 129.964  0.00  0.00    +0.000 A 
ATOM      6  C   UNL     1      -5.116   5.625 130.447  0.00  0.00    +0.000 A 
ATOM      7 CL   UNL     1      -3.422   5.354 130.329  0.00  0.00    +0.000 Cl
ATOM      8  C   UNL     1      -5.593   6.784 131.041  0.00  0.00    +0.000 A 
ATOM      9  C   UNL     1      -6.973   7.003 131.117  0.00  0.00    +0.000 A 
ENDBRANCH   1   2
BRANCH   1  10
ATOM     10  O   UNL     1      -9.690   6.604 132.113  0.00  0.00    +0.000 OA
BRANCH  10  11
ATOM     11  C   UNL     1     -10.020   5.449 132.860  0.00  0.00    +0.000 C 
BRANCH  11  16
ATOM     12 CL   UNL     1      -5.147   2.702 134.997  0.00  0.00    +0.000 Cl
ATOM     13  C   UNL     1      -6.615   3.449 134.507  0.00  0.00    +0.000 A 
ATOM     14  C   UNL     1      -7.547   2.726 133.769  0.00  0.00    +0.000 A 
ATOM     15  C   UNL     1      -8.673   3.379 133.274  0.00  0.00    +0.000 A 
ATOM     16  C   UNL     1      -8.855   4.758 133.502  0.00  0.00    +0.000 A 
ATOM     17  C   UNL     1      -7.980   5.433 134.350  0.00  0.00    +0.000 A 
ATOM     18  C   UNL     1      -6.848   4.785 134.835  0.00  0.00    +0.000 A 
ENDBRANCH  11  16
ENDBRANCH  10  11
ENDBRANCH   1  10
BRANCH   1  19
ATOM     19  C   UNL     1      -9.863   7.525 129.745  0.00  0.00    +0.000 C 
BRANCH  19  20
ATOM     20  N   UNL     1     -11.217   7.560 129.186  0.00  0.00    +0.000 N 
ATOM     21  C   UNL     1     -12.160   6.567 129.247  0.00  0.00    +0.000 A 
ATOM     22  C   UNL     1     -13.334   7.167 128.840  0.00  0.00    +0.000 A 
ATOM     23  N   UNL     1     -13.104   8.440 128.409  0.00  0.00    +0.000 NA
ATOM     24  C   UNL     1     -11.789   8.584 128.468  0.00  0.00    +0.000 A 
ENDBRANCH  19  20
ENDBRANCH   1  19
TORSDOF 6
ENDMDL
MODEL 8
REMARK VINA RESULT:      -6.5      3.772      7.646
REMARK  Name = Econazole
REMARK  6 active torsions:
REMARK  status: ('A' for Active; 'I' for Inactive)
REMARK    1  A    between atoms: C_5  and  C_6
REMARK    2  A    between atoms: C_6  and  O_7
REMARK    3  A    between atoms: O_7  and  C_8
REMARK    4  A    between atoms: C_8  and  C_9
REMARK    5  A    between atoms: C_8  and  C_15
REMARK    6  A    between atoms: C_9  and  N_10
REMARK                            x       y       z     vdW  Elec       q    Type
REMARK                         _______ _______ _______ _____ _____    ______ ____
ROOT
ATOM      1  C   UNL     1      -8.562  -1.632 126.432  0.00  0.00    +0.000 C 
ENDROOT
BRANCH   1   2
ATOM      2  C   UNL     1      -7.656  -2.176 127.565  0.00  0.00    +0.000 A 
ATOM      3  C   UNL     1      -8.009  -3.285 128.356  0.00  0.00    +0.000 A 
ATOM      4 CL   UNL     1      -9.545  -4.068 128.226  0.00  0.00    +0.000 Cl
ATOM      5  C   UNL     1      -7.141  -3.786 129.337  0.00  0.00    +0.000 A 
ATOM      6  C   UNL     1      -5.931  -3.151 129.595  0.00  0.00    +0.000 A 
ATOM      7 CL   UNL     1      -4.890  -3.753 130.824  0.00  0.00    +0.000 Cl
ATOM      8  C   UNL     1      -5.572  -2.020 128.876  0.00  0.00    +0.000 A 
ATOM      9  C   UNL     1      -6.419  -1.548 127.866  0.00  0.00    +0.000 A 
ENDBRANCH   1   2
BRANCH   1  10
ATOM     10  O   UNL     1      -8.042  -0.319 126.127  0.00  0.00    +0.000 OA
BRANCH  10  11
ATOM     11  C   UNL     1      -9.012   0.575 125.617  0.00  0.00    +0.000 C 
BRANCH  11  16
ATOM     12 CL   UNL     1      -6.886   3.757 121.012  0.00  0.00    +0.000 Cl
ATOM     13  C   UNL     1      -7.520   2.973 122.402  0.00  0.00    +0.000 A 
ATOM     14  C   UNL     1      -6.667   2.602 123.438  0.00  0.00    +0.000 A 
ATOM     15  C   UNL     1      -7.174   1.858 124.499  0.00  0.00    +0.000 A 
ATOM     16  C   UNL     1      -8.529   1.469 124.515  0.00  0.00    +0.000 A 
ATOM     17  C   UNL     1      -9.393   1.958 123.538  0.00  0.00    +0.000 A 
ATOM     18  C   UNL     1      -8.885   2.691 122.470  0.00  0.00    +0.000 A 
ENDBRANCH  11  16
ENDBRANCH  10  11
ENDBRANCH   1  10
BRANCH   1  19
ATOM     19  C   UNL     1      -8.592  -2.623 125.189  0.00  0.00    +0.000 C 
BRANCH  19  20
ATOM     20  N   UNL     1      -7.541  -2.550 124.171  0.00  0.00    +0.000 N 
ATOM     21  C   UNL     1      -7.580  -1.851 122.993  0.00  0.00    +0.000 A 
ATOM     22  C   UNL     1      -6.281  -1.864 122.528  0.00  0.00    +0.000 A 
ATOM     23  N   UNL     1      -5.495  -2.658 123.310  0.00  0.00    +0.000 NA
ATOM     24  C   UNL     1      -6.327  -3.195 124.189  0.00  0.00    +0.000 A 
ENDBRANCH  19  20
ENDBRANCH   1  19
TORSDOF 6
ENDMDL
MODEL 9
REMARK VINA RESULT:      -6.5      7.628     10.276
REMARK  Name = Econazole
REMARK  6 active torsions:
REMARK  status: ('A' for Active; 'I' for Inactive)
REMARK    1  A    between atoms: C_5  and  C_6
REMARK    2  A    between atoms: C_6  and  O_7
REMARK    3  A    between atoms: O_7  and  C_8
REMARK    4  A    between atoms: C_8  and  C_9
REMARK    5  A    between atoms: C_8  and  C_15
REMARK    6  A    between atoms: C_9  and  N_10
REMARK                            x       y       z     vdW  Elec       q    Type
REMARK                         _______ _______ _______ _____ _____    ______ ____
ROOT
ATOM      1  C   UNL     1      -9.888   5.064 131.013  0.00  0.00    +0.000 C 
ENDROOT
BRANCH   1   2
ATOM      2  C   UNL     1      -9.399   3.596 131.076  0.00  0.00    +0.000 A 
ATOM      3  C   UNL     1      -9.223   2.904 132.289  0.00  0.00    +0.000 A 
ATOM      4 CL   UNL     1      -9.415   3.666 133.829  0.00  0.00    +0.000 Cl
ATOM      5  C   UNL     1      -8.832   1.558 132.309  0.00  0.00    +0.000 A 
ATOM      6  C   UNL     1      -8.542   0.892 131.123  0.00  0.00    +0.000 A 
ATOM      7 CL   UNL     1      -8.028  -0.748 131.162  0.00  0.00    +0.000 Cl
ATOM      8  C   UNL     1      -8.646   1.557 129.910  0.00  0.00    +0.000 A 
ATOM      9  C   UNL     1      -9.081   2.887 129.888  0.00  0.00    +0.000 A 
ENDBRANCH   1   2
BRANCH   1  10
ATOM     10  O   UNL     1      -8.862   5.775 130.283  0.00  0.00    +0.000 OA
BRANCH  10  11
ATOM     11  C   UNL     1      -8.311   6.868 130.992  0.00  0.00    +0.000 C 
BRANCH  11  16
ATOM     12 CL   UNL     1      -2.773   5.556 132.853  0.00  0.00    +0.000 Cl
ATOM     13  C   UNL     1      -4.353   6.055 132.401  0.00  0.00    +0.000 A 
ATOM     14  C   UNL     1      -5.450   5.645 133.154  0.00  0.00    +0.000 A 
ATOM     15  C   UNL     1      -6.732   5.952 132.707  0.00  0.00    +0.000 A 
ATOM     16  C   UNL     1      -6.916   6.653 131.498  0.00  0.00    +0.000 A 
ATOM     17  C   UNL     1      -5.808   7.165 130.828  0.00  0.00    +0.000 A 
ATOM     18  C   UNL     1      -4.526   6.848 131.267  0.00  0.00    +0.000 A 
ENDBRANCH  11  16
ENDBRANCH  10  11
ENDBRANCH   1  10
BRANCH   1  19
ATOM     19  C   UNL     1     -11.335   5.165 130.361  0.00  0.00    +0.000 C 
BRANCH  19  20
ATOM     20  N   UNL     1     -11.847   6.463 129.915  0.00  0.00    +0.000 N 
ATOM     21  C   UNL     1     -12.643   7.324 130.624  0.00  0.00    +0.000 A 
ATOM     22  C   UNL     1     -12.619   8.502 129.906  0.00  0.00    +0.000 A 
ATOM     23  N   UNL     1     -11.953   8.339 128.728  0.00  0.00    +0.000 NA
ATOM     24  C   UNL     1     -11.653   7.049 128.686  0.00  0.00    +0.000 A 
ENDBRANCH  19  20
ENDBRANCH   1  19
TORSDOF 6
ENDMDL
