MODEL 1
REMARK VINA RESULT:      -6.2      0.000      0.000
REMARK  Name = Edaravone
REMARK  2 active torsions:
REMARK  status: ('A' for Active; 'I' for Inactive)
REMARK    1  A    between atoms: C_1  and  C_2
REMARK    2  A    between atoms: N_4  and  C_8
REMARK                            x       y       z     vdW  Elec       q    Type
REMARK                         _______ _______ _______ _____ _____    ______ ____
ROOT
ATOM      1  C   UNL     1     -13.887  10.827 128.915  0.00  0.00    +0.000 C 
ATOM      2  C   UNL     1     -13.202   9.501 128.966  0.00  0.00    +0.000 C 
ATOM      3  N   UNL     1     -12.381   9.140 129.907  0.00  0.00    +0.000 NA
ATOM      4  N   UNL     1     -11.894   7.906 129.521  0.00  0.00    +0.000 N 
ATOM      5  C   UNL     1     -12.372   7.448 128.290  0.00  0.00    +0.000 C 
ATOM      6  O   UNL     1     -12.088   6.449 127.658  0.00  0.00    +0.000 OA
ATOM      7  C   UNL     1     -13.442   8.442 127.933  0.00  0.00    +0.000 C 
ENDROOT
BRANCH   4   8
ATOM      8  C   UNL     1     -10.915   7.288 130.314  0.00  0.00    +0.000 A 
ATOM      9  C   UNL     1     -11.306   6.498 131.400  0.00  0.00    +0.000 A 
ATOM     10  C   UNL     1     -10.347   5.915 132.232  0.00  0.00    +0.000 A 
ATOM     11  C   UNL     1      -8.991   6.093 131.962  0.00  0.00    +0.000 A 
ATOM     12  C   UNL     1      -8.594   6.866 130.872  0.00  0.00    +0.000 A 
ATOM     13  C   UNL     1      -9.554   7.450 130.038  0.00  0.00    +0.000 A 
ENDBRANCH   4   8
TORSDOF 1
ENDMDL
MODEL 2
REMARK VINA RESULT:      -6.1      1.916      2.665
REMARK  Name = Edaravone
REMARK  2 active torsions:
REMARK  status: ('A' for Active; 'I' for Inactive)
REMARK    1  A    between atoms: C_1  and  C_2
REMARK    2  A    between atoms: N_4  and  C_8
REMARK                            x       y       z     vdW  Elec       q    Type
REMARK                         _______ _______ _______ _____ _____    ______ ____
ROOT
ATOM      1  C   UNL     1     -12.626   6.950 126.639  0.00  0.00    +0.000 C 
ATOM      2  C   UNL     1     -12.334   7.037 128.101  0.00  0.00    +0.000 C 
ATOM      3  N   UNL     1     -11.161   6.836 128.623  0.00  0.00    +0.000 NA
ATOM      4  N   UNL     1     -11.347   6.902 129.990  0.00  0.00    +0.000 N 
ATOM      5  C   UNL     1     -12.669   7.121 130.390  0.00  0.00    +0.000 C 
ATOM      6  O   UNL     1     -13.157   7.165 131.502  0.00  0.00    +0.000 OA
ATOM      7  C   UNL     1     -13.386   7.411 129.101  0.00  0.00    +0.000 C 
ENDROOT
BRANCH   4   8
ATOM      8  C   UNL     1     -10.256   6.646 130.834  0.00  0.00    +0.000 A 
ATOM      9  C   UNL     1      -8.977   7.065 130.453  0.00  0.00    +0.000 A 
ATOM     10  C   UNL     1      -7.870   6.776 131.253  0.00  0.00    +0.000 A 
ATOM     11  C   UNL     1      -8.041   6.094 132.457  0.00  0.00    +0.000 A 
ATOM     12  C   UNL     1      -9.315   5.688 132.852  0.00  0.00    +0.000 A 
ATOM     13  C   UNL     1     -10.424   5.976 132.050  0.00  0.00    +0.000 A 
ENDBRANCH   4   8
TORSDOF 1
ENDMDL
MODEL 3
REMARK VINA RESULT:      -5.9      2.103      4.846
REMARK  Name = Edaravone
REMARK  2 active torsions:
REMARK  status: ('A' for Active; 'I' for Inactive)
REMARK    1  A    between atoms: C_1  and  C_2
REMARK    2  A    between atoms: N_4  and  C_8
REMARK                            x       y       z     vdW  Elec       q    Type
REMARK                         _______ _______ _______ _____ _____    ______ ____
ROOT
ATOM      1  C   UNL     1      -8.284   5.574 133.758  0.00  0.00    +0.000 C 
ATOM      2  C   UNL     1      -9.100   5.544 132.508  0.00  0.00    +0.000 C 
ATOM      3  N   UNL     1      -9.502   6.604 131.873  0.00  0.00    +0.000 NA
ATOM      4  N   UNL     1     -10.307   6.142 130.851  0.00  0.00    +0.000 N 
ATOM      5  C   UNL     1     -10.472   4.754 130.818  0.00  0.00    +0.000 C 
ATOM      6  O   UNL     1     -11.158   4.061 130.093  0.00  0.00    +0.000 OA
ATOM      7  C   UNL     1      -9.496   4.257 131.848  0.00  0.00    +0.000 C 
ENDROOT
BRANCH   4   8
ATOM      8  C   UNL     1     -10.956   7.075 130.027  0.00  0.00    +0.000 A 
ATOM      9  C   UNL     1     -12.205   7.577 130.407  0.00  0.00    +0.000 A 
ATOM     10  C   UNL     1     -12.891   8.467 129.578  0.00  0.00    +0.000 A 
ATOM     11  C   UNL     1     -12.317   8.886 128.379  0.00  0.00    +0.000 A 
ATOM     12  C   UNL     1     -11.065   8.401 128.001  0.00  0.00    +0.000 A 
ATOM     13  C   UNL     1     -10.377   7.509 128.831  0.00  0.00    +0.000 A 
ENDBRANCH   4   8
TORSDOF 1
ENDMDL
MODEL 4
REMARK VINA RESULT:      -5.8      9.977     10.701
REMARK  Name = Edaravone
REMARK  2 active torsions:
REMARK  status: ('A' for Active; 'I' for Inactive)
REMARK    1  A    between atoms: C_1  and  C_2
REMARK    2  A    between atoms: N_4  and  C_8
REMARK                            x       y       z     vdW  Elec       q    Type
REMARK                         _______ _______ _______ _____ _____    ______ ____
ROOT
ATOM      1  C   UNL     1      -6.677   3.128 122.794  0.00  0.00    +0.000 C 
ATOM      2  C   UNL     1      -7.734   2.103 123.043  0.00  0.00    +0.000 C 
ATOM      3  N   UNL     1      -7.535   0.995 123.693  0.00  0.00    +0.000 NA
ATOM      4  N   UNL     1      -8.722   0.294 123.603  0.00  0.00    +0.000 N 
ATOM      5  C   UNL     1      -9.720   0.929 122.857  0.00  0.00    +0.000 C 
ATOM      6  O   UNL     1     -10.832   0.548 122.546  0.00  0.00    +0.000 OA
ATOM      7  C   UNL     1      -9.150   2.294 122.590  0.00  0.00    +0.000 C 
ENDROOT
BRANCH   4   8
ATOM      8  C   UNL     1      -8.790  -0.995 124.153  0.00  0.00    +0.000 A 
ATOM      9  C   UNL     1      -8.708  -2.109 123.311  0.00  0.00    +0.000 A 
ATOM     10  C   UNL     1      -8.825  -3.399 123.831  0.00  0.00    +0.000 A 
ATOM     11  C   UNL     1      -8.991  -3.584 125.203  0.00  0.00    +0.000 A 
ATOM     12  C   UNL     1      -9.058  -2.479 126.051  0.00  0.00    +0.000 A 
ATOM     13  C   UNL     1      -8.942  -1.186 125.530  0.00  0.00    +0.000 A 
ENDBRANCH   4   8
TORSDOF 1
ENDMDL
MODEL 5
REMARK VINA RESULT:      -5.8      2.627      5.267
REMARK  Name = Edaravone
REMARK  2 active torsions:
REMARK  status: ('A' for Active; 'I' for Inactive)
REMARK    1  A    between atoms: C_1  and  C_2
REMARK    2  A    between atoms: N_4  and  C_8
REMARK                            x       y       z     vdW  Elec       q    Type
REMARK                         _______ _______ _______ _____ _____    ______ ____
ROOT
ATOM      1  C   UNL     1      -8.744   2.413 130.171  0.00  0.00    +0.000 C 
ATOM      2  C   UNL     1      -9.455   3.682 130.509  0.00  0.00    +0.000 C 
ATOM      3  N   UNL     1     -10.098   4.410 129.646  0.00  0.00    +0.000 NA
ATOM      4  N   UNL     1     -10.507   5.533 130.338  0.00  0.00    +0.000 N 
ATOM      5  C   UNL     1     -10.106   5.573 131.677  0.00  0.00    +0.000 C 
ATOM      6  O   UNL     1     -10.251   6.440 132.516  0.00  0.00    +0.000 OA
ATOM      7  C   UNL     1      -9.519   4.209 131.912  0.00  0.00    +0.000 C 
ENDROOT
BRANCH   4   8
ATOM      8  C   UNL     1     -11.171   6.554 129.640  0.00  0.00    +0.000 A 
ATOM      9  C   UNL     1     -12.559   6.490 129.485  0.00  0.00    +0.000 A 
ATOM     10  C   UNL     1     -13.234   7.468 128.751  0.00  0.00    +0.000 A 
ATOM     11  C   UNL     1     -12.527   8.533 128.195  0.00  0.00    +0.000 A 
ATOM     12  C   UNL     1     -11.145   8.611 128.359  0.00  0.00    +0.000 A 
ATOM     13  C   UNL     1     -10.468   7.632 129.094  0.00  0.00    +0.000 A 
ENDBRANCH   4   8
TORSDOF 1
ENDMDL
MODEL 6
REMARK VINA RESULT:      -5.7      2.309      5.117
REMARK  Name = Edaravone
REMARK  2 active torsions:
REMARK  status: ('A' for Active; 'I' for Inactive)
REMARK    1  A    between atoms: C_1  and  C_2
REMARK    2  A    between atoms: N_4  and  C_8
REMARK                            x       y       z     vdW  Elec       q    Type
REMARK                         _______ _______ _______ _____ _____    ______ ____
ROOT
ATOM      1  C   UNL     1      -5.946   6.480 131.544  0.00  0.00    +0.000 C 
ATOM      2  C   UNL     1      -7.249   6.218 130.863  0.00  0.00    +0.000 C 
ATOM      3  N   UNL     1      -8.163   7.121 130.666  0.00  0.00    +0.000 NA
ATOM      4  N   UNL     1      -9.236   6.449 130.113  0.00  0.00    +0.000 N 
ATOM      5  C   UNL     1      -9.049   5.071 129.966  0.00  0.00    +0.000 C 
ATOM      6  O   UNL     1      -9.815   4.210 129.579  0.00  0.00    +0.000 OA
ATOM      7  C   UNL     1      -7.598   4.872 130.304  0.00  0.00    +0.000 C 
ENDROOT
BRANCH   4   8
ATOM      8  C   UNL     1     -10.418   7.158 129.856  0.00  0.00    +0.000 A 
ATOM      9  C   UNL     1     -10.491   7.992 128.735  0.00  0.00    +0.000 A 
ATOM     10  C   UNL     1     -11.640   8.746 128.488  0.00  0.00    +0.000 A 
ATOM     11  C   UNL     1     -12.737   8.645 129.344  0.00  0.00    +0.000 A 
ATOM     12  C   UNL     1     -12.677   7.804 130.454  0.00  0.00    +0.000 A 
ATOM     13  C   UNL     1     -11.526   7.048 130.702  0.00  0.00    +0.000 A 
ENDBRANCH   4   8
TORSDOF 1
ENDMDL
MODEL 7
REMARK VINA RESULT:      -5.7      1.497      2.026
REMARK  Name = Edaravone
REMARK  2 active torsions:
REMARK  status: ('A' for Active; 'I' for Inactive)
REMARK    1  A    between atoms: C_1  and  C_2
REMARK    2  A    between atoms: N_4  and  C_8
REMARK                            x       y       z     vdW  Elec       q    Type
REMARK                         _______ _______ _______ _____ _____    ______ ____
ROOT
ATOM      1  C   UNL     1     -13.117   9.667 129.103  0.00  0.00    +0.000 C 
ATOM      2  C   UNL     1     -12.112   8.580 128.906  0.00  0.00    +0.000 C 
ATOM      3  N   UNL     1     -11.493   7.975 129.876  0.00  0.00    +0.000 NA
ATOM      4  N   UNL     1     -10.586   7.130 129.267  0.00  0.00    +0.000 N 
ATOM      5  C   UNL     1     -10.576   7.191 127.870  0.00  0.00    +0.000 C 
ATOM      6  O   UNL     1      -9.862   6.630 127.063  0.00  0.00    +0.000 OA
ATOM      7  C   UNL     1     -11.760   8.060 127.545  0.00  0.00    +0.000 C 
ENDROOT
BRANCH   4   8
ATOM      8  C   UNL     1      -9.707   6.388 130.071  0.00  0.00    +0.000 A 
ATOM      9  C   UNL     1      -8.678   7.044 130.753  0.00  0.00    +0.000 A 
ATOM     10  C   UNL     1      -7.762   6.319 131.518  0.00  0.00    +0.000 A 
ATOM     11  C   UNL     1      -7.890   4.936 131.632  0.00  0.00    +0.000 A 
ATOM     12  C   UNL     1      -8.924   4.277 130.968  0.00  0.00    +0.000 A 
ATOM     13  C   UNL     1      -9.841   5.002 130.201  0.00  0.00    +0.000 A 
ENDBRANCH   4   8
TORSDOF 1
ENDMDL
MODEL 8
REMARK VINA RESULT:      -5.5      2.411      3.366
REMARK  Name = Edaravone
REMARK  2 active torsions:
REMARK  status: ('A' for Active; 'I' for Inactive)
REMARK    1  A    between atoms: C_1  and  C_2
REMARK    2  A    between atoms: N_4  and  C_8
REMARK                            x       y       z     vdW  Elec       q    Type
REMARK                         _______ _______ _______ _____ _____    ______ ____
ROOT
ATOM      1  C   UNL     1     -13.173   7.157 128.236  0.00  0.00    +0.000 C 
ATOM      2  C   UNL     1     -11.912   6.785 128.943  0.00  0.00    +0.000 C 
ATOM      3  N   UNL     1     -11.775   5.721 129.676  0.00  0.00    +0.000 NA
ATOM      4  N   UNL     1     -10.511   5.810 130.226  0.00  0.00    +0.000 N 
ATOM      5  C   UNL     1      -9.803   6.965 129.881  0.00  0.00    +0.000 C 
ATOM      6  O   UNL     1      -8.713   7.359 130.248  0.00  0.00    +0.000 OA
ATOM      7  C   UNL     1     -10.664   7.607 128.828  0.00  0.00    +0.000 C 
ENDROOT
BRANCH   4   8
ATOM      8  C   UNL     1     -10.099   4.825 131.138  0.00  0.00    +0.000 A 
ATOM      9  C   UNL     1     -10.117   3.481 130.753  0.00  0.00    +0.000 A 
ATOM     10  C   UNL     1      -9.760   2.481 131.661  0.00  0.00    +0.000 A 
ATOM     11  C   UNL     1      -9.351   2.823 132.949  0.00  0.00    +0.000 A 
ATOM     12  C   UNL     1      -9.315   4.163 133.333  0.00  0.00    +0.000 A 
ATOM     13  C   UNL     1      -9.673   5.165 132.425  0.00  0.00    +0.000 A 
ENDBRANCH   4   8
TORSDOF 1
ENDMDL
MODEL 9
REMARK VINA RESULT:      -5.5     10.540     11.523
REMARK  Name = Edaravone
REMARK  2 active torsions:
REMARK  status: ('A' for Active; 'I' for Inactive)
REMARK    1  A    between atoms: C_1  and  C_2
REMARK    2  A    between atoms: N_4  and  C_8
REMARK                            x       y       z     vdW  Elec       q    Type
REMARK                         _______ _______ _______ _____ _____    ______ ____
ROOT
ATOM      1  C   UNL     1      -5.958  -2.098 122.280  0.00  0.00    +0.000 C 
ATOM      2  C   UNL     1      -6.841  -1.781 123.442  0.00  0.00    +0.000 C 
ATOM      3  N   UNL     1      -6.758  -2.364 124.601  0.00  0.00    +0.000 NA
ATOM      4  N   UNL     1      -7.810  -1.864 125.344  0.00  0.00    +0.000 N 
ATOM      5  C   UNL     1      -8.626  -0.955 124.664  0.00  0.00    +0.000 C 
ATOM      6  O   UNL     1      -9.648  -0.399 125.016  0.00  0.00    +0.000 OA
ATOM      7  C   UNL     1      -7.889  -0.711 123.377  0.00  0.00    +0.000 C 
ENDROOT
BRANCH   4   8
ATOM      8  C   UNL     1      -8.028  -2.372 126.634  0.00  0.00    +0.000 A 
ATOM      9  C   UNL     1      -8.783  -3.538 126.796  0.00  0.00    +0.000 A 
ATOM     10  C   UNL     1      -9.055  -4.032 128.074  0.00  0.00    +0.000 A 
ATOM     11  C   UNL     1      -8.545  -3.380 129.196  0.00  0.00    +0.000 A 
ATOM     12  C   UNL     1      -7.779  -2.226 129.040  0.00  0.00    +0.000 A 
ATOM     13  C   UNL     1      -7.506  -1.730 127.761  0.00  0.00    +0.000 A 
ENDBRANCH   4   8
TORSDOF 1
ENDMDL
