MODEL 1
REMARK VINA RESULT:      -5.6      0.000      0.000
REMARK  Name = Edetic acid
REMARK  15 active torsions:
REMARK  status: ('A' for Active; 'I' for Inactive)
REMARK    1  A    between atoms: O_1  and  C_2
REMARK    2  A    between atoms: C_2  and  C_4
REMARK    3  A    between atoms: C_4  and  N_5
REMARK    4  A    between atoms: N_5  and  C_6
REMARK    5  A    between atoms: N_5  and  C_17
REMARK    6  A    between atoms: C_6  and  C_7
REMARK    7  A    between atoms: C_7  and  N_8
REMARK    8  A    between atoms: N_8  and  C_9
REMARK    9  A    between atoms: N_8  and  C_13
REMARK   10  A    between atoms: C_9  and  C_10
REMARK   11  A    between atoms: C_10  and  O_11
REMARK   12  A    between atoms: C_13  and  C_14
REMARK   13  A    between atoms: C_14  and  O_15
REMARK   14  A    between atoms: C_17  and  C_18
REMARK   15  A    between atoms: C_18  and  O_19
REMARK                            x       y       z     vdW  Elec       q    Type
REMARK                         _______ _______ _______ _____ _____    ______ ____
ROOT
ATOM      1  C   UNL     1      -9.624   6.915 129.513  0.00  0.00    +0.000 C 
ENDROOT
BRANCH   1   2
ATOM      2  N   UNL     1     -10.809   7.750 129.316  0.00  0.00    +0.000 NA
BRANCH   2   3
ATOM      3  C   UNL     1     -12.011   6.882 129.585  0.00  0.00    +0.000 C 
BRANCH   3   4
ATOM      4  C   UNL     1     -12.515   7.041 131.044  0.00  0.00    +0.000 C 
ATOM      5  O   UNL     1     -13.127   8.011 131.475  0.00  0.00    +0.000 OA
BRANCH   4   6
ATOM      6  O   UNL     1     -12.168   6.039 131.881  0.00  0.00    +0.000 OA
ATOM      7  H   UNL     1     -12.318   6.196 132.829  0.00  0.00    +0.000 HD
ENDBRANCH   4   6
ENDBRANCH   3   4
ENDBRANCH   2   3
BRANCH   2   8
ATOM      8  C   UNL     1     -10.778   8.200 127.873  0.00  0.00    +0.000 C 
BRANCH   8   9
ATOM      9  C   UNL     1     -10.799   7.089 126.789  0.00  0.00    +0.000 C 
ATOM     10  O   UNL     1      -9.779   6.483 126.477  0.00  0.00    +0.000 OA
BRANCH   9  11
ATOM     11  O   UNL     1     -11.976   6.786 126.202  0.00  0.00    +0.000 OA
ATOM     12  H   UNL     1     -11.967   6.784 125.228  0.00  0.00    +0.000 HD
ENDBRANCH   9  11
ENDBRANCH   8   9
ENDBRANCH   2   8
ENDBRANCH   1   2
BRANCH   1  13
ATOM     13  C   UNL     1      -8.987   6.759 130.894  0.00  0.00    +0.000 C 
BRANCH  13  14
ATOM     14  N   UNL     1      -9.326   5.495 131.625  0.00  0.00    +0.000 NA
BRANCH  14  15
ATOM     15  C   UNL     1      -8.748   4.323 130.876  0.00  0.00    +0.000 C 
BRANCH  15  16
ATOM     16  C   UNL     1      -9.815   3.417 130.241  0.00  0.00    +0.000 C 
ATOM     17  O   UNL     1      -9.613   2.740 129.262  0.00  0.00    +0.000 OA
BRANCH  16  18
ATOM     18  O   UNL     1     -11.015   3.427 130.890  0.00  0.00    +0.000 OA
ATOM     19  H   UNL     1     -11.655   2.833 130.447  0.00  0.00    +0.000 HD
ENDBRANCH  16  18
ENDBRANCH  15  16
ENDBRANCH  14  15
BRANCH  14  20
ATOM     20  C   UNL     1      -8.565   5.685 132.929  0.00  0.00    +0.000 C 
BRANCH  20  21
ATOM     21  C   UNL     1      -8.602   4.485 133.860  0.00  0.00    +0.000 C 
ATOM     22  O   UNL     1      -7.592   3.977 134.324  0.00  0.00    +0.000 OA
BRANCH  21  23
ATOM     23  O   UNL     1      -9.838   4.034 134.164  0.00  0.00    +0.000 OA
ATOM     24  H   UNL     1      -9.792   3.238 134.728  0.00  0.00    +0.000 HD
ENDBRANCH  21  23
ENDBRANCH  20  21
ENDBRANCH  14  20
ENDBRANCH  13  14
ENDBRANCH   1  13
TORSDOF 15
ENDMDL
MODEL 2
REMARK VINA RESULT:      -5.3      0.767      2.926
REMARK  Name = Edetic acid
REMARK  15 active torsions:
REMARK  status: ('A' for Active; 'I' for Inactive)
REMARK    1  A    between atoms: O_1  and  C_2
REMARK    2  A    between atoms: C_2  and  C_4
REMARK    3  A    between atoms: C_4  and  N_5
REMARK    4  A    between atoms: N_5  and  C_6
REMARK    5  A    between atoms: N_5  and  C_17
REMARK    6  A    between atoms: C_6  and  C_7
REMARK    7  A    between atoms: C_7  and  N_8
REMARK    8  A    between atoms: N_8  and  C_9
REMARK    9  A    between atoms: N_8  and  C_13
REMARK   10  A    between atoms: C_9  and  C_10
REMARK   11  A    between atoms: C_10  and  O_11
REMARK   12  A    between atoms: C_13  and  C_14
REMARK   13  A    between atoms: C_14  and  O_15
REMARK   14  A    between atoms: C_17  and  C_18
REMARK   15  A    between atoms: C_18  and  O_19
REMARK                            x       y       z     vdW  Elec       q    Type
REMARK                         _______ _______ _______ _____ _____    ______ ____
ROOT
ATOM      1  C   UNL     1      -9.766   7.340 130.128  0.00  0.00    +0.000 C 
ENDROOT
BRANCH   1   2
ATOM      2  N   UNL     1     -10.577   6.746 129.066  0.00  0.00    +0.000 NA
BRANCH   2   3
ATOM      3  C   UNL     1     -11.102   7.880 128.224  0.00  0.00    +0.000 C 
BRANCH   3   4
ATOM      4  C   UNL     1     -12.199   7.399 127.237  0.00  0.00    +0.000 C 
ATOM      5  O   UNL     1     -13.396   7.630 127.349  0.00  0.00    +0.000 OA
BRANCH   4   6
ATOM      6  O   UNL     1     -11.757   6.610 126.232  0.00  0.00    +0.000 OA
ATOM      7  H   UNL     1     -12.436   6.240 125.643  0.00  0.00    +0.000 HD
ENDBRANCH   4   6
ENDBRANCH   3   4
ENDBRANCH   2   3
BRANCH   2   8
ATOM      8  C   UNL     1     -11.707   6.013 129.752  0.00  0.00    +0.000 C 
BRANCH   8   9
ATOM      9  C   UNL     1     -12.214   6.602 131.097  0.00  0.00    +0.000 C 
ATOM     10  O   UNL     1     -12.924   7.603 131.127  0.00  0.00    +0.000 OA
BRANCH   9  11
ATOM     11  O   UNL     1     -11.872   5.976 132.242  0.00  0.00    +0.000 OA
ATOM     12  H   UNL     1     -12.474   6.124 132.993  0.00  0.00    +0.000 HD
ENDBRANCH   9  11
ENDBRANCH   8   9
ENDBRANCH   2   8
ENDBRANCH   1   2
BRANCH   1  13
ATOM     13  C   UNL     1      -8.623   6.561 130.780  0.00  0.00    +0.000 C 
BRANCH  13  14
ATOM     14  N   UNL     1      -9.025   5.329 131.534  0.00  0.00    +0.000 NA
BRANCH  14  15
ATOM     15  C   UNL     1      -8.453   4.120 130.841  0.00  0.00    +0.000 C 
BRANCH  15  16
ATOM     16  C   UNL     1      -9.526   3.153 130.315  0.00  0.00    +0.000 C 
ATOM     17  O   UNL     1      -9.489   2.656 129.215  0.00  0.00    +0.000 OA
BRANCH  16  18
ATOM     18  O   UNL     1     -10.523   2.886 131.206  0.00  0.00    +0.000 OA
ATOM     19  H   UNL     1     -11.215   3.578 131.172  0.00  0.00    +0.000 HD
ENDBRANCH  16  18
ENDBRANCH  15  16
ENDBRANCH  14  15
BRANCH  14  20
ATOM     20  C   UNL     1      -8.308   5.537 132.860  0.00  0.00    +0.000 C 
BRANCH  20  21
ATOM     21  C   UNL     1      -8.650   4.512 133.927  0.00  0.00    +0.000 C 
ATOM     22  O   UNL     1      -7.824   4.078 134.717  0.00  0.00    +0.000 OA
BRANCH  21  23
ATOM     23  O   UNL     1      -9.946   4.132 133.962  0.00  0.00    +0.000 OA
ATOM     24  H   UNL     1     -10.539   4.907 133.926  0.00  0.00    +0.000 HD
ENDBRANCH  21  23
ENDBRANCH  20  21
ENDBRANCH  14  20
ENDBRANCH  13  14
ENDBRANCH   1  13
TORSDOF 15
ENDMDL
MODEL 3
REMARK VINA RESULT:      -5.3      6.717      9.556
REMARK  Name = Edetic acid
REMARK  15 active torsions:
REMARK  status: ('A' for Active; 'I' for Inactive)
REMARK    1  A    between atoms: O_1  and  C_2
REMARK    2  A    between atoms: C_2  and  C_4
REMARK    3  A    between atoms: C_4  and  N_5
REMARK    4  A    between atoms: N_5  and  C_6
REMARK    5  A    between atoms: N_5  and  C_17
REMARK    6  A    between atoms: C_6  and  C_7
REMARK    7  A    between atoms: C_7  and  N_8
REMARK    8  A    between atoms: N_8  and  C_9
REMARK    9  A    between atoms: N_8  and  C_13
REMARK   10  A    between atoms: C_9  and  C_10
REMARK   11  A    between atoms: C_10  and  O_11
REMARK   12  A    between atoms: C_13  and  C_14
REMARK   13  A    between atoms: C_14  and  O_15
REMARK   14  A    between atoms: C_17  and  C_18
REMARK   15  A    between atoms: C_18  and  O_19
REMARK                            x       y       z     vdW  Elec       q    Type
REMARK                         _______ _______ _______ _____ _____    ______ ____
ROOT
ATOM      1  C   UNL     1      -7.498   0.443 125.488  0.00  0.00    +0.000 C 
ENDROOT
BRANCH   1   2
ATOM      2  N   UNL     1      -8.558  -0.468 125.057  0.00  0.00    +0.000 NA
BRANCH   2   3
ATOM      3  C   UNL     1      -8.033  -1.870 125.226  0.00  0.00    +0.000 C 
BRANCH   3   4
ATOM      4  C   UNL     1      -9.114  -2.930 124.888  0.00  0.00    +0.000 C 
ATOM      5  O   UNL     1      -9.064  -3.709 123.945  0.00  0.00    +0.000 OA
BRANCH   4   6
ATOM      6  O   UNL     1     -10.206  -2.906 125.684  0.00  0.00    +0.000 OA
ATOM      7  H   UNL     1     -10.452  -2.042 126.055  0.00  0.00    +0.000 HD
ENDBRANCH   4   6
ENDBRANCH   3   4
ENDBRANCH   2   3
BRANCH   2   8
ATOM      8  C   UNL     1      -8.819  -0.159 123.601  0.00  0.00    +0.000 C 
BRANCH   8   9
ATOM      9  C   UNL     1     -10.039   0.748 123.281  0.00  0.00    +0.000 C 
ATOM     10  O   UNL     1     -10.928   0.375 122.522  0.00  0.00    +0.000 OA
BRANCH   9  11
ATOM     11  O   UNL     1     -10.114   1.957 123.874  0.00  0.00    +0.000 OA
ATOM     12  H   UNL     1      -9.627   2.041 124.713  0.00  0.00    +0.000 HD
ENDBRANCH   9  11
ENDBRANCH   8   9
ENDBRANCH   2   8
ENDBRANCH   1   2
BRANCH   1  13
ATOM     13  C   UNL     1      -6.682   1.243 124.473  0.00  0.00    +0.000 C 
BRANCH  13  14
ATOM     14  N   UNL     1      -7.165   2.637 124.206  0.00  0.00    +0.000 NA
BRANCH  14  15
ATOM     15  C   UNL     1      -6.725   3.534 125.333  0.00  0.00    +0.000 C 
BRANCH  15  16
ATOM     16  C   UNL     1      -7.867   4.373 125.928  0.00  0.00    +0.000 C 
ATOM     17  O   UNL     1      -7.738   5.071 126.906  0.00  0.00    +0.000 OA
BRANCH  16  18
ATOM     18  O   UNL     1      -9.044   4.279 125.246  0.00  0.00    +0.000 OA
ATOM     19  H   UNL     1      -9.805   4.291 125.861  0.00  0.00    +0.000 HD
ENDBRANCH  16  18
ENDBRANCH  15  16
ENDBRANCH  14  15
BRANCH  14  20
ATOM     20  C   UNL     1      -6.389   2.992 122.947  0.00  0.00    +0.000 C 
BRANCH  20  21
ATOM     21  C   UNL     1      -7.246   3.507 121.803  0.00  0.00    +0.000 C 
ATOM     22  O   UNL     1      -6.813   3.670 120.672  0.00  0.00    +0.000 OA
BRANCH  21  23
ATOM     23  O   UNL     1      -8.537   3.747 122.119  0.00  0.00    +0.000 OA
ATOM     24  H   UNL     1      -9.066   3.929 121.318  0.00  0.00    +0.000 HD
ENDBRANCH  21  23
ENDBRANCH  20  21
ENDBRANCH  14  20
ENDBRANCH  13  14
ENDBRANCH   1  13
TORSDOF 15
ENDMDL
MODEL 4
REMARK VINA RESULT:      -5.2      6.832      9.473
REMARK  Name = Edetic acid
REMARK  15 active torsions:
REMARK  status: ('A' for Active; 'I' for Inactive)
REMARK    1  A    between atoms: O_1  and  C_2
REMARK    2  A    between atoms: C_2  and  C_4
REMARK    3  A    between atoms: C_4  and  N_5
REMARK    4  A    between atoms: N_5  and  C_6
REMARK    5  A    between atoms: N_5  and  C_17
REMARK    6  A    between atoms: C_6  and  C_7
REMARK    7  A    between atoms: C_7  and  N_8
REMARK    8  A    between atoms: N_8  and  C_9
REMARK    9  A    between atoms: N_8  and  C_13
REMARK   10  A    between atoms: C_9  and  C_10
REMARK   11  A    between atoms: C_10  and  O_11
REMARK   12  A    between atoms: C_13  and  C_14
REMARK   13  A    between atoms: C_14  and  O_15
REMARK   14  A    between atoms: C_17  and  C_18
REMARK   15  A    between atoms: C_18  and  O_19
REMARK                            x       y       z     vdW  Elec       q    Type
REMARK                         _______ _______ _______ _____ _____    ______ ____
ROOT
ATOM      1  C   UNL     1      -6.976   0.198 124.378  0.00  0.00    +0.000 C 
ENDROOT
BRANCH   1   2
ATOM      2  N   UNL     1      -8.107  -0.518 123.789  0.00  0.00    +0.000 NA
BRANCH   2   3
ATOM      3  C   UNL     1      -9.356   0.228 124.180  0.00  0.00    +0.000 C 
BRANCH   3   4
ATOM      4  C   UNL     1     -10.038   0.883 122.950  0.00  0.00    +0.000 C 
ATOM      5  O   UNL     1      -9.556   1.782 122.273  0.00  0.00    +0.000 OA
BRANCH   4   6
ATOM      6  O   UNL     1     -11.289   0.441 122.688  0.00  0.00    +0.000 OA
ATOM      7  H   UNL     1     -11.532   0.362 121.749  0.00  0.00    +0.000 HD
ENDBRANCH   4   6
ENDBRANCH   3   4
ENDBRANCH   2   3
BRANCH   2   8
ATOM      8  C   UNL     1      -8.093  -1.905 124.392  0.00  0.00    +0.000 C 
BRANCH   8   9
ATOM      9  C   UNL     1      -9.429  -2.695 124.370  0.00  0.00    +0.000 C 
ATOM     10  O   UNL     1      -9.894  -3.132 123.322  0.00  0.00    +0.000 OA
BRANCH   9  11
ATOM     11  O   UNL     1     -10.067  -2.912 125.539  0.00  0.00    +0.000 OA
ATOM     12  H   UNL     1      -9.615  -2.569 126.331  0.00  0.00    +0.000 HD
ENDBRANCH   9  11
ENDBRANCH   8   9
ENDBRANCH   2   8
ENDBRANCH   1   2
BRANCH   1  13
ATOM     13  C   UNL     1      -7.188   1.460 125.215  0.00  0.00    +0.000 C 
BRANCH  13  14
ATOM     14  N   UNL     1      -6.720   2.739 124.590  0.00  0.00    +0.000 NA
BRANCH  14  15
ATOM     15  C   UNL     1      -6.430   2.497 123.132  0.00  0.00    +0.000 C 
BRANCH  15  16
ATOM     16  C   UNL     1      -6.370   3.787 122.298  0.00  0.00    +0.000 C 
ATOM     17  O   UNL     1      -5.533   4.643 122.459  0.00  0.00    +0.000 OA
BRANCH  16  18
ATOM     18  O   UNL     1      -7.338   3.879 121.341  0.00  0.00    +0.000 OA
ATOM     19  H   UNL     1      -7.180   3.233 120.623  0.00  0.00    +0.000 HD
ENDBRANCH  16  18
ENDBRANCH  15  16
ENDBRANCH  14  15
BRANCH  14  20
ATOM     20  C   UNL     1      -7.960   3.612 124.718  0.00  0.00    +0.000 C 
BRANCH  20  21
ATOM     21  C   UNL     1      -7.759   4.873 125.541  0.00  0.00    +0.000 C 
ATOM     22  O   UNL     1      -8.363   5.088 126.582  0.00  0.00    +0.000 OA
BRANCH  21  23
ATOM     23  O   UNL     1      -6.839   5.734 125.053  0.00  0.00    +0.000 OA
ATOM     24  H   UNL     1      -6.712   6.491 125.658  0.00  0.00    +0.000 HD
ENDBRANCH  21  23
ENDBRANCH  20  21
ENDBRANCH  14  20
ENDBRANCH  13  14
ENDBRANCH   1  13
TORSDOF 15
ENDMDL
MODEL 5
REMARK VINA RESULT:      -5.2      2.037      3.533
REMARK  Name = Edetic acid
REMARK  15 active torsions:
REMARK  status: ('A' for Active; 'I' for Inactive)
REMARK    1  A    between atoms: O_1  and  C_2
REMARK    2  A    between atoms: C_2  and  C_4
REMARK    3  A    between atoms: C_4  and  N_5
REMARK    4  A    between atoms: N_5  and  C_6
REMARK    5  A    between atoms: N_5  and  C_17
REMARK    6  A    between atoms: C_6  and  C_7
REMARK    7  A    between atoms: C_7  and  N_8
REMARK    8  A    between atoms: N_8  and  C_9
REMARK    9  A    between atoms: N_8  and  C_13
REMARK   10  A    between atoms: C_9  and  C_10
REMARK   11  A    between atoms: C_10  and  O_11
REMARK   12  A    between atoms: C_13  and  C_14
REMARK   13  A    between atoms: C_14  and  O_15
REMARK   14  A    between atoms: C_17  and  C_18
REMARK   15  A    between atoms: C_18  and  O_19
REMARK                            x       y       z     vdW  Elec       q    Type
REMARK                         _______ _______ _______ _____ _____    ______ ____
ROOT
ATOM      1  C   UNL     1     -10.346   8.217 129.137  0.00  0.00    +0.000 C 
ENDROOT
BRANCH   1   2
ATOM      2  N   UNL     1     -11.592   8.620 128.484  0.00  0.00    +0.000 NA
BRANCH   2   3
ATOM      3  C   UNL     1     -12.641   8.729 129.560  0.00  0.00    +0.000 C 
BRANCH   3   4
ATOM      4  C   UNL     1     -13.224  10.164 129.647  0.00  0.00    +0.000 C 
ATOM      5  O   UNL     1     -13.297  10.832 130.670  0.00  0.00    +0.000 OA
BRANCH   4   6
ATOM      6  O   UNL     1     -13.741  10.641 128.493  0.00  0.00    +0.000 OA
ATOM      7  H   UNL     1     -14.603  11.087 128.557  0.00  0.00    +0.000 HD
ENDBRANCH   4   6
ENDBRANCH   3   4
ENDBRANCH   2   3
BRANCH   2   8
ATOM      8  C   UNL     1     -11.933   7.522 127.503  0.00  0.00    +0.000 C 
BRANCH   8   9
ATOM      9  C   UNL     1     -10.981   7.341 126.290  0.00  0.00    +0.000 C 
ATOM     10  O   UNL     1     -10.903   8.192 125.409  0.00  0.00    +0.000 OA
BRANCH   9  11
ATOM     11  O   UNL     1     -10.219   6.229 126.230  0.00  0.00    +0.000 OA
ATOM     12  H   UNL     1     -10.023   5.906 125.333  0.00  0.00    +0.000 HD
ENDBRANCH   9  11
ENDBRANCH   8   9
ENDBRANCH   2   8
ENDBRANCH   1   2
BRANCH   1  13
ATOM     13  C   UNL     1     -10.211   6.849 129.806  0.00  0.00    +0.000 C 
BRANCH  13  14
ATOM     14  N   UNL     1      -8.808   6.360 130.005  0.00  0.00    +0.000 NA
BRANCH  14  15
ATOM     15  C   UNL     1      -8.400   6.606 131.433  0.00  0.00    +0.000 C 
BRANCH  15  16
ATOM     16  C   UNL     1      -9.220   5.796 132.451  0.00  0.00    +0.000 C 
ATOM     17  O   UNL     1      -8.923   4.680 132.804  0.00  0.00    +0.000 OA
BRANCH  16  18
ATOM     18  O   UNL     1     -10.310   6.454 132.940  0.00  0.00    +0.000 OA
ATOM     19  H   UNL     1     -10.358   6.373 133.914  0.00  0.00    +0.000 HD
ENDBRANCH  16  18
ENDBRANCH  15  16
ENDBRANCH  14  15
BRANCH  14  20
ATOM     20  C   UNL     1      -8.973   4.864 129.778  0.00  0.00    +0.000 C 
BRANCH  20  21
ATOM     21  C   UNL     1      -8.181   4.315 128.604  0.00  0.00    +0.000 C 
ATOM     22  O   UNL     1      -8.237   4.797 127.483  0.00  0.00    +0.000 OA
BRANCH  21  23
ATOM     23  O   UNL     1      -7.381   3.266 128.895  0.00  0.00    +0.000 OA
ATOM     24  H   UNL     1      -6.439   3.514 128.825  0.00  0.00    +0.000 HD
ENDBRANCH  21  23
ENDBRANCH  20  21
ENDBRANCH  14  20
ENDBRANCH  13  14
ENDBRANCH   1  13
TORSDOF 15
ENDMDL
MODEL 6
REMARK VINA RESULT:      -5.1      1.792      5.768
REMARK  Name = Edetic acid
REMARK  15 active torsions:
REMARK  status: ('A' for Active; 'I' for Inactive)
REMARK    1  A    between atoms: O_1  and  C_2
REMARK    2  A    between atoms: C_2  and  C_4
REMARK    3  A    between atoms: C_4  and  N_5
REMARK    4  A    between atoms: N_5  and  C_6
REMARK    5  A    between atoms: N_5  and  C_17
REMARK    6  A    between atoms: C_6  and  C_7
REMARK    7  A    between atoms: C_7  and  N_8
REMARK    8  A    between atoms: N_8  and  C_9
REMARK    9  A    between atoms: N_8  and  C_13
REMARK   10  A    between atoms: C_9  and  C_10
REMARK   11  A    between atoms: C_10  and  O_11
REMARK   12  A    between atoms: C_13  and  C_14
REMARK   13  A    between atoms: C_14  and  O_15
REMARK   14  A    between atoms: C_17  and  C_18
REMARK   15  A    between atoms: C_18  and  O_19
REMARK                            x       y       z     vdW  Elec       q    Type
REMARK                         _______ _______ _______ _____ _____    ______ ____
ROOT
ATOM      1  C   UNL     1     -10.021   5.354 130.357  0.00  0.00    +0.000 C 
ENDROOT
BRANCH   1   2
ATOM      2  N   UNL     1      -9.581   4.084 130.937  0.00  0.00    +0.000 NA
BRANCH   2   3
ATOM      3  C   UNL     1      -8.709   4.416 132.119  0.00  0.00    +0.000 C 
BRANCH   3   4
ATOM      4  C   UNL     1      -9.012   3.494 133.330  0.00  0.00    +0.000 C 
ATOM      5  O   UNL     1      -8.401   2.468 133.603  0.00  0.00    +0.000 OA
BRANCH   4   6
ATOM      6  O   UNL     1     -10.084   3.855 134.069  0.00  0.00    +0.000 OA
ATOM      7  H   UNL     1     -10.918   3.394 133.876  0.00  0.00    +0.000 HD
ENDBRANCH   4   6
ENDBRANCH   3   4
ENDBRANCH   2   3
BRANCH   2   8
ATOM      8  C   UNL     1      -8.790   3.376 129.861  0.00  0.00    +0.000 C 
BRANCH   8   9
ATOM      9  C   UNL     1      -8.043   4.270 128.834  0.00  0.00    +0.000 C 
ATOM     10  O   UNL     1      -8.415   4.347 127.667  0.00  0.00    +0.000 OA
BRANCH   9  11
ATOM     11  O   UNL     1      -6.977   4.982 129.255  0.00  0.00    +0.000 OA
ATOM     12  H   UNL     1      -6.192   4.935 128.682  0.00  0.00    +0.000 HD
ENDBRANCH   9  11
ENDBRANCH   8   9
ENDBRANCH   2   8
ENDBRANCH   1   2
BRANCH   1  13
ATOM     13  C   UNL     1     -11.504   5.651 130.138  0.00  0.00    +0.000 C 
BRANCH  13  14
ATOM     14  N   UNL     1     -11.874   6.127 128.765  0.00  0.00    +0.000 NA
BRANCH  14  15
ATOM     15  C   UNL     1     -13.105   6.990 128.859  0.00  0.00    +0.000 C 
BRANCH  15  16
ATOM     16  C   UNL     1     -12.828   8.386 129.442  0.00  0.00    +0.000 C 
ATOM     17  O   UNL     1     -12.730   8.603 130.627  0.00  0.00    +0.000 OA
BRANCH  16  18
ATOM     18  O   UNL     1     -12.684   9.365 128.504  0.00  0.00    +0.000 OA
ATOM     19  H   UNL     1     -12.316  10.179 128.903  0.00  0.00    +0.000 HD
ENDBRANCH  16  18
ENDBRANCH  15  16
ENDBRANCH  14  15
BRANCH  14  20
ATOM     20  C   UNL     1     -10.676   6.993 128.410  0.00  0.00    +0.000 C 
BRANCH  20  21
ATOM     21  C   UNL     1     -10.483   7.221 126.920  0.00  0.00    +0.000 C 
ATOM     22  O   UNL     1     -10.966   8.174 126.328  0.00  0.00    +0.000 OA
BRANCH  21  23
ATOM     23  O   UNL     1      -9.710   6.305 126.297  0.00  0.00    +0.000 OA
ATOM     24  H   UNL     1      -8.774   6.586 126.285  0.00  0.00    +0.000 HD
ENDBRANCH  21  23
ENDBRANCH  20  21
ENDBRANCH  14  20
ENDBRANCH  13  14
ENDBRANCH   1  13
TORSDOF 15
ENDMDL
MODEL 7
REMARK VINA RESULT:      -5.1      1.763      3.165
REMARK  Name = Edetic acid
REMARK  15 active torsions:
REMARK  status: ('A' for Active; 'I' for Inactive)
REMARK    1  A    between atoms: O_1  and  C_2
REMARK    2  A    between atoms: C_2  and  C_4
REMARK    3  A    between atoms: C_4  and  N_5
REMARK    4  A    between atoms: N_5  and  C_6
REMARK    5  A    between atoms: N_5  and  C_17
REMARK    6  A    between atoms: C_6  and  C_7
REMARK    7  A    between atoms: C_7  and  N_8
REMARK    8  A    between atoms: N_8  and  C_9
REMARK    9  A    between atoms: N_8  and  C_13
REMARK   10  A    between atoms: C_9  and  C_10
REMARK   11  A    between atoms: C_10  and  O_11
REMARK   12  A    between atoms: C_13  and  C_14
REMARK   13  A    between atoms: C_14  and  O_15
REMARK   14  A    between atoms: C_17  and  C_18
REMARK   15  A    between atoms: C_18  and  O_19
REMARK                            x       y       z     vdW  Elec       q    Type
REMARK                         _______ _______ _______ _____ _____    ______ ____
ROOT
ATOM      1  C   UNL     1     -10.359   6.997 130.245  0.00  0.00    +0.000 C 
ENDROOT
BRANCH   1   2
ATOM      2  N   UNL     1     -11.292   7.312 129.163  0.00  0.00    +0.000 NA
BRANCH   2   3
ATOM      3  C   UNL     1     -10.472   7.827 128.009  0.00  0.00    +0.000 C 
BRANCH   3   4
ATOM      4  C   UNL     1     -10.540   6.872 126.788  0.00  0.00    +0.000 C 
ATOM      5  O   UNL     1      -9.587   6.266 126.315  0.00  0.00    +0.000 OA
BRANCH   4   6
ATOM      6  O   UNL     1     -11.751   6.790 126.193  0.00  0.00    +0.000 OA
ATOM      7  H   UNL     1     -12.171   5.913 126.187  0.00  0.00    +0.000 HD
ENDBRANCH   4   6
ENDBRANCH   3   4
ENDBRANCH   2   3
BRANCH   2   8
ATOM      8  C   UNL     1     -12.215   8.385 129.694  0.00  0.00    +0.000 C 
BRANCH   8   9
ATOM      9  C   UNL     1     -13.222   9.007 128.690  0.00  0.00    +0.000 C 
ATOM     10  O   UNL     1     -13.850   8.308 127.901  0.00  0.00    +0.000 OA
BRANCH   9  11
ATOM     11  O   UNL     1     -13.411  10.343 128.714  0.00  0.00    +0.000 OA
ATOM     12  H   UNL     1     -13.719  10.705 129.564  0.00  0.00    +0.000 HD
ENDBRANCH   9  11
ENDBRANCH   8   9
ENDBRANCH   2   8
ENDBRANCH   1   2
BRANCH   1  13
ATOM     13  C   UNL     1     -10.669   5.898 131.261  0.00  0.00    +0.000 C 
BRANCH  13  14
ATOM     14  N   UNL     1      -9.869   4.638 131.118  0.00  0.00    +0.000 NA
BRANCH  14  15
ATOM     15  C   UNL     1      -9.090   4.694 129.831  0.00  0.00    +0.000 C 
BRANCH  15  16
ATOM     16  C   UNL     1      -8.561   3.324 129.376  0.00  0.00    +0.000 C 
ATOM     17  O   UNL     1      -9.255   2.485 128.854  0.00  0.00    +0.000 OA
BRANCH  16  18
ATOM     18  O   UNL     1      -7.228   3.138 129.598  0.00  0.00    +0.000 OA
ATOM     19  H   UNL     1      -6.821   2.629 128.868  0.00  0.00    +0.000 HD
ENDBRANCH  16  18
ENDBRANCH  15  16
ENDBRANCH  14  15
BRANCH  14  20
ATOM     20  C   UNL     1      -8.910   4.752 132.294  0.00  0.00    +0.000 C 
BRANCH  20  21
ATOM     21  C   UNL     1      -9.178   3.772 133.423  0.00  0.00    +0.000 C 
ATOM     22  O   UNL     1      -9.280   2.567 133.243  0.00  0.00    +0.000 OA
BRANCH  21  23
ATOM     23  O   UNL     1      -9.269   4.325 134.652  0.00  0.00    +0.000 OA
ATOM     24  H   UNL     1      -8.834   5.199 134.675  0.00  0.00    +0.000 HD
ENDBRANCH  21  23
ENDBRANCH  20  21
ENDBRANCH  14  20
ENDBRANCH  13  14
ENDBRANCH   1  13
TORSDOF 15
ENDMDL
MODEL 8
REMARK VINA RESULT:      -5.1      1.971      3.753
REMARK  Name = Edetic acid
REMARK  15 active torsions:
REMARK  status: ('A' for Active; 'I' for Inactive)
REMARK    1  A    between atoms: O_1  and  C_2
REMARK    2  A    between atoms: C_2  and  C_4
REMARK    3  A    between atoms: C_4  and  N_5
REMARK    4  A    between atoms: N_5  and  C_6
REMARK    5  A    between atoms: N_5  and  C_17
REMARK    6  A    between atoms: C_6  and  C_7
REMARK    7  A    between atoms: C_7  and  N_8
REMARK    8  A    between atoms: N_8  and  C_9
REMARK    9  A    between atoms: N_8  and  C_13
REMARK   10  A    between atoms: C_9  and  C_10
REMARK   11  A    between atoms: C_10  and  O_11
REMARK   12  A    between atoms: C_13  and  C_14
REMARK   13  A    between atoms: C_14  and  O_15
REMARK   14  A    between atoms: C_17  and  C_18
REMARK   15  A    between atoms: C_18  and  O_19
REMARK                            x       y       z     vdW  Elec       q    Type
REMARK                         _______ _______ _______ _____ _____    ______ ____
ROOT
ATOM      1  C   UNL     1      -9.293   5.263 129.770  0.00  0.00    +0.000 C 
ENDROOT
BRANCH   1   2
ATOM      2  N   UNL     1     -10.633   5.603 129.293  0.00  0.00    +0.000 NA
BRANCH   2   3
ATOM      3  C   UNL     1     -10.637   7.081 129.001  0.00  0.00    +0.000 C 
BRANCH   3   4
ATOM      4  C   UNL     1     -10.649   7.362 127.475  0.00  0.00    +0.000 C 
ATOM      5  O   UNL     1     -10.408   6.535 126.605  0.00  0.00    +0.000 OA
BRANCH   4   6
ATOM      6  O   UNL     1     -10.881   8.649 127.133  0.00  0.00    +0.000 OA
ATOM      7  H   UNL     1     -11.809   8.940 127.144  0.00  0.00    +0.000 HD
ENDBRANCH   4   6
ENDBRANCH   3   4
ENDBRANCH   2   3
BRANCH   2   8
ATOM      8  C   UNL     1     -11.584   5.270 130.420  0.00  0.00    +0.000 C 
BRANCH   8   9
ATOM      9  C   UNL     1     -11.807   6.365 131.499  0.00  0.00    +0.000 C 
ATOM     10  O   UNL     1     -12.849   7.012 131.544  0.00  0.00    +0.000 OA
BRANCH   9  11
ATOM     11  O   UNL     1     -10.833   6.581 132.407  0.00  0.00    +0.000 OA
ATOM     12  H   UNL     1     -10.133   7.198 132.128  0.00  0.00    +0.000 HD
ENDBRANCH   9  11
ENDBRANCH   8   9
ENDBRANCH   2   8
ENDBRANCH   1   2
BRANCH   1  13
ATOM     13  C   UNL     1      -8.797   3.817 129.771  0.00  0.00    +0.000 C 
BRANCH  13  14
ATOM     14  N   UNL     1      -8.920   3.090 131.076  0.00  0.00    +0.000 NA
BRANCH  14  15
ATOM     15  C   UNL     1      -8.086   1.837 131.021  0.00  0.00    +0.000 C 
BRANCH  15  16
ATOM     16  C   UNL     1      -8.534   0.760 132.022  0.00  0.00    +0.000 C 
ATOM     17  O   UNL     1      -9.509   0.067 131.858  0.00  0.00    +0.000 OA
BRANCH  16  18
ATOM     18  O   UNL     1      -7.723   0.638 133.112  0.00  0.00    +0.000 OA
ATOM     19  H   UNL     1      -7.889  -0.207 133.577  0.00  0.00    +0.000 HD
ENDBRANCH  16  18
ENDBRANCH  15  16
ENDBRANCH  14  15
BRANCH  14  20
ATOM     20  C   UNL     1      -8.279   4.080 132.037  0.00  0.00    +0.000 C 
BRANCH  20  21
ATOM     21  C   UNL     1      -8.685   3.900 133.490  0.00  0.00    +0.000 C 
ATOM     22  O   UNL     1      -7.898   3.560 134.360  0.00  0.00    +0.000 OA
BRANCH  21  23
ATOM     23  O   UNL     1      -9.981   4.172 133.760  0.00  0.00    +0.000 OA
ATOM     24  H   UNL     1     -10.082   4.530 134.663  0.00  0.00    +0.000 HD
ENDBRANCH  21  23
ENDBRANCH  20  21
ENDBRANCH  14  20
ENDBRANCH  13  14
ENDBRANCH   1  13
TORSDOF 15
ENDMDL
MODEL 9
REMARK VINA RESULT:      -5.1      6.100      8.566
REMARK  Name = Edetic acid
REMARK  15 active torsions:
REMARK  status: ('A' for Active; 'I' for Inactive)
REMARK    1  A    between atoms: O_1  and  C_2
REMARK    2  A    between atoms: C_2  and  C_4
REMARK    3  A    between atoms: C_4  and  N_5
REMARK    4  A    between atoms: N_5  and  C_6
REMARK    5  A    between atoms: N_5  and  C_17
REMARK    6  A    between atoms: C_6  and  C_7
REMARK    7  A    between atoms: C_7  and  N_8
REMARK    8  A    between atoms: N_8  and  C_9
REMARK    9  A    between atoms: N_8  and  C_13
REMARK   10  A    between atoms: C_9  and  C_10
REMARK   11  A    between atoms: C_10  and  O_11
REMARK   12  A    between atoms: C_13  and  C_14
REMARK   13  A    between atoms: C_14  and  O_15
REMARK   14  A    between atoms: C_17  and  C_18
REMARK   15  A    between atoms: C_18  and  O_19
REMARK                            x       y       z     vdW  Elec       q    Type
REMARK                         _______ _______ _______ _____ _____    ______ ____
ROOT
ATOM      1  C   UNL     1      -6.291   1.068 125.352  0.00  0.00    +0.000 C 
ENDROOT
BRANCH   1   2
ATOM      2  N   UNL     1      -6.688   2.404 125.798  0.00  0.00    +0.000 NA
BRANCH   2   3
ATOM      3  C   UNL     1      -5.557   3.338 125.455  0.00  0.00    +0.000 C 
BRANCH   3   4
ATOM      4  C   UNL     1      -6.073   4.638 124.782  0.00  0.00    +0.000 C 
ATOM      5  O   UNL     1      -6.360   5.670 125.374  0.00  0.00    +0.000 OA
BRANCH   4   6
ATOM      6  O   UNL     1      -6.270   4.551 123.448  0.00  0.00    +0.000 OA
ATOM      7  H   UNL     1      -5.782   5.186 122.896  0.00  0.00    +0.000 HD
ENDBRANCH   4   6
ENDBRANCH   3   4
ENDBRANCH   2   3
BRANCH   2   8
ATOM      8  C   UNL     1      -6.881   2.314 127.294  0.00  0.00    +0.000 C 
BRANCH   8   9
ATOM      9  C   UNL     1      -8.147   1.567 127.796  0.00  0.00    +0.000 C 
ATOM     10  O   UNL     1      -8.194   1.080 128.922  0.00  0.00    +0.000 OA
BRANCH   9  11
ATOM     11  O   UNL     1      -9.211   1.479 126.972  0.00  0.00    +0.000 OA
ATOM     12  H   UNL     1      -9.504   0.573 126.765  0.00  0.00    +0.000 HD
ENDBRANCH   9  11
ENDBRANCH   8   9
ENDBRANCH   2   8
ENDBRANCH   1   2
BRANCH   1  13
ATOM     13  C   UNL     1      -7.034   0.360 124.219  0.00  0.00    +0.000 C 
BRANCH  13  14
ATOM     14  N   UNL     1      -8.524   0.283 124.368  0.00  0.00    +0.000 NA
BRANCH  14  15
ATOM     15  C   UNL     1      -9.171   0.996 123.210  0.00  0.00    +0.000 C 
BRANCH  15  16
ATOM     16  C   UNL     1      -9.081   2.528 123.308  0.00  0.00    +0.000 C 
ATOM     17  O   UNL     1      -8.775   3.235 122.378  0.00  0.00    +0.000 OA
BRANCH  16  18
ATOM     18  O   UNL     1      -9.394   3.028 124.537  0.00  0.00    +0.000 OA
ATOM     19  H   UNL     1      -9.418   2.316 125.208  0.00  0.00    +0.000 HD
ENDBRANCH  16  18
ENDBRANCH  15  16
ENDBRANCH  14  15
BRANCH  14  20
ATOM     20  C   UNL     1      -8.766  -1.213 124.238  0.00  0.00    +0.000 C 
BRANCH  20  21
ATOM     21  C   UNL     1      -9.094  -1.914 125.545  0.00  0.00    +0.000 C 
ATOM     22  O   UNL     1      -8.586  -1.600 126.611  0.00  0.00    +0.000 OA
BRANCH  21  23
ATOM     23  O   UNL     1     -10.017  -2.896 125.452  0.00  0.00    +0.000 OA
ATOM     24  H   UNL     1      -9.874  -3.437 124.651  0.00  0.00    +0.000 HD
ENDBRANCH  21  23
ENDBRANCH  20  21
ENDBRANCH  14  20
ENDBRANCH  13  14
ENDBRANCH   1  13
TORSDOF 15
ENDMDL
