MODEL 1
REMARK VINA RESULT:     -10.2      0.000      0.000
REMARK  Name = Edoxaban
REMARK  8 active torsions:
REMARK  status: ('A' for Active; 'I' for Inactive)
REMARK    1  A    between atoms: C_1  and  N_2
REMARK    2  A    between atoms: N_2  and  C_3
REMARK    3  A    between atoms: C_4  and  C_6
REMARK    4  A    between atoms: C_9  and  N_10
REMARK    5  A    between atoms: C_11  and  C_13
REMARK    6  A    between atoms: C_23  and  N_25
REMARK    7  A    between atoms: C_26  and  C_28
REMARK    8  A    between atoms: N_33  and  C_34
REMARK                            x       y       z     vdW  Elec       q    Type
REMARK                         _______ _______ _______ _____ _____    ______ ____
ROOT
ATOM      1  C   UNL     1      -2.603   7.200 131.233  0.00  0.00    +0.000 C 
ATOM      2  C   UNL     1      -2.299   6.044 130.280  0.00  0.00    +0.000 C 
ATOM      3  C   UNL     1      -3.129   4.823 130.655  0.00  0.00    +0.000 C 
ATOM      4  C   UNL     1      -4.614   5.112 130.384  0.00  0.00    +0.000 C 
ATOM      5  C   UNL     1      -5.084   6.400 131.139  0.00  0.00    +0.000 C 
ATOM      6  C   UNL     1      -4.077   7.572 130.998  0.00  0.00    +0.000 C 
ENDROOT
BRANCH   1  10
ATOM      7  C   UNL     1      -1.877   7.819 134.964  0.00  0.00    +0.000 C 
ATOM      8  N   UNL     1      -2.099   8.070 133.554  0.00  0.00    +0.000 N 
ATOM      9  C   UNL     1      -1.989   9.448 133.117  0.00  0.00    +0.000 C 
ATOM     10  C   UNL     1      -2.322   6.973 132.730  0.00  0.00    +0.000 C 
ATOM     11  O   UNL     1      -2.352   5.830 133.197  0.00  0.00    +0.000 OA
ENDBRANCH   1  10
BRANCH   4  12
ATOM     12  N   UNL     1      -4.849   5.193 128.943  0.00  0.00    +0.000 N 
ATOM     13  C   UNL     1      -5.343   4.134 128.207  0.00  0.00    +0.000 C 
ATOM     14  O   UNL     1      -5.652   3.039 128.664  0.00  0.00    +0.000 OA
ATOM     15  H   UNL     1      -4.540   6.030 128.440  0.00  0.00    +0.000 HD
BRANCH  13  16
ATOM     16  C   UNL     1      -5.488   4.403 126.696  0.00  0.00    +0.000 C 
ATOM     17  O   UNL     1      -5.426   5.565 126.306  0.00  0.00    +0.000 OA
ATOM     18  N   UNL     1      -5.728   3.278 125.922  0.00  0.00    +0.000 N 
ATOM     19  C   UNL     1      -5.947   3.361 124.540  0.00  0.00    +0.000 A 
ATOM     20  N   UNL     1      -6.916   2.590 123.999  0.00  0.00    +0.000 NA
ATOM     21  C   UNL     1      -7.175   2.775 122.669  0.00  0.00    +0.000 A 
ATOM     22  C   UNL     1      -6.460   3.634 121.845  0.00  0.00    +0.000 A 
ATOM     23 CL   UNL     1      -6.840   3.816 120.181  0.00  0.00    +0.000 Cl
ATOM     24  C   UNL     1      -5.413   4.346 122.404  0.00  0.00    +0.000 A 
ATOM     25  C   UNL     1      -5.162   4.214 123.769  0.00  0.00    +0.000 A 
ATOM     26  H   UNL     1      -6.018   2.429 126.394  0.00  0.00    +0.000 HD
ENDBRANCH  13  16
ENDBRANCH   4  12
BRANCH   5  27
ATOM     27  N   UNL     1      -6.465   6.813 130.777  0.00  0.00    +0.000 N 
ATOM     28  C   UNL     1      -7.622   6.328 131.393  0.00  0.00    +0.000 C 
ATOM     29  O   UNL     1      -7.550   5.515 132.322  0.00  0.00    +0.000 OA
ATOM     30  H   UNL     1      -6.578   7.587 130.128  0.00  0.00    +0.000 HD
BRANCH  28  31
ATOM     31  C   UNL     1      -8.909   6.816 130.904  0.00  0.00    +0.000 A 
ATOM     32  N   UNL     1      -9.041   7.625 129.869  0.00  0.00    +0.000 NA
ATOM     33  C   UNL     1     -10.385   7.749 129.585  0.00  0.00    +0.000 A 
ATOM     34  C   UNL     1     -11.273   7.114 130.431  0.00  0.00    +0.000 A 
ATOM     35  C   UNL     1     -12.774   7.182 130.296  0.00  0.00    +0.000 C 
ATOM     36  N   UNL     1     -13.184   7.684 128.949  0.00  0.00    +0.000 NA
ATOM     37  C   UNL     1     -13.101   6.613 127.947  0.00  0.00    +0.000 C 
ATOM     38  C   UNL     1     -12.344   8.846 128.552  0.00  0.00    +0.000 C 
ATOM     39  C   UNL     1     -10.850   8.499 128.393  0.00  0.00    +0.000 C 
ATOM     40  S   UNL     1     -10.394   6.266 131.619  0.00  0.00    +0.000 S 
ENDBRANCH  28  31
ENDBRANCH   5  27
TORSDOF 5
ENDMDL
MODEL 2
REMARK VINA RESULT:      -9.4      4.474      5.325
REMARK  Name = Edoxaban
REMARK  8 active torsions:
REMARK  status: ('A' for Active; 'I' for Inactive)
REMARK    1  A    between atoms: C_1  and  N_2
REMARK    2  A    between atoms: N_2  and  C_3
REMARK    3  A    between atoms: C_4  and  C_6
REMARK    4  A    between atoms: C_9  and  N_10
REMARK    5  A    between atoms: C_11  and  C_13
REMARK    6  A    between atoms: C_23  and  N_25
REMARK    7  A    between atoms: C_26  and  C_28
REMARK    8  A    between atoms: N_33  and  C_34
REMARK                            x       y       z     vdW  Elec       q    Type
REMARK                         _______ _______ _______ _____ _____    ______ ____
ROOT
ATOM      1  C   UNL     1      -5.768   0.044 129.822  0.00  0.00    +0.000 C 
ATOM      2  C   UNL     1      -5.749  -0.437 128.372  0.00  0.00    +0.000 C 
ATOM      3  C   UNL     1      -7.167  -0.729 127.897  0.00  0.00    +0.000 C 
ATOM      4  C   UNL     1      -7.959   0.586 127.815  0.00  0.00    +0.000 C 
ATOM      5  C   UNL     1      -7.939   1.343 129.185  0.00  0.00    +0.000 C 
ATOM      6  C   UNL     1      -6.523   1.385 129.819  0.00  0.00    +0.000 C 
ENDROOT
BRANCH   1  10
ATOM      7  C   UNL     1      -6.068  -2.553 132.650  0.00  0.00    +0.000 C 
ATOM      8  N   UNL     1      -5.485  -1.691 131.640  0.00  0.00    +0.000 N 
ATOM      9  C   UNL     1      -4.049  -1.778 131.467  0.00  0.00    +0.000 C 
ATOM     10  C   UNL     1      -6.349  -0.916 130.877  0.00  0.00    +0.000 C 
ATOM     11  O   UNL     1      -7.568  -0.948 131.077  0.00  0.00    +0.000 OA
ENDBRANCH   1  10
BRANCH   4  12
ATOM     12  N   UNL     1      -7.448   1.405 126.718  0.00  0.00    +0.000 N 
ATOM     13  C   UNL     1      -8.250   1.858 125.688  0.00  0.00    +0.000 C 
ATOM     14  O   UNL     1      -9.454   1.650 125.586  0.00  0.00    +0.000 OA
ATOM     15  H   UNL     1      -6.438   1.564 126.650  0.00  0.00    +0.000 HD
BRANCH  13  16
ATOM     16  C   UNL     1      -7.520   2.678 124.606  0.00  0.00    +0.000 C 
ATOM     17  O   UNL     1      -6.747   3.561 124.970  0.00  0.00    +0.000 OA
ATOM     18  N   UNL     1      -7.857   2.356 123.301  0.00  0.00    +0.000 N 
ATOM     19  C   UNL     1      -7.329   3.051 122.204  0.00  0.00    +0.000 A 
ATOM     20  N   UNL     1      -8.157   3.355 121.181  0.00  0.00    +0.000 NA
ATOM     21  C   UNL     1      -7.637   4.126 120.179  0.00  0.00    +0.000 A 
ATOM     22  C   UNL     1      -6.312   4.538 120.117  0.00  0.00    +0.000 A 
ATOM     23 CL   UNL     1      -5.725   5.506 118.827  0.00  0.00    +0.000 Cl
ATOM     24  C   UNL     1      -5.462   4.139 121.133  0.00  0.00    +0.000 A 
ATOM     25  C   UNL     1      -5.980   3.395 122.192  0.00  0.00    +0.000 A 
ATOM     26  H   UNL     1      -8.692   1.802 123.148  0.00  0.00    +0.000 HD
ENDBRANCH  13  16
ENDBRANCH   4  12
BRANCH   5  27
ATOM     27  N   UNL     1      -8.548   2.695 129.109  0.00  0.00    +0.000 N 
ATOM     28  C   UNL     1      -9.230   3.315 130.160  0.00  0.00    +0.000 C 
ATOM     29  O   UNL     1      -9.344   2.754 131.256  0.00  0.00    +0.000 OA
ATOM     30  H   UNL     1      -8.356   3.262 128.287  0.00  0.00    +0.000 HD
BRANCH  28  31
ATOM     31  C   UNL     1      -9.795   4.641 129.918  0.00  0.00    +0.000 A 
ATOM     32  N   UNL     1      -9.609   5.323 128.804  0.00  0.00    +0.000 NA
ATOM     33  C   UNL     1     -10.410   6.446 128.845  0.00  0.00    +0.000 A 
ATOM     34  C   UNL     1     -11.135   6.664 130.000  0.00  0.00    +0.000 A 
ATOM     35  C   UNL     1     -12.024   7.862 130.233  0.00  0.00    +0.000 C 
ATOM     36  N   UNL     1     -12.330   8.578 128.958  0.00  0.00    +0.000 NA
ATOM     37  C   UNL     1     -13.390   7.884 128.214  0.00  0.00    +0.000 C 
ATOM     38  C   UNL     1     -11.101   8.708 128.129  0.00  0.00    +0.000 C 
ATOM     39  C   UNL     1     -10.517   7.355 127.677  0.00  0.00    +0.000 C 
ATOM     40  S   UNL     1     -10.856   5.377 131.080  0.00  0.00    +0.000 S 
ENDBRANCH  28  31
ENDBRANCH   5  27
TORSDOF 5
ENDMDL
MODEL 3
REMARK VINA RESULT:      -9.1      3.423      3.923
REMARK  Name = Edoxaban
REMARK  8 active torsions:
REMARK  status: ('A' for Active; 'I' for Inactive)
REMARK    1  A    between atoms: C_1  and  N_2
REMARK    2  A    between atoms: N_2  and  C_3
REMARK    3  A    between atoms: C_4  and  C_6
REMARK    4  A    between atoms: C_9  and  N_10
REMARK    5  A    between atoms: C_11  and  C_13
REMARK    6  A    between atoms: C_23  and  N_25
REMARK    7  A    between atoms: C_26  and  C_28
REMARK    8  A    between atoms: N_33  and  C_34
REMARK                            x       y       z     vdW  Elec       q    Type
REMARK                         _______ _______ _______ _____ _____    ______ ____
ROOT
ATOM      1  C   UNL     1      -3.477   4.122 130.291  0.00  0.00    +0.000 C 
ATOM      2  C   UNL     1      -3.762   2.623 130.202  0.00  0.00    +0.000 C 
ATOM      3  C   UNL     1      -4.759   2.214 131.279  0.00  0.00    +0.000 C 
ATOM      4  C   UNL     1      -6.128   2.846 130.975  0.00  0.00    +0.000 C 
ATOM      5  C   UNL     1      -6.012   4.401 130.836  0.00  0.00    +0.000 C 
ATOM      6  C   UNL     1      -4.803   4.831 129.964  0.00  0.00    +0.000 C 
ENDROOT
BRANCH   1  10
ATOM      7  C   UNL     1      -1.571   6.280 132.847  0.00  0.00    +0.000 C 
ATOM      8  N   UNL     1      -2.085   5.792 131.583  0.00  0.00    +0.000 N 
ATOM      9  C   UNL     1      -1.658   6.501 130.394  0.00  0.00    +0.000 C 
ATOM     10  C   UNL     1      -2.876   4.650 131.606  0.00  0.00    +0.000 C 
ATOM     11  O   UNL     1      -3.147   4.092 132.675  0.00  0.00    +0.000 OA
ENDBRANCH   1  10
BRANCH   4  12
ATOM     12  N   UNL     1      -6.710   2.222 129.788  0.00  0.00    +0.000 N 
ATOM     13  C   UNL     1      -7.523   1.107 129.854  0.00  0.00    +0.000 C 
ATOM     14  O   UNL     1      -7.861   0.539 130.887  0.00  0.00    +0.000 OA
ATOM     15  H   UNL     1      -6.422   2.556 128.863  0.00  0.00    +0.000 HD
BRANCH  13  16
ATOM     16  C   UNL     1      -8.010   0.575 128.492  0.00  0.00    +0.000 C 
ATOM     17  O   UNL     1      -8.699   1.313 127.794  0.00  0.00    +0.000 OA
ATOM     18  N   UNL     1      -7.648  -0.734 128.212  0.00  0.00    +0.000 N 
ATOM     19  C   UNL     1      -8.066  -1.386 127.044  0.00  0.00    +0.000 A 
ATOM     20  N   UNL     1      -8.460  -2.675 127.136  0.00  0.00    +0.000 NA
ATOM     21  C   UNL     1      -8.962  -3.246 126.001  0.00  0.00    +0.000 A 
ATOM     22  C   UNL     1      -9.013  -2.614 124.765  0.00  0.00    +0.000 A 
ATOM     23 CL   UNL     1      -9.657  -3.393 123.377  0.00  0.00    +0.000 Cl
ATOM     24  C   UNL     1      -8.520  -1.324 124.676  0.00  0.00    +0.000 A 
ATOM     25  C   UNL     1      -8.050  -0.702 125.831  0.00  0.00    +0.000 A 
ATOM     26  H   UNL     1      -7.313  -1.309 128.977  0.00  0.00    +0.000 HD
ENDBRANCH  13  16
ENDBRANCH   4  12
BRANCH   5  27
ATOM     27  N   UNL     1      -7.275   5.037 130.379  0.00  0.00    +0.000 N 
ATOM     28  C   UNL     1      -8.079   5.859 131.173  0.00  0.00    +0.000 C 
ATOM     29  O   UNL     1      -7.754   6.126 132.337  0.00  0.00    +0.000 OA
ATOM     30  H   UNL     1      -7.511   4.977 129.392  0.00  0.00    +0.000 HD
BRANCH  28  31
ATOM     31  C   UNL     1      -9.305   6.390 130.582  0.00  0.00    +0.000 A 
ATOM     32  N   UNL     1      -9.358   7.514 129.893  0.00  0.00    +0.000 NA
ATOM     33  C   UNL     1     -10.620   7.628 129.347  0.00  0.00    +0.000 A 
ATOM     34  C   UNL     1     -11.542   6.653 129.675  0.00  0.00    +0.000 A 
ATOM     35  C   UNL     1     -12.977   6.647 129.206  0.00  0.00    +0.000 C 
ATOM     36  N   UNL     1     -13.186   7.582 128.059  0.00  0.00    +0.000 NA
ATOM     37  C   UNL     1     -12.728   6.975 126.802  0.00  0.00    +0.000 C 
ATOM     38  C   UNL     1     -12.486   8.871 128.308  0.00  0.00    +0.000 C 
ATOM     39  C   UNL     1     -10.954   8.730 128.412  0.00  0.00    +0.000 C 
ATOM     40  S   UNL     1     -10.791   5.495 130.673  0.00  0.00    +0.000 S 
ENDBRANCH  28  31
ENDBRANCH   5  27
TORSDOF 5
ENDMDL
MODEL 4
REMARK VINA RESULT:      -9.1      4.669      6.396
REMARK  Name = Edoxaban
REMARK  8 active torsions:
REMARK  status: ('A' for Active; 'I' for Inactive)
REMARK    1  A    between atoms: C_1  and  N_2
REMARK    2  A    between atoms: N_2  and  C_3
REMARK    3  A    between atoms: C_4  and  C_6
REMARK    4  A    between atoms: C_9  and  N_10
REMARK    5  A    between atoms: C_11  and  C_13
REMARK    6  A    between atoms: C_23  and  N_25
REMARK    7  A    between atoms: C_26  and  C_28
REMARK    8  A    between atoms: N_33  and  C_34
REMARK                            x       y       z     vdW  Elec       q    Type
REMARK                         _______ _______ _______ _____ _____    ______ ____
ROOT
ATOM      1  C   UNL     1      -5.112  -1.403 128.560  0.00  0.00    +0.000 C 
ATOM      2  C   UNL     1      -5.815  -1.989 127.336  0.00  0.00    +0.000 C 
ATOM      3  C   UNL     1      -7.281  -2.256 127.650  0.00  0.00    +0.000 C 
ATOM      4  C   UNL     1      -8.011  -0.919 127.860  0.00  0.00    +0.000 C 
ATOM      5  C   UNL     1      -7.314  -0.066 128.972  0.00  0.00    +0.000 C 
ATOM      6  C   UNL     1      -5.770  -0.036 128.818  0.00  0.00    +0.000 C 
ENDROOT
BRANCH   1  10
ATOM      7  C   UNL     1      -4.085  -3.962 131.248  0.00  0.00    +0.000 C 
ATOM      8  N   UNL     1      -4.091  -3.205 130.012  0.00  0.00    +0.000 N 
ATOM      9  C   UNL     1      -3.089  -3.563 129.029  0.00  0.00    +0.000 C 
ATOM     10  C   UNL     1      -5.094  -2.259 129.841  0.00  0.00    +0.000 C 
ATOM     11  O   UNL     1      -5.931  -2.060 130.727  0.00  0.00    +0.000 OA
ENDBRANCH   1  10
BRANCH   4  12
ATOM     12  N   UNL     1      -8.110  -0.203 126.589  0.00  0.00    +0.000 N 
ATOM     13  C   UNL     1      -9.076  -0.493 125.644  0.00  0.00    +0.000 C 
ATOM     14  O   UNL     1      -9.949  -1.344 125.764  0.00  0.00    +0.000 OA
ATOM     15  H   UNL     1      -7.376   0.467 126.341  0.00  0.00    +0.000 HD
BRANCH  13  16
ATOM     16  C   UNL     1      -8.995   0.347 124.354  0.00  0.00    +0.000 C 
ATOM     17  O   UNL     1      -9.730   0.044 123.418  0.00  0.00    +0.000 OA
ATOM     18  N   UNL     1      -8.041   1.353 124.369  0.00  0.00    +0.000 N 
ATOM     19  C   UNL     1      -7.799   2.163 123.252  0.00  0.00    +0.000 A 
ATOM     20  N   UNL     1      -6.518   2.462 122.944  0.00  0.00    +0.000 NA
ATOM     21  C   UNL     1      -6.312   3.163 121.789  0.00  0.00    +0.000 A 
ATOM     22  C   UNL     1      -7.329   3.644 120.974  0.00  0.00    +0.000 A 
ATOM     23 CL   UNL     1      -6.998   4.520 119.535  0.00  0.00    +0.000 Cl
ATOM     24  C   UNL     1      -8.636   3.401 121.358  0.00  0.00    +0.000 A 
ATOM     25  C   UNL     1      -8.871   2.645 122.505  0.00  0.00    +0.000 A 
ATOM     26  H   UNL     1      -7.330   1.323 125.091  0.00  0.00    +0.000 HD
ENDBRANCH  13  16
ENDBRANCH   4  12
BRANCH   5  27
ATOM     27  N   UNL     1      -7.881   1.302 129.094  0.00  0.00    +0.000 N 
ATOM     28  C   UNL     1      -8.130   1.949 130.308  0.00  0.00    +0.000 C 
ATOM     29  O   UNL     1      -7.857   1.401 131.383  0.00  0.00    +0.000 OA
ATOM     30  H   UNL     1      -7.982   1.856 128.248  0.00  0.00    +0.000 HD
BRANCH  28  31
ATOM     31  C   UNL     1      -8.715   3.287 130.259  0.00  0.00    +0.000 A 
ATOM     32  N   UNL     1      -8.693   4.057 129.187  0.00  0.00    +0.000 NA
ATOM     33  C   UNL     1      -9.471   5.169 129.437  0.00  0.00    +0.000 A 
ATOM     34  C   UNL     1     -10.014   5.291 130.702  0.00  0.00    +0.000 A 
ATOM     35  C   UNL     1     -10.849   6.462 131.160  0.00  0.00    +0.000 C 
ATOM     36  N   UNL     1     -11.337   7.275 130.006  0.00  0.00    +0.000 NA
ATOM     37  C   UNL     1     -12.501   6.638 129.376  0.00  0.00    +0.000 C 
ATOM     38  C   UNL     1     -10.246   7.477 129.015  0.00  0.00    +0.000 C 
ATOM     39  C   UNL     1      -9.745   6.167 128.375  0.00  0.00    +0.000 C 
ATOM     40  S   UNL     1      -9.585   3.923 131.622  0.00  0.00    +0.000 S 
ENDBRANCH  28  31
ENDBRANCH   5  27
TORSDOF 5
ENDMDL
MODEL 5
REMARK VINA RESULT:      -9.0      4.332      7.233
REMARK  Name = Edoxaban
REMARK  8 active torsions:
REMARK  status: ('A' for Active; 'I' for Inactive)
REMARK    1  A    between atoms: C_1  and  N_2
REMARK    2  A    between atoms: N_2  and  C_3
REMARK    3  A    between atoms: C_4  and  C_6
REMARK    4  A    between atoms: C_9  and  N_10
REMARK    5  A    between atoms: C_11  and  C_13
REMARK    6  A    between atoms: C_23  and  N_25
REMARK    7  A    between atoms: C_26  and  C_28
REMARK    8  A    between atoms: N_33  and  C_34
REMARK                            x       y       z     vdW  Elec       q    Type
REMARK                         _______ _______ _______ _____ _____    ______ ____
ROOT
ATOM      1  C   UNL     1      -5.461   0.301 131.720  0.00  0.00    +0.000 C 
ATOM      2  C   UNL     1      -4.161   0.892 131.176  0.00  0.00    +0.000 C 
ATOM      3  C   UNL     1      -4.314   1.224 129.697  0.00  0.00    +0.000 C 
ATOM      4  C   UNL     1      -5.315   2.381 129.534  0.00  0.00    +0.000 C 
ATOM      5  C   UNL     1      -6.685   2.039 130.208  0.00  0.00    +0.000 C 
ATOM      6  C   UNL     1      -6.515   1.418 131.620  0.00  0.00    +0.000 C 
ENDROOT
BRANCH   1  10
ATOM      7  C   UNL     1      -5.985  -3.422 130.886  0.00  0.00    +0.000 C 
ATOM      8  N   UNL     1      -5.451  -2.218 131.491  0.00  0.00    +0.000 N 
ATOM      9  C   UNL     1      -4.359  -2.394 132.429  0.00  0.00    +0.000 C 
ATOM     10  C   UNL     1      -5.971  -1.000 131.072  0.00  0.00    +0.000 C 
ATOM     11  O   UNL     1      -6.875  -0.957 130.231  0.00  0.00    +0.000 OA
ENDBRANCH   1  10
BRANCH   4  12
ATOM     12  N   UNL     1      -4.732   3.617 130.052  0.00  0.00    +0.000 N 
ATOM     13  C   UNL     1      -4.916   4.842 129.440  0.00  0.00    +0.000 C 
ATOM     14  O   UNL     1      -5.586   5.035 128.431  0.00  0.00    +0.000 OA
ATOM     15  H   UNL     1      -4.077   3.563 130.838  0.00  0.00    +0.000 HD
BRANCH  13  16
ATOM     16  C   UNL     1      -4.192   6.023 130.116  0.00  0.00    +0.000 C 
ATOM     17  O   UNL     1      -4.417   7.156 129.700  0.00  0.00    +0.000 OA
ATOM     18  N   UNL     1      -3.302   5.667 131.118  0.00  0.00    +0.000 N 
ATOM     19  C   UNL     1      -2.518   6.617 131.787  0.00  0.00    +0.000 A 
ATOM     20  N   UNL     1      -1.229   6.313 132.048  0.00  0.00    +0.000 NA
ATOM     21  C   UNL     1      -0.465   7.301 132.604  0.00  0.00    +0.000 A 
ATOM     22  C   UNL     1      -0.952   8.547 132.980  0.00  0.00    +0.000 A 
ATOM     23 CL   UNL     1       0.065   9.743 133.675  0.00  0.00    +0.000 Cl
ATOM     24  C   UNL     1      -2.297   8.802 132.784  0.00  0.00    +0.000 A 
ATOM     25  C   UNL     1      -3.086   7.829 132.172  0.00  0.00    +0.000 A 
ATOM     26  H   UNL     1      -3.017   4.696 131.177  0.00  0.00    +0.000 HD
ENDBRANCH  13  16
ENDBRANCH   4  12
BRANCH   5  27
ATOM     27  N   UNL     1      -7.627   3.188 130.222  0.00  0.00    +0.000 N 
ATOM     28  C   UNL     1      -8.543   3.472 129.206  0.00  0.00    +0.000 C 
ATOM     29  O   UNL     1      -8.634   2.737 128.214  0.00  0.00    +0.000 OA
ATOM     30  H   UNL     1      -7.702   3.735 131.076  0.00  0.00    +0.000 HD
BRANCH  28  31
ATOM     31  C   UNL     1      -9.385   4.656 129.358  0.00  0.00    +0.000 A 
ATOM     32  N   UNL     1      -9.308   5.714 128.572  0.00  0.00    +0.000 NA
ATOM     33  C   UNL     1     -10.346   6.566 128.890  0.00  0.00    +0.000 A 
ATOM     34  C   UNL     1     -11.157   6.208 129.950  0.00  0.00    +0.000 A 
ATOM     35  C   UNL     1     -12.307   7.042 130.461  0.00  0.00    +0.000 C 
ATOM     36  N   UNL     1     -12.708   8.090 129.475  0.00  0.00    +0.000 NA
ATOM     37  C   UNL     1     -13.544   7.513 128.414  0.00  0.00    +0.000 C 
ATOM     38  C   UNL     1     -11.504   8.749 128.900  0.00  0.00    +0.000 C 
ATOM     39  C   UNL     1     -10.604   7.791 128.095  0.00  0.00    +0.000 C 
ATOM     40  S   UNL     1     -10.641   4.703 130.557  0.00  0.00    +0.000 S 
ENDBRANCH  28  31
ENDBRANCH   5  27
TORSDOF 5
ENDMDL
MODEL 6
REMARK VINA RESULT:      -9.0      3.805      8.919
REMARK  Name = Edoxaban
REMARK  8 active torsions:
REMARK  status: ('A' for Active; 'I' for Inactive)
REMARK    1  A    between atoms: C_1  and  N_2
REMARK    2  A    between atoms: N_2  and  C_3
REMARK    3  A    between atoms: C_4  and  C_6
REMARK    4  A    between atoms: C_9  and  N_10
REMARK    5  A    between atoms: C_11  and  C_13
REMARK    6  A    between atoms: C_23  and  N_25
REMARK    7  A    between atoms: C_26  and  C_28
REMARK    8  A    between atoms: N_33  and  C_34
REMARK                            x       y       z     vdW  Elec       q    Type
REMARK                         _______ _______ _______ _____ _____    ______ ____
ROOT
ATOM      1  C   UNL     1      -7.058   0.204 125.034  0.00  0.00    +0.000 C 
ATOM      2  C   UNL     1      -8.351   0.015 125.828  0.00  0.00    +0.000 C 
ATOM      3  C   UNL     1      -8.039  -0.537 127.213  0.00  0.00    +0.000 C 
ATOM      4  C   UNL     1      -7.284   0.525 128.029  0.00  0.00    +0.000 C 
ATOM      5  C   UNL     1      -5.996   1.001 127.279  0.00  0.00    +0.000 C 
ATOM      6  C   UNL     1      -6.254   1.287 125.776  0.00  0.00    +0.000 C 
ENDROOT
BRANCH   1  10
ATOM      7  C   UNL     1      -5.652  -3.025 123.477  0.00  0.00    +0.000 C 
ATOM      8  N   UNL     1      -6.509  -1.879 123.710  0.00  0.00    +0.000 N 
ATOM      9  C   UNL     1      -7.667  -1.752 122.847  0.00  0.00    +0.000 C 
ATOM     10  C   UNL     1      -6.198  -1.046 124.777  0.00  0.00    +0.000 C 
ATOM     11  O   UNL     1      -5.208  -1.269 125.482  0.00  0.00    +0.000 OA
ENDBRANCH   1  10
BRANCH   4  12
ATOM     12  N   UNL     1      -8.182   1.633 128.352  0.00  0.00    +0.000 N 
ATOM     13  C   UNL     1      -8.176   2.264 129.581  0.00  0.00    +0.000 C 
ATOM     14  O   UNL     1      -7.426   1.991 130.512  0.00  0.00    +0.000 OA
ATOM     15  H   UNL     1      -8.916   1.885 127.682  0.00  0.00    +0.000 HD
BRANCH  13  16
ATOM     16  C   UNL     1      -9.221   3.386 129.742  0.00  0.00    +0.000 C 
ATOM     17  O   UNL     1     -10.293   3.108 130.271  0.00  0.00    +0.000 OA
ATOM     18  N   UNL     1      -8.848   4.612 129.214  0.00  0.00    +0.000 N 
ATOM     19  C   UNL     1      -9.710   5.717 129.222  0.00  0.00    +0.000 A 
ATOM     20  N   UNL     1      -9.762   6.496 128.120  0.00  0.00    +0.000 NA
ATOM     21  C   UNL     1     -10.691   7.499 128.121  0.00  0.00    +0.000 A 
ATOM     22  C   UNL     1     -11.510   7.805 129.200  0.00  0.00    +0.000 A 
ATOM     23 CL   UNL     1     -12.655   9.083 129.133  0.00  0.00    +0.000 Cl
ATOM     24  C   UNL     1     -11.375   7.049 130.351  0.00  0.00    +0.000 A 
ATOM     25  C   UNL     1     -10.471   5.988 130.357  0.00  0.00    +0.000 A 
ATOM     26  H   UNL     1      -8.060   4.636 128.578  0.00  0.00    +0.000 HD
ENDBRANCH  13  16
ENDBRANCH   4  12
BRANCH   5  27
ATOM     27  N   UNL     1      -5.324   2.144 127.949  0.00  0.00    +0.000 N 
ATOM     28  C   UNL     1      -5.657   3.486 127.746  0.00  0.00    +0.000 C 
ATOM     29  O   UNL     1      -6.581   3.800 126.985  0.00  0.00    +0.000 OA
ATOM     30  H   UNL     1      -4.664   1.942 128.695  0.00  0.00    +0.000 HD
BRANCH  28  31
ATOM     31  C   UNL     1      -4.884   4.497 128.463  0.00  0.00    +0.000 A 
ATOM     32  N   UNL     1      -5.426   5.431 129.223  0.00  0.00    +0.000 NA
ATOM     33  C   UNL     1      -4.412   6.103 129.873  0.00  0.00    +0.000 A 
ATOM     34  C   UNL     1      -3.114   5.748 129.559  0.00  0.00    +0.000 A 
ATOM     35  C   UNL     1      -1.887   6.409 130.140  0.00  0.00    +0.000 C 
ATOM     36  N   UNL     1      -2.217   7.214 131.354  0.00  0.00    +0.000 NA
ATOM     37  C   UNL     1      -2.357   6.346 132.531  0.00  0.00    +0.000 C 
ATOM     38  C   UNL     1      -3.458   8.004 131.131  0.00  0.00    +0.000 C 
ATOM     39  C   UNL     1      -4.709   7.134 130.898  0.00  0.00    +0.000 C 
ATOM     40  S   UNL     1      -3.147   4.468 128.436  0.00  0.00    +0.000 S 
ENDBRANCH  28  31
ENDBRANCH   5  27
TORSDOF 5
ENDMDL
MODEL 7
REMARK VINA RESULT:      -8.7      4.925      9.437
REMARK  Name = Edoxaban
REMARK  8 active torsions:
REMARK  status: ('A' for Active; 'I' for Inactive)
REMARK    1  A    between atoms: C_1  and  N_2
REMARK    2  A    between atoms: N_2  and  C_3
REMARK    3  A    between atoms: C_4  and  C_6
REMARK    4  A    between atoms: C_9  and  N_10
REMARK    5  A    between atoms: C_11  and  C_13
REMARK    6  A    between atoms: C_23  and  N_25
REMARK    7  A    between atoms: C_26  and  C_28
REMARK    8  A    between atoms: N_33  and  C_34
REMARK                            x       y       z     vdW  Elec       q    Type
REMARK                         _______ _______ _______ _____ _____    ______ ____
ROOT
ATOM      1  C   UNL     1      -9.883   6.273 129.434  0.00  0.00    +0.000 C 
ATOM      2  C   UNL     1      -9.396   6.991 130.692  0.00  0.00    +0.000 C 
ATOM      3  C   UNL     1      -9.883   6.258 131.936  0.00  0.00    +0.000 C 
ATOM      4  C   UNL     1      -9.187   4.890 132.027  0.00  0.00    +0.000 C 
ATOM      5  C   UNL     1      -9.412   4.055 130.723  0.00  0.00    +0.000 C 
ATOM      6  C   UNL     1      -9.199   4.895 129.435  0.00  0.00    +0.000 C 
ENDROOT
BRANCH   1  10
ATOM      7  C   UNL     1     -13.528   6.967 128.405  0.00  0.00    +0.000 C 
ATOM      8  N   UNL     1     -12.104   7.151 128.601  0.00  0.00    +0.000 N 
ATOM      9  C   UNL     1     -11.551   8.422 128.177  0.00  0.00    +0.000 C 
ATOM     10  C   UNL     1     -11.404   6.136 129.242  0.00  0.00    +0.000 C 
ATOM     11  O   UNL     1     -11.981   5.106 129.606  0.00  0.00    +0.000 OA
ENDBRANCH   1  10
BRANCH   4  12
ATOM     12  N   UNL     1      -7.770   5.074 132.334  0.00  0.00    +0.000 N 
ATOM     13  C   UNL     1      -7.088   4.264 133.222  0.00  0.00    +0.000 C 
ATOM     14  O   UNL     1      -7.570   3.312 133.824  0.00  0.00    +0.000 OA
ATOM     15  H   UNL     1      -7.286   5.896 131.959  0.00  0.00    +0.000 HD
BRANCH  13  16
ATOM     16  C   UNL     1      -5.608   4.639 133.439  0.00  0.00    +0.000 C 
ATOM     17  O   UNL     1      -5.023   4.156 134.405  0.00  0.00    +0.000 OA
ATOM     18  N   UNL     1      -5.094   5.545 132.524  0.00  0.00    +0.000 N 
ATOM     19  C   UNL     1      -3.785   6.036 132.621  0.00  0.00    +0.000 A 
ATOM     20  N   UNL     1      -3.574   7.348 132.380  0.00  0.00    +0.000 NA
ATOM     21  C   UNL     1      -2.306   7.814 132.588  0.00  0.00    +0.000 A 
ATOM     22  C   UNL     1      -1.229   7.016 132.949  0.00  0.00    +0.000 A 
ATOM     23 CL   UNL     1       0.340   7.669 133.193  0.00  0.00    +0.000 Cl
ATOM     24  C   UNL     1      -1.452   5.659 133.103  0.00  0.00    +0.000 A 
ATOM     25  C   UNL     1      -2.746   5.167 132.946  0.00  0.00    +0.000 A 
ATOM     26  H   UNL     1      -5.748   6.062 131.947  0.00  0.00    +0.000 HD
ENDBRANCH  13  16
ENDBRANCH   4  12
BRANCH   5  27
ATOM     27  N   UNL     1      -8.623   2.797 130.696  0.00  0.00    +0.000 N 
ATOM     28  C   UNL     1      -9.013   1.605 131.313  0.00  0.00    +0.000 C 
ATOM     29  O   UNL     1     -10.090   1.530 131.917  0.00  0.00    +0.000 OA
ATOM     30  H   UNL     1      -7.807   2.755 130.091  0.00  0.00    +0.000 HD
BRANCH  28  31
ATOM     31  C   UNL     1      -8.112   0.460 131.216  0.00  0.00    +0.000 A 
ATOM     32  N   UNL     1      -8.494  -0.742 130.825  0.00  0.00    +0.000 NA
ATOM     33  C   UNL     1      -7.371  -1.532 130.690  0.00  0.00    +0.000 A 
ATOM     34  C   UNL     1      -6.159  -0.974 131.047  0.00  0.00    +0.000 A 
ATOM     35  C   UNL     1      -4.840  -1.708 131.006  0.00  0.00    +0.000 C 
ATOM     36  N   UNL     1      -4.929  -2.957 130.191  0.00  0.00    +0.000 NA
ATOM     37  C   UNL     1      -4.849  -2.649 128.757  0.00  0.00    +0.000 C 
ATOM     38  C   UNL     1      -6.185  -3.691 130.504  0.00  0.00    +0.000 C 
ATOM     39  C   UNL     1      -7.462  -2.907 130.144  0.00  0.00    +0.000 C 
ATOM     40  S   UNL     1      -6.411   0.641 131.525  0.00  0.00    +0.000 S 
ENDBRANCH  28  31
ENDBRANCH   5  27
TORSDOF 5
ENDMDL
MODEL 8
REMARK VINA RESULT:      -8.6      4.354      7.710
REMARK  Name = Edoxaban
REMARK  8 active torsions:
REMARK  status: ('A' for Active; 'I' for Inactive)
REMARK    1  A    between atoms: C_1  and  N_2
REMARK    2  A    between atoms: N_2  and  C_3
REMARK    3  A    between atoms: C_4  and  C_6
REMARK    4  A    between atoms: C_9  and  N_10
REMARK    5  A    between atoms: C_11  and  C_13
REMARK    6  A    between atoms: C_23  and  N_25
REMARK    7  A    between atoms: C_26  and  C_28
REMARK    8  A    between atoms: N_33  and  C_34
REMARK                            x       y       z     vdW  Elec       q    Type
REMARK                         _______ _______ _______ _____ _____    ______ ____
ROOT
ATOM      1  C   UNL     1      -5.910  -2.166 127.610  0.00  0.00    +0.000 C 
ATOM      2  C   UNL     1      -6.921  -1.874 126.501  0.00  0.00    +0.000 C 
ATOM      3  C   UNL     1      -8.092  -1.072 127.057  0.00  0.00    +0.000 C 
ATOM      4  C   UNL     1      -7.606   0.330 127.460  0.00  0.00    +0.000 C 
ATOM      5  C   UNL     1      -6.416   0.244 128.473  0.00  0.00    +0.000 C 
ATOM      6  C   UNL     1      -5.349  -0.802 128.049  0.00  0.00    +0.000 C 
ENDROOT
BRANCH   1  10
ATOM      7  C   UNL     1      -5.982  -4.308 130.809  0.00  0.00    +0.000 C 
ATOM      8  N   UNL     1      -5.479  -3.587 129.657  0.00  0.00    +0.000 N 
ATOM      9  C   UNL     1      -4.047  -3.637 129.438  0.00  0.00    +0.000 C 
ATOM     10  C   UNL     1      -6.406  -2.977 128.822  0.00  0.00    +0.000 C 
ATOM     11  O   UNL     1      -7.613  -3.031 129.075  0.00  0.00    +0.000 OA
ENDBRANCH   1  10
BRANCH   4  12
ATOM     12  N   UNL     1      -7.266   1.100 126.265  0.00  0.00    +0.000 N 
ATOM     13  C   UNL     1      -7.615   2.428 126.110  0.00  0.00    +0.000 C 
ATOM     14  O   UNL     1      -8.214   3.103 126.939  0.00  0.00    +0.000 OA
ATOM     15  H   UNL     1      -6.847   0.613 125.467  0.00  0.00    +0.000 HD
BRANCH  13  16
ATOM     16  C   UNL     1      -7.199   3.057 124.765  0.00  0.00    +0.000 C 
ATOM     17  O   UNL     1      -6.353   3.946 124.778  0.00  0.00    +0.000 OA
ATOM     18  N   UNL     1      -7.877   2.571 123.658  0.00  0.00    +0.000 N 
ATOM     19  C   UNL     1      -7.662   3.084 122.371  0.00  0.00    +0.000 A 
ATOM     20  N   UNL     1      -8.733   3.277 121.572  0.00  0.00    +0.000 NA
ATOM     21  C   UNL     1      -8.499   3.878 120.367  0.00  0.00    +0.000 A 
ATOM     22  C   UNL     1      -7.238   4.220 119.895  0.00  0.00    +0.000 A 
ATOM     23 CL   UNL     1      -7.016   4.972 118.368  0.00  0.00    +0.000 Cl
ATOM     24  C   UNL     1      -6.147   3.929 120.696  0.00  0.00    +0.000 A 
ATOM     25  C   UNL     1      -6.364   3.363 121.950  0.00  0.00    +0.000 A 
ATOM     26  H   UNL     1      -8.726   2.039 123.815  0.00  0.00    +0.000 HD
ENDBRANCH  13  16
ENDBRANCH   4  12
BRANCH   5  27
ATOM     27  N   UNL     1      -5.805   1.566 128.763  0.00  0.00    +0.000 N 
ATOM     28  C   UNL     1      -5.321   1.956 130.015  0.00  0.00    +0.000 C 
ATOM     29  O   UNL     1      -5.359   1.179 130.976  0.00  0.00    +0.000 OA
ATOM     30  H   UNL     1      -5.610   2.186 127.981  0.00  0.00    +0.000 HD
BRANCH  28  31
ATOM     31  C   UNL     1      -4.770   3.303 130.143  0.00  0.00    +0.000 A 
ATOM     32  N   UNL     1      -5.103   4.141 131.107  0.00  0.00    +0.000 NA
ATOM     33  C   UNL     1      -4.281   5.246 131.023  0.00  0.00    +0.000 A 
ATOM     34  C   UNL     1      -3.388   5.293 129.970  0.00  0.00    +0.000 A 
ATOM     35  C   UNL     1      -2.449   6.444 129.701  0.00  0.00    +0.000 C 
ATOM     36  N   UNL     1      -2.319   7.339 130.890  0.00  0.00    +0.000 NA
ATOM     37  C   UNL     1      -1.396   6.762 131.877  0.00  0.00    +0.000 C 
ATOM     38  C   UNL     1      -3.654   7.589 131.499  0.00  0.00    +0.000 C 
ATOM     39  C   UNL     1      -4.327   6.316 132.050  0.00  0.00    +0.000 C 
ATOM     40  S   UNL     1      -3.533   3.862 129.058  0.00  0.00    +0.000 S 
ENDBRANCH  28  31
ENDBRANCH   5  27
TORSDOF 5
ENDMDL
MODEL 9
REMARK VINA RESULT:      -8.5      3.712      9.053
REMARK  Name = Edoxaban
REMARK  8 active torsions:
REMARK  status: ('A' for Active; 'I' for Inactive)
REMARK    1  A    between atoms: C_1  and  N_2
REMARK    2  A    between atoms: N_2  and  C_3
REMARK    3  A    between atoms: C_4  and  C_6
REMARK    4  A    between atoms: C_9  and  N_10
REMARK    5  A    between atoms: C_11  and  C_13
REMARK    6  A    between atoms: C_23  and  N_25
REMARK    7  A    between atoms: C_26  and  C_28
REMARK    8  A    between atoms: N_33  and  C_34
REMARK                            x       y       z     vdW  Elec       q    Type
REMARK                         _______ _______ _______ _____ _____    ______ ____
ROOT
ATOM      1  C   UNL     1      -6.576   0.972 125.582  0.00  0.00    +0.000 C 
ATOM      2  C   UNL     1      -8.004   1.214 126.073  0.00  0.00    +0.000 C 
ATOM      3  C   UNL     1      -8.174   0.664 127.483  0.00  0.00    +0.000 C 
ATOM      4  C   UNL     1      -7.327   1.495 128.461  0.00  0.00    +0.000 C 
ATOM      5  C   UNL     1      -5.826   1.530 128.018  0.00  0.00    +0.000 C 
ATOM      6  C   UNL     1      -5.662   1.804 126.499  0.00  0.00    +0.000 C 
ENDROOT
BRANCH   1  10
ATOM      7  C   UNL     1      -5.816  -2.571 124.279  0.00  0.00    +0.000 C 
ATOM      8  N   UNL     1      -6.318  -1.212 124.334  0.00  0.00    +0.000 N 
ATOM      9  C   UNL     1      -7.081  -0.758 123.188  0.00  0.00    +0.000 C 
ATOM     10  C   UNL     1      -6.096  -0.488 125.498  0.00  0.00    +0.000 C 
ATOM     11  O   UNL     1      -5.469  -0.986 126.439  0.00  0.00    +0.000 OA
ENDBRANCH   1  10
BRANCH   4  12
ATOM     12  N   UNL     1      -7.899   2.833 128.599  0.00  0.00    +0.000 N 
ATOM     13  C   UNL     1      -8.141   3.417 129.828  0.00  0.00    +0.000 C 
ATOM     14  O   UNL     1      -7.895   2.906 130.914  0.00  0.00    +0.000 OA
ATOM     15  H   UNL     1      -8.230   3.317 127.759  0.00  0.00    +0.000 HD
BRANCH  13  16
ATOM     16  C   UNL     1      -8.781   4.818 129.767  0.00  0.00    +0.000 C 
ATOM     17  O   UNL     1      -8.038   5.795 129.751  0.00  0.00    +0.000 OA
ATOM     18  N   UNL     1     -10.168   4.830 129.784  0.00  0.00    +0.000 N 
ATOM     19  C   UNL     1     -10.900   6.024 129.798  0.00  0.00    +0.000 A 
ATOM     20  N   UNL     1     -11.984   6.101 130.600  0.00  0.00    +0.000 NA
ATOM     21  C   UNL     1     -12.611   7.313 130.671  0.00  0.00    +0.000 A 
ATOM     22  C   UNL     1     -12.251   8.425 129.920  0.00  0.00    +0.000 A 
ATOM     23 CL   UNL     1     -13.085   9.919 130.058  0.00  0.00    +0.000 Cl
ATOM     24  C   UNL     1     -11.192   8.295 129.039  0.00  0.00    +0.000 A 
ATOM     25  C   UNL     1     -10.505   7.084 128.985  0.00  0.00    +0.000 A 
ATOM     26  H   UNL     1     -10.647   3.982 130.064  0.00  0.00    +0.000 HD
ENDBRANCH  13  16
ENDBRANCH   4  12
BRANCH   5  27
ATOM     27  N   UNL     1      -5.001   2.456 128.836  0.00  0.00    +0.000 N 
ATOM     28  C   UNL     1      -4.502   2.156 130.107  0.00  0.00    +0.000 C 
ATOM     29  O   UNL     1      -4.713   1.052 130.624  0.00  0.00    +0.000 OA
ATOM     30  H   UNL     1      -4.671   3.313 128.403  0.00  0.00    +0.000 HD
BRANCH  28  31
ATOM     31  C   UNL     1      -3.726   3.185 130.794  0.00  0.00    +0.000 A 
ATOM     32  N   UNL     1      -3.115   4.178 130.175  0.00  0.00    +0.000 NA
ATOM     33  C   UNL     1      -2.624   5.046 131.127  0.00  0.00    +0.000 A 
ATOM     34  C   UNL     1      -2.782   4.688 132.452  0.00  0.00    +0.000 A 
ATOM     35  C   UNL     1      -2.266   5.495 133.619  0.00  0.00    +0.000 C 
ATOM     36  N   UNL     1      -1.909   6.887 133.212  0.00  0.00    +0.000 NA
ATOM     37  C   UNL     1      -3.112   7.725 133.111  0.00  0.00    +0.000 C 
ATOM     38  C   UNL     1      -1.165   6.875 131.923  0.00  0.00    +0.000 C 
ATOM     39  C   UNL     1      -1.990   6.330 130.741  0.00  0.00    +0.000 C 
ATOM     40  S   UNL     1      -3.640   3.218 132.529  0.00  0.00    +0.000 S 
ENDBRANCH  28  31
ENDBRANCH   5  27
TORSDOF 5
ENDMDL
