MODEL 1
REMARK VINA RESULT:      -6.7      0.000      0.000
REMARK  Name = Edoxudine
REMARK  6 active torsions:
REMARK  status: ('A' for Active; 'I' for Inactive)
REMARK    1  A    between atoms: C_1  and  C_2
REMARK    2  A    between atoms: C_2  and  C_3
REMARK    3  A    between atoms: N_5  and  C1*_6
REMARK    4  A    between atoms: C3*_8  and  O3*_9
REMARK    5  A    between atoms: C4*_10  and  C5*_11
REMARK    6  A    between atoms: C5*_11  and  O5*_12
REMARK                            x       y       z     vdW  Elec       q    Type
REMARK                         _______ _______ _______ _____ _____    ______ ____
ROOT
ATOM      1  C   UNL     1      -6.514   4.240 120.347  0.00  0.00    +0.000 A 
ATOM      2  C   UNL     1      -6.949   3.373 121.278  0.00  0.00    +0.000 A 
ATOM      3  N   UNL     1      -6.461   3.364 122.576  0.00  0.00    +0.000 N 
ATOM      4  C   UNL     1      -5.360   4.128 122.934  0.00  0.00    +0.000 A 
ATOM      5  O   UNL     1      -4.944   4.267 124.080  0.00  0.00    +0.000 OA
ATOM      6  N   UNL     1      -4.745   4.781 121.907  0.00  0.00    +0.000 N 
ATOM      7  C   UNL     1      -5.338   5.070 120.722  0.00  0.00    +0.000 A 
ATOM      8  O   UNL     1      -4.887   5.980 120.032  0.00  0.00    +0.000 OA
ATOM      9  H   UNL     1      -3.970   5.374 122.153  0.00  0.00    +0.000 HD
ENDROOT
BRANCH   3  10
ATOM     10  C1* UNL     1      -7.150   2.639 123.637  0.00  0.00    +0.000 C 
ATOM     11  C2* UNL     1      -8.343   3.379 124.235  0.00  0.00    +0.000 C 
ATOM     12  C3* UNL     1      -9.234   2.246 124.684  0.00  0.00    +0.000 C 
ATOM     13  C4* UNL     1      -8.950   1.147 123.659  0.00  0.00    +0.000 C 
ATOM     14  O4* UNL     1      -7.631   1.385 123.129  0.00  0.00    +0.000 OA
BRANCH  12  15
ATOM     15  O3* UNL     1      -8.868   1.838 126.003  0.00  0.00    +0.000 OA
ATOM     16  H3* UNL     1      -8.775   2.621 126.574  0.00  0.00    +0.000 HD
ENDBRANCH  12  15
BRANCH  13  17
ATOM     17  C5* UNL     1      -9.943   1.162 122.496  0.00  0.00    +0.000 C 
BRANCH  17  18
ATOM     18  O5* UNL     1     -10.737  -0.015 122.471  0.00  0.00    +0.000 OA
ATOM     19  H5* UNL     1     -11.586   0.189 122.901  0.00  0.00    +0.000 HD
ENDBRANCH  17  18
ENDBRANCH  13  17
ENDBRANCH   3  10
BRANCH   1  21
ATOM     20  C   UNL     1      -8.717   4.286 119.020  0.00  0.00    +0.000 C 
ATOM     21  C   UNL     1      -7.199   4.407 119.009  0.00  0.00    +0.000 C 
ENDBRANCH   1  21
TORSDOF 5
ENDMDL
MODEL 2
REMARK VINA RESULT:      -6.4      7.668     10.047
REMARK  Name = Edoxudine
REMARK  6 active torsions:
REMARK  status: ('A' for Active; 'I' for Inactive)
REMARK    1  A    between atoms: C_1  and  C_2
REMARK    2  A    between atoms: C_2  and  C_3
REMARK    3  A    between atoms: N_5  and  C1*_6
REMARK    4  A    between atoms: C3*_8  and  O3*_9
REMARK    5  A    between atoms: C4*_10  and  C5*_11
REMARK    6  A    between atoms: C5*_11  and  O5*_12
REMARK                            x       y       z     vdW  Elec       q    Type
REMARK                         _______ _______ _______ _____ _____    ______ ____
ROOT
ATOM      1  C   UNL     1      -9.029   5.430 130.872  0.00  0.00    +0.000 A 
ATOM      2  C   UNL     1     -10.022   5.734 130.018  0.00  0.00    +0.000 A 
ATOM      3  N   UNL     1     -11.230   6.272 130.438  0.00  0.00    +0.000 N 
ATOM      4  C   UNL     1     -11.550   6.353 131.785  0.00  0.00    +0.000 A 
ATOM      5  O   UNL     1     -12.538   6.922 132.240  0.00  0.00    +0.000 OA
ATOM      6  N   UNL     1     -10.654   5.769 132.632  0.00  0.00    +0.000 N 
ATOM      7  C   UNL     1      -9.358   5.519 132.320  0.00  0.00    +0.000 A 
ATOM      8  O   UNL     1      -8.539   5.381 133.223  0.00  0.00    +0.000 OA
ATOM      9  H   UNL     1     -10.847   5.854 133.617  0.00  0.00    +0.000 HD
ENDROOT
BRANCH   3  10
ATOM     10  C1* UNL     1     -12.159   6.874 129.489  0.00  0.00    +0.000 C 
ATOM     11  C2* UNL     1     -12.004   8.383 129.323  0.00  0.00    +0.000 C 
ATOM     12  C3* UNL     1     -12.470   8.602 127.905  0.00  0.00    +0.000 C 
ATOM     13  C4* UNL     1     -12.056   7.313 127.195  0.00  0.00    +0.000 C 
ATOM     14  O4* UNL     1     -11.979   6.278 128.195  0.00  0.00    +0.000 OA
BRANCH  12  15
ATOM     15  O3* UNL     1     -13.887   8.779 127.884  0.00  0.00    +0.000 OA
ATOM     16  H3* UNL     1     -14.323   7.919 127.751  0.00  0.00    +0.000 HD
ENDBRANCH  12  15
BRANCH  13  17
ATOM     17  C5* UNL     1     -10.689   7.430 126.520  0.00  0.00    +0.000 C 
BRANCH  17  18
ATOM     18  O5* UNL     1     -10.778   8.096 125.270  0.00  0.00    +0.000 OA
ATOM     19  H5* UNL     1     -11.680   7.966 124.926  0.00  0.00    +0.000 HD
ENDBRANCH  17  18
ENDBRANCH  13  17
ENDBRANCH   3  10
BRANCH   1  21
ATOM     20  C   UNL     1      -7.565   4.251 129.116  0.00  0.00    +0.000 C 
ATOM     21  C   UNL     1      -7.640   5.062 130.403  0.00  0.00    +0.000 C 
ENDBRANCH   1  21
TORSDOF 5
ENDMDL
MODEL 3
REMARK VINA RESULT:      -6.4      8.446     10.183
REMARK  Name = Edoxudine
REMARK  6 active torsions:
REMARK  status: ('A' for Active; 'I' for Inactive)
REMARK    1  A    between atoms: C_1  and  C_2
REMARK    2  A    between atoms: C_2  and  C_3
REMARK    3  A    between atoms: N_5  and  C1*_6
REMARK    4  A    between atoms: C3*_8  and  O3*_9
REMARK    5  A    between atoms: C4*_10  and  C5*_11
REMARK    6  A    between atoms: C5*_11  and  O5*_12
REMARK                            x       y       z     vdW  Elec       q    Type
REMARK                         _______ _______ _______ _____ _____    ______ ____
ROOT
ATOM      1  C   UNL     1     -11.363   8.150 128.593  0.00  0.00    +0.000 A 
ATOM      2  C   UNL     1     -10.735   7.421 129.533  0.00  0.00    +0.000 A 
ATOM      3  N   UNL     1     -11.328   7.094 130.743  0.00  0.00    +0.000 N 
ATOM      4  C   UNL     1     -12.534   7.660 131.128  0.00  0.00    +0.000 A 
ATOM      5  O   UNL     1     -13.178   7.334 132.120  0.00  0.00    +0.000 OA
ATOM      6  N   UNL     1     -13.017   8.625 130.294  0.00  0.00    +0.000 N 
ATOM      7  C   UNL     1     -12.661   8.757 128.992  0.00  0.00    +0.000 A 
ATOM      8  O   UNL     1     -13.407   9.357 128.224  0.00  0.00    +0.000 OA
ATOM      9  H   UNL     1     -13.913   9.018 130.534  0.00  0.00    +0.000 HD
ENDROOT
BRANCH   3  10
ATOM     10  C1* UNL     1     -10.764   6.062 131.605  0.00  0.00    +0.000 C 
ATOM     11  C2* UNL     1     -10.472   4.740 130.900  0.00  0.00    +0.000 C 
ATOM     12  C3* UNL     1      -9.321   4.191 131.707  0.00  0.00    +0.000 C 
ATOM     13  C4* UNL     1      -8.578   5.448 132.161  0.00  0.00    +0.000 C 
ATOM     14  O4* UNL     1      -9.530   6.530 132.172  0.00  0.00    +0.000 OA
BRANCH  12  15
ATOM     15  O3* UNL     1      -9.822   3.449 132.820  0.00  0.00    +0.000 OA
ATOM     16  H3* UNL     1     -10.188   2.602 132.510  0.00  0.00    +0.000 HD
ENDBRANCH  12  15
BRANCH  13  17
ATOM     17  C5* UNL     1      -7.436   5.825 131.216  0.00  0.00    +0.000 C 
BRANCH  17  18
ATOM     18  O5* UNL     1      -7.512   7.187 130.821  0.00  0.00    +0.000 OA
ATOM     19  H5* UNL     1      -8.395   7.518 131.062  0.00  0.00    +0.000 HD
ENDBRANCH  17  18
ENDBRANCH  13  17
ENDBRANCH   3  10
BRANCH   1  21
ATOM     20  C   UNL     1     -11.328   7.320 126.159  0.00  0.00    +0.000 C 
ATOM     21  C   UNL     1     -10.816   8.314 127.193  0.00  0.00    +0.000 C 
ENDBRANCH   1  21
TORSDOF 5
ENDMDL
MODEL 4
REMARK VINA RESULT:      -6.1      8.053      9.825
REMARK  Name = Edoxudine
REMARK  6 active torsions:
REMARK  status: ('A' for Active; 'I' for Inactive)
REMARK    1  A    between atoms: C_1  and  C_2
REMARK    2  A    between atoms: C_2  and  C_3
REMARK    3  A    between atoms: N_5  and  C1*_6
REMARK    4  A    between atoms: C3*_8  and  O3*_9
REMARK    5  A    between atoms: C4*_10  and  C5*_11
REMARK    6  A    between atoms: C5*_11  and  O5*_12
REMARK                            x       y       z     vdW  Elec       q    Type
REMARK                         _______ _______ _______ _____ _____    ______ ____
ROOT
ATOM      1  C   UNL     1     -11.991   7.974 128.779  0.00  0.00    +0.000 A 
ATOM      2  C   UNL     1     -11.847   7.250 129.903  0.00  0.00    +0.000 A 
ATOM      3  N   UNL     1     -10.743   6.443 130.134  0.00  0.00    +0.000 N 
ATOM      4  C   UNL     1      -9.813   6.194 129.136  0.00  0.00    +0.000 A 
ATOM      5  O   UNL     1      -8.754   5.595 129.295  0.00  0.00    +0.000 OA
ATOM      6  N   UNL     1     -10.127   6.700 127.909  0.00  0.00    +0.000 N 
ATOM      7  C   UNL     1     -10.996   7.721 127.703  0.00  0.00    +0.000 A 
ATOM      8  O   UNL     1     -10.921   8.372 126.664  0.00  0.00    +0.000 OA
ATOM      9  H   UNL     1      -9.444   6.567 127.180  0.00  0.00    +0.000 HD
ENDROOT
BRANCH   3  10
ATOM     10  C1* UNL     1     -10.459   5.916 131.464  0.00  0.00    +0.000 C 
ATOM     11  C2* UNL     1      -9.949   4.477 131.477  0.00  0.00    +0.000 C 
ATOM     12  C3* UNL     1      -9.095   4.449 132.721  0.00  0.00    +0.000 C 
ATOM     13  C4* UNL     1      -8.542   5.873 132.801  0.00  0.00    +0.000 C 
ATOM     14  O4* UNL     1      -9.465   6.732 132.102  0.00  0.00    +0.000 OA
BRANCH  12  15
ATOM     15  O3* UNL     1      -9.904   4.138 133.856  0.00  0.00    +0.000 OA
ATOM     16  H3* UNL     1     -10.822   4.416 133.690  0.00  0.00    +0.000 HD
ENDBRANCH  12  15
BRANCH  13  17
ATOM     17  C5* UNL     1      -7.170   6.005 132.139  0.00  0.00    +0.000 C 
BRANCH  17  18
ATOM     18  O5* UNL     1      -7.127   7.103 131.240  0.00  0.00    +0.000 OA
ATOM     19  H5* UNL     1      -7.645   6.863 130.451  0.00  0.00    +0.000 HD
ENDBRANCH  17  18
ENDBRANCH  13  17
ENDBRANCH   3  10
BRANCH   1  21
ATOM     20  C   UNL     1     -13.142  10.072 129.723  0.00  0.00    +0.000 C 
ATOM     21  C   UNL     1     -13.069   9.023 128.622  0.00  0.00    +0.000 C 
ENDBRANCH   1  21
TORSDOF 5
ENDMDL
MODEL 5
REMARK VINA RESULT:      -6.0      2.916      6.142
REMARK  Name = Edoxudine
REMARK  6 active torsions:
REMARK  status: ('A' for Active; 'I' for Inactive)
REMARK    1  A    between atoms: C_1  and  C_2
REMARK    2  A    between atoms: C_2  and  C_3
REMARK    3  A    between atoms: N_5  and  C1*_6
REMARK    4  A    between atoms: C3*_8  and  O3*_9
REMARK    5  A    between atoms: C4*_10  and  C5*_11
REMARK    6  A    between atoms: C5*_11  and  O5*_12
REMARK                            x       y       z     vdW  Elec       q    Type
REMARK                         _______ _______ _______ _____ _____    ______ ____
ROOT
ATOM      1  C   UNL     1      -7.612  -1.537 123.903  0.00  0.00    +0.000 A 
ATOM      2  C   UNL     1      -7.638  -0.196 123.992  0.00  0.00    +0.000 A 
ATOM      3  N   UNL     1      -8.729   0.558 123.585  0.00  0.00    +0.000 N 
ATOM      4  C   UNL     1      -9.781  -0.019 122.890  0.00  0.00    +0.000 A 
ATOM      5  O   UNL     1     -10.830   0.550 122.603  0.00  0.00    +0.000 OA
ATOM      6  N   UNL     1      -9.605  -1.328 122.548  0.00  0.00    +0.000 N 
ATOM      7  C   UNL     1      -8.739  -2.169 123.165  0.00  0.00    +0.000 A 
ATOM      8  O   UNL     1      -8.921  -3.380 123.088  0.00  0.00    +0.000 OA
ATOM      9  H   UNL     1     -10.376  -1.777 122.080  0.00  0.00    +0.000 HD
ENDROOT
BRANCH   3  10
ATOM     10  C1* UNL     1      -8.863   1.959 123.967  0.00  0.00    +0.000 C 
ATOM     11  C2* UNL     1      -8.300   2.294 125.345  0.00  0.00    +0.000 C 
ATOM     12  C3* UNL     1      -7.899   3.740 125.188  0.00  0.00    +0.000 C 
ATOM     13  C4* UNL     1      -7.490   3.833 123.717  0.00  0.00    +0.000 C 
ATOM     14  O4* UNL     1      -8.184   2.786 123.011  0.00  0.00    +0.000 OA
BRANCH  12  15
ATOM     15  O3* UNL     1      -9.014   4.585 125.475  0.00  0.00    +0.000 OA
ATOM     16  H3* UNL     1      -8.721   5.342 126.011  0.00  0.00    +0.000 HD
ENDBRANCH  12  15
BRANCH  13  17
ATOM     17  C5* UNL     1      -5.987   3.633 123.515  0.00  0.00    +0.000 C 
BRANCH  17  18
ATOM     18  O5* UNL     1      -5.367   4.806 123.010  0.00  0.00    +0.000 OA
ATOM     19  H5* UNL     1      -5.850   5.574 123.362  0.00  0.00    +0.000 HD
ENDBRANCH  17  18
ENDBRANCH  13  17
ENDBRANCH   3  10
BRANCH   1  21
ATOM     20  C   UNL     1      -5.449  -2.898 123.617  0.00  0.00    +0.000 C 
ATOM     21  C   UNL     1      -6.531  -2.373 124.551  0.00  0.00    +0.000 C 
ENDBRANCH   1  21
TORSDOF 5
ENDMDL
MODEL 6
REMARK VINA RESULT:      -6.0      3.164      4.885
REMARK  Name = Edoxudine
REMARK  6 active torsions:
REMARK  status: ('A' for Active; 'I' for Inactive)
REMARK    1  A    between atoms: C_1  and  C_2
REMARK    2  A    between atoms: C_2  and  C_3
REMARK    3  A    between atoms: N_5  and  C1*_6
REMARK    4  A    between atoms: C3*_8  and  O3*_9
REMARK    5  A    between atoms: C4*_10  and  C5*_11
REMARK    6  A    between atoms: C5*_11  and  O5*_12
REMARK                            x       y       z     vdW  Elec       q    Type
REMARK                         _______ _______ _______ _____ _____    ______ ____
ROOT
ATOM      1  C   UNL     1      -7.251   2.654 122.568  0.00  0.00    +0.000 A 
ATOM      2  C   UNL     1      -7.117   1.517 123.274  0.00  0.00    +0.000 A 
ATOM      3  N   UNL     1      -8.125   0.570 123.363  0.00  0.00    +0.000 N 
ATOM      4  C   UNL     1      -9.400   0.831 122.881  0.00  0.00    +0.000 A 
ATOM      5  O   UNL     1     -10.307   0.007 122.814  0.00  0.00    +0.000 OA
ATOM      6  N   UNL     1      -9.603   2.102 122.430  0.00  0.00    +0.000 N 
ATOM      7  C   UNL     1      -8.612   2.942 122.040  0.00  0.00    +0.000 A 
ATOM      8  O   UNL     1      -8.878   3.876 121.290  0.00  0.00    +0.000 OA
ATOM      9  H   UNL     1     -10.509   2.298 122.037  0.00  0.00    +0.000 HD
ENDROOT
BRANCH   3  10
ATOM     10  C1* UNL     1      -7.858  -0.773 123.865  0.00  0.00    +0.000 C 
ATOM     11  C2* UNL     1      -6.685  -1.477 123.190  0.00  0.00    +0.000 C 
ATOM     12  C3* UNL     1      -6.187  -2.394 124.281  0.00  0.00    +0.000 C 
ATOM     13  C4* UNL     1      -6.485  -1.612 125.561  0.00  0.00    +0.000 C 
ATOM     14  O4* UNL     1      -7.574  -0.713 125.271  0.00  0.00    +0.000 OA
BRANCH  12  15
ATOM     15  O3* UNL     1      -6.907  -3.627 124.241  0.00  0.00    +0.000 OA
ATOM     16  H3* UNL     1      -6.438  -4.261 123.670  0.00  0.00    +0.000 HD
ENDBRANCH  12  15
BRANCH  13  17
ATOM     17  C5* UNL     1      -5.290  -0.781 126.030  0.00  0.00    +0.000 C 
BRANCH  17  18
ATOM     18  O5* UNL     1      -5.046  -0.954 127.418  0.00  0.00    +0.000 OA
ATOM     19  H5* UNL     1      -5.706  -1.582 127.761  0.00  0.00    +0.000 HD
ENDBRANCH  17  18
ENDBRANCH  13  17
ENDBRANCH   3  10
BRANCH   1  21
ATOM     20  C   UNL     1      -5.420   3.396 120.922  0.00  0.00    +0.000 C 
ATOM     21  C   UNL     1      -6.087   3.574 122.280  0.00  0.00    +0.000 C 
ENDBRANCH   1  21
TORSDOF 5
ENDMDL
MODEL 7
REMARK VINA RESULT:      -5.7      5.888      7.779
REMARK  Name = Edoxudine
REMARK  6 active torsions:
REMARK  status: ('A' for Active; 'I' for Inactive)
REMARK    1  A    between atoms: C_1  and  C_2
REMARK    2  A    between atoms: C_2  and  C_3
REMARK    3  A    between atoms: N_5  and  C1*_6
REMARK    4  A    between atoms: C3*_8  and  O3*_9
REMARK    5  A    between atoms: C4*_10  and  C5*_11
REMARK    6  A    between atoms: C5*_11  and  O5*_12
REMARK                            x       y       z     vdW  Elec       q    Type
REMARK                         _______ _______ _______ _____ _____    ______ ____
ROOT
ATOM      1  C   UNL     1      -6.015  -2.360 124.119  0.00  0.00    +0.000 A 
ATOM      2  C   UNL     1      -6.125  -2.148 125.442  0.00  0.00    +0.000 A 
ATOM      3  N   UNL     1      -7.311  -1.746 126.038  0.00  0.00    +0.000 N 
ATOM      4  C   UNL     1      -8.403  -1.360 125.274  0.00  0.00    +0.000 A 
ATOM      5  O   UNL     1      -9.519  -1.110 125.720  0.00  0.00    +0.000 OA
ATOM      6  N   UNL     1      -8.181  -1.299 123.930  0.00  0.00    +0.000 N 
ATOM      7  C   UNL     1      -7.182  -1.956 123.290  0.00  0.00    +0.000 A 
ATOM      8  O   UNL     1      -7.285  -2.180 122.088  0.00  0.00    +0.000 OA
ATOM      9  H   UNL     1      -8.974  -1.062 123.355  0.00  0.00    +0.000 HD
ENDROOT
BRANCH   3  10
ATOM     10  C1* UNL     1      -7.493  -1.819 127.483  0.00  0.00    +0.000 C 
ATOM     11  C2* UNL     1      -7.805  -3.217 128.009  0.00  0.00    +0.000 C 
ATOM     12  C3* UNL     1      -7.236  -3.171 129.406  0.00  0.00    +0.000 C 
ATOM     13  C4* UNL     1      -6.040  -2.227 129.268  0.00  0.00    +0.000 C 
ATOM     14  O4* UNL     1      -6.300  -1.367 128.141  0.00  0.00    +0.000 OA
BRANCH  12  15
ATOM     15  O3* UNL     1      -8.213  -2.649 130.309  0.00  0.00    +0.000 OA
ATOM     16  H3* UNL     1      -8.064  -1.695 130.436  0.00  0.00    +0.000 HD
ENDBRANCH  12  15
BRANCH  13  17
ATOM     17  C5* UNL     1      -4.733  -2.976 129.007  0.00  0.00    +0.000 C 
BRANCH  17  18
ATOM     18  O5* UNL     1      -3.605  -2.128 129.163  0.00  0.00    +0.000 OA
ATOM     19  H5* UNL     1      -2.852  -2.680 129.440  0.00  0.00    +0.000 HD
ENDBRANCH  17  18
ENDBRANCH  13  17
ENDBRANCH   3  10
BRANCH   1  21
ATOM     20  C   UNL     1      -4.629  -4.500 123.779  0.00  0.00    +0.000 C 
ATOM     21  C   UNL     1      -4.800  -3.013 123.500  0.00  0.00    +0.000 C 
ENDBRANCH   1  21
TORSDOF 5
ENDMDL
MODEL 8
REMARK VINA RESULT:      -5.5      8.771     10.628
REMARK  Name = Edoxudine
REMARK  6 active torsions:
REMARK  status: ('A' for Active; 'I' for Inactive)
REMARK    1  A    between atoms: C_1  and  C_2
REMARK    2  A    between atoms: C_2  and  C_3
REMARK    3  A    between atoms: N_5  and  C1*_6
REMARK    4  A    between atoms: C3*_8  and  O3*_9
REMARK    5  A    between atoms: C4*_10  and  C5*_11
REMARK    6  A    between atoms: C5*_11  and  O5*_12
REMARK                            x       y       z     vdW  Elec       q    Type
REMARK                         _______ _______ _______ _____ _____    ______ ____
ROOT
ATOM      1  C   UNL     1      -8.806   5.166 131.394  0.00  0.00    +0.000 A 
ATOM      2  C   UNL     1      -9.508   5.416 130.275  0.00  0.00    +0.000 A 
ATOM      3  N   UNL     1     -10.764   6.004 130.296  0.00  0.00    +0.000 N 
ATOM      4  C   UNL     1     -11.446   6.196 131.488  0.00  0.00    +0.000 A 
ATOM      5  O   UNL     1     -12.500   6.814 131.603  0.00  0.00    +0.000 OA
ATOM      6  N   UNL     1     -10.846   5.669 132.594  0.00  0.00    +0.000 N 
ATOM      7  C   UNL     1      -9.525   5.375 132.680  0.00  0.00    +0.000 A 
ATOM      8  O   UNL     1      -8.999   5.296 133.786  0.00  0.00    +0.000 OA
ATOM      9  H   UNL     1     -11.305   5.835 133.475  0.00  0.00    +0.000 HD
ENDROOT
BRANCH   3  10
ATOM     10  C1* UNL     1     -11.366   6.542 129.082  0.00  0.00    +0.000 C 
ATOM     11  C2* UNL     1     -12.879   6.363 128.996  0.00  0.00    +0.000 C 
ATOM     12  C3* UNL     1     -13.296   7.541 128.150  0.00  0.00    +0.000 C 
ATOM     13  C4* UNL     1     -12.279   8.621 128.525  0.00  0.00    +0.000 C 
ATOM     14  O4* UNL     1     -11.093   7.949 128.992  0.00  0.00    +0.000 OA
BRANCH  12  15
ATOM     15  O3* UNL     1     -13.210   7.199 126.767  0.00  0.00    +0.000 OA
ATOM     16  H3* UNL     1     -12.330   7.437 126.425  0.00  0.00    +0.000 HD
ENDBRANCH  12  15
BRANCH  13  17
ATOM     17  C5* UNL     1     -12.783   9.536 129.642  0.00  0.00    +0.000 C 
BRANCH  17  18
ATOM     18  O5* UNL     1     -13.197  10.797 129.138  0.00  0.00    +0.000 OA
ATOM     19  H5* UNL     1     -13.455  11.351 129.896  0.00  0.00    +0.000 HD
ENDBRANCH  17  18
ENDBRANCH  13  17
ENDBRANCH   3  10
BRANCH   1  21
ATOM     20  C   UNL     1      -6.859   4.160 130.048  0.00  0.00    +0.000 C 
ATOM     21  C   UNL     1      -7.356   4.741 131.366  0.00  0.00    +0.000 C 
ENDBRANCH   1  21
TORSDOF 5
ENDMDL
MODEL 9
REMARK VINA RESULT:      -5.4      6.456      9.204
REMARK  Name = Edoxudine
REMARK  6 active torsions:
REMARK  status: ('A' for Active; 'I' for Inactive)
REMARK    1  A    between atoms: C_1  and  C_2
REMARK    2  A    between atoms: C_2  and  C_3
REMARK    3  A    between atoms: N_5  and  C1*_6
REMARK    4  A    between atoms: C3*_8  and  O3*_9
REMARK    5  A    between atoms: C4*_10  and  C5*_11
REMARK    6  A    between atoms: C5*_11  and  O5*_12
REMARK                            x       y       z     vdW  Elec       q    Type
REMARK                         _______ _______ _______ _____ _____    ______ ____
ROOT
ATOM      1  C   UNL     1      -6.125  -2.341 128.697  0.00  0.00    +0.000 A 
ATOM      2  C   UNL     1      -5.990  -2.499 127.368  0.00  0.00    +0.000 A 
ATOM      3  N   UNL     1      -7.069  -2.748 126.533  0.00  0.00    +0.000 N 
ATOM      4  C   UNL     1      -8.325  -3.032 127.048  0.00  0.00    +0.000 A 
ATOM      5  O   UNL     1      -9.349  -3.143 126.381  0.00  0.00    +0.000 OA
ATOM      6  N   UNL     1      -8.383  -3.158 128.405  0.00  0.00    +0.000 N 
ATOM      7  C   UNL     1      -7.469  -2.637 129.261  0.00  0.00    +0.000 A 
ATOM      8  O   UNL     1      -7.786  -2.439 130.430  0.00  0.00    +0.000 OA
ATOM      9  H   UNL     1      -9.294  -3.322 128.801  0.00  0.00    +0.000 HD
ENDROOT
BRANCH   3  10
ATOM     10  C1* UNL     1      -6.951  -2.611 125.086  0.00  0.00    +0.000 C 
ATOM     11  C2* UNL     1      -5.859  -1.647 124.631  0.00  0.00    +0.000 C 
ATOM     12  C3* UNL     1      -5.468  -2.213 123.288  0.00  0.00    +0.000 C 
ATOM     13  C4* UNL     1      -5.682  -3.718 123.465  0.00  0.00    +0.000 C 
ATOM     14  O4* UNL     1      -6.665  -3.892 124.504  0.00  0.00    +0.000 OA
BRANCH  12  15
ATOM     15  O3* UNL     1      -6.317  -1.680 122.272  0.00  0.00    +0.000 OA
ATOM     16  H3* UNL     1      -6.629  -0.796 122.536  0.00  0.00    +0.000 HD
ENDBRANCH  12  15
BRANCH  13  17
ATOM     17  C5* UNL     1      -4.405  -4.444 123.887  0.00  0.00    +0.000 C 
BRANCH  17  18
ATOM     18  O5* UNL     1      -4.148  -5.572 123.064  0.00  0.00    +0.000 OA
ATOM     19  H5* UNL     1      -3.343  -6.007 123.396  0.00  0.00    +0.000 HD
ENDBRANCH  17  18
ENDBRANCH  13  17
ENDBRANCH   3  10
BRANCH   1  21
ATOM     20  C   UNL     1      -4.074  -2.920 130.137  0.00  0.00    +0.000 C 
ATOM     21  C   UNL     1      -4.997  -1.847 129.574  0.00  0.00    +0.000 C 
ENDBRANCH   1  21
TORSDOF 5
ENDMDL
