MODEL 1
REMARK VINA RESULT:      -5.4      0.000      0.000
REMARK  Name = Edrophonium
REMARK  6 active torsions:
REMARK  status: ('A' for Active; 'I' for Inactive)
REMARK    1  A    between atoms: C_1  and  C_2
REMARK    2  A    between atoms: C_2  and  N_3
REMARK    3  A    between atoms: N_3  and  C_4
REMARK    4  A    between atoms: N_3  and  C_5
REMARK    5  A    between atoms: N_3  and  C_6
REMARK    6  A    between atoms: C_8  and  O_9
REMARK                            x       y       z     vdW  Elec       q    Type
REMARK                         _______ _______ _______ _____ _____    ______ ____
ROOT
ATOM      1  C   UNL     1     -11.942   7.492 129.985  0.00  0.00    +0.000 A 
ATOM      2  C   UNL     1     -10.541   7.559 129.617  0.00  0.00    +0.000 A 
ATOM      3  C   UNL     1      -9.555   6.993 130.457  0.00  0.00    +0.000 A 
ATOM      4  C   UNL     1      -9.899   6.465 131.670  0.00  0.00    +0.000 A 
ATOM      5  C   UNL     1     -11.244   6.371 132.032  0.00  0.00    +0.000 A 
ATOM      6  C   UNL     1     -12.258   6.780 131.132  0.00  0.00    +0.000 A 
ENDROOT
BRANCH   1   7
ATOM      7  N   UNL     1     -12.941   8.537 129.342  0.00  0.00    +0.000 NA
ATOM      8  C   UNL     1     -13.494   7.170 128.394  0.00  0.00    +0.000 C 
ATOM      9  C   UNL     1     -13.580   9.263 128.190  0.00  0.00    +0.000 C 
BRANCH   7  11
ATOM     10  C   UNL     1     -13.484  11.042 130.202  0.00  0.00    +0.000 C 
ATOM     11  C   UNL     1     -13.059   9.591 130.522  0.00  0.00    +0.000 C 
ENDBRANCH   7  11
ENDBRANCH   1   7
BRANCH   3  12
ATOM     12  O   UNL     1      -8.218   6.995 130.148  0.00  0.00    +0.000 OA
ATOM     13  H   UNL     1      -7.732   6.263 130.536  0.00  0.00    +0.000 HD
ENDBRANCH   3  12
TORSDOF 3
ENDMDL
MODEL 2
REMARK VINA RESULT:      -5.2      2.119      3.021
REMARK  Name = Edrophonium
REMARK  6 active torsions:
REMARK  status: ('A' for Active; 'I' for Inactive)
REMARK    1  A    between atoms: C_1  and  C_2
REMARK    2  A    between atoms: C_2  and  N_3
REMARK    3  A    between atoms: N_3  and  C_4
REMARK    4  A    between atoms: N_3  and  C_5
REMARK    5  A    between atoms: N_3  and  C_6
REMARK    6  A    between atoms: C_8  and  O_9
REMARK                            x       y       z     vdW  Elec       q    Type
REMARK                         _______ _______ _______ _____ _____    ______ ____
ROOT
ATOM      1  C   UNL     1     -11.083   7.080 129.882  0.00  0.00    +0.000 A 
ATOM      2  C   UNL     1     -11.645   5.754 130.058  0.00  0.00    +0.000 A 
ATOM      3  C   UNL     1     -10.818   4.674 130.441  0.00  0.00    +0.000 A 
ATOM      4  C   UNL     1      -9.466   4.842 130.553  0.00  0.00    +0.000 A 
ATOM      5  C   UNL     1      -8.910   6.115 130.410  0.00  0.00    +0.000 A 
ATOM      6  C   UNL     1      -9.741   7.240 130.191  0.00  0.00    +0.000 A 
ENDROOT
BRANCH   1   7
ATOM      7  N   UNL     1     -11.869   8.118 128.984  0.00  0.00    +0.000 NA
ATOM      8  C   UNL     1     -12.688   8.534 130.477  0.00  0.00    +0.000 C 
ATOM      9  C   UNL     1     -13.114   8.754 128.428  0.00  0.00    +0.000 C 
BRANCH   7  11
ATOM     10  C   UNL     1     -10.959   7.595 126.491  0.00  0.00    +0.000 C 
ATOM     11  C   UNL     1     -10.812   8.361 127.826  0.00  0.00    +0.000 C 
ENDBRANCH   7  11
ENDBRANCH   1   7
BRANCH   3  12
ATOM     12  O   UNL     1     -11.296   3.405 130.655  0.00  0.00    +0.000 OA
ATOM     13  H   UNL     1     -12.136   3.384 131.121  0.00  0.00    +0.000 HD
ENDBRANCH   3  12
TORSDOF 3
ENDMDL
MODEL 3
REMARK VINA RESULT:      -5.1      2.571      4.860
REMARK  Name = Edrophonium
REMARK  6 active torsions:
REMARK  status: ('A' for Active; 'I' for Inactive)
REMARK    1  A    between atoms: C_1  and  C_2
REMARK    2  A    between atoms: C_2  and  N_3
REMARK    3  A    between atoms: N_3  and  C_4
REMARK    4  A    between atoms: N_3  and  C_5
REMARK    5  A    between atoms: N_3  and  C_6
REMARK    6  A    between atoms: C_8  and  O_9
REMARK                            x       y       z     vdW  Elec       q    Type
REMARK                         _______ _______ _______ _____ _____    ______ ____
ROOT
ATOM      1  C   UNL     1     -10.407   6.584 130.721  0.00  0.00    +0.000 A 
ATOM      2  C   UNL     1     -10.525   7.483 129.588  0.00  0.00    +0.000 A 
ATOM      3  C   UNL     1     -11.694   8.258 129.412  0.00  0.00    +0.000 A 
ATOM      4  C   UNL     1     -12.764   8.098 130.247  0.00  0.00    +0.000 A 
ATOM      5  C   UNL     1     -12.661   7.255 131.355  0.00  0.00    +0.000 A 
ATOM      6  C   UNL     1     -11.441   6.597 131.644  0.00  0.00    +0.000 A 
ENDROOT
BRANCH   1   7
ATOM      7  N   UNL     1      -9.376   5.388 130.628  0.00  0.00    +0.000 NA
ATOM      8  C   UNL     1      -8.302   6.468 131.495  0.00  0.00    +0.000 C 
ATOM      9  C   UNL     1      -8.050   4.770 130.278  0.00  0.00    +0.000 C 
BRANCH   7  11
ATOM     10  C   UNL     1      -9.976   2.806 131.161  0.00  0.00    +0.000 C 
ATOM     11  C   UNL     1     -10.369   4.156 130.519  0.00  0.00    +0.000 C 
ENDBRANCH   7  11
ENDBRANCH   1   7
BRANCH   3  12
ATOM     12  O   UNL     1     -11.851   9.150 128.381  0.00  0.00    +0.000 OA
ATOM     13  H   UNL     1     -11.028   9.550 128.089  0.00  0.00    +0.000 HD
ENDBRANCH   3  12
TORSDOF 3
ENDMDL
MODEL 4
REMARK VINA RESULT:      -4.7      2.768      5.052
REMARK  Name = Edrophonium
REMARK  6 active torsions:
REMARK  status: ('A' for Active; 'I' for Inactive)
REMARK    1  A    between atoms: C_1  and  C_2
REMARK    2  A    between atoms: C_2  and  N_3
REMARK    3  A    between atoms: N_3  and  C_4
REMARK    4  A    between atoms: N_3  and  C_5
REMARK    5  A    between atoms: N_3  and  C_6
REMARK    6  A    between atoms: C_8  and  O_9
REMARK                            x       y       z     vdW  Elec       q    Type
REMARK                         _______ _______ _______ _____ _____    ______ ____
ROOT
ATOM      1  C   UNL     1     -10.096   6.186 130.325  0.00  0.00    +0.000 A 
ATOM      2  C   UNL     1     -11.253   6.261 131.197  0.00  0.00    +0.000 A 
ATOM      3  C   UNL     1     -12.289   7.183 130.928  0.00  0.00    +0.000 A 
ATOM      4  C   UNL     1     -12.171   8.081 129.904  0.00  0.00    +0.000 A 
ATOM      5  C   UNL     1     -11.076   8.009 129.041  0.00  0.00    +0.000 A 
ATOM      6  C   UNL     1     -10.109   6.985 129.192  0.00  0.00    +0.000 A 
ENDROOT
BRANCH   1   7
ATOM      7  N   UNL     1      -8.761   5.560 130.897  0.00  0.00    +0.000 NA
ATOM      8  C   UNL     1      -9.218   4.152 129.959  0.00  0.00    +0.000 C 
ATOM      9  C   UNL     1      -7.959   4.504 131.608  0.00  0.00    +0.000 C 
BRANCH   7  11
ATOM     10  C   UNL     1      -6.373   6.812 131.101  0.00  0.00    +0.000 C 
ATOM     11  C   UNL     1      -7.916   6.874 131.169  0.00  0.00    +0.000 C 
ENDBRANCH   7  11
ENDBRANCH   1   7
BRANCH   3  12
ATOM     12  O   UNL     1     -13.423   7.278 131.696  0.00  0.00    +0.000 OA
ATOM     13  H   UNL     1     -13.610   8.171 131.998  0.00  0.00    +0.000 HD
ENDBRANCH   3  12
TORSDOF 3
ENDMDL
MODEL 5
REMARK VINA RESULT:      -4.7     10.472     12.015
REMARK  Name = Edrophonium
REMARK  6 active torsions:
REMARK  status: ('A' for Active; 'I' for Inactive)
REMARK    1  A    between atoms: C_1  and  C_2
REMARK    2  A    between atoms: C_2  and  N_3
REMARK    3  A    between atoms: N_3  and  C_4
REMARK    4  A    between atoms: N_3  and  C_5
REMARK    5  A    between atoms: N_3  and  C_6
REMARK    6  A    between atoms: C_8  and  O_9
REMARK                            x       y       z     vdW  Elec       q    Type
REMARK                         _______ _______ _______ _____ _____    ______ ____
ROOT
ATOM      1  C   UNL     1      -8.613  -1.078 124.232  0.00  0.00    +0.000 A 
ATOM      2  C   UNL     1      -8.793   0.234 124.824  0.00  0.00    +0.000 A 
ATOM      3  C   UNL     1      -9.562   1.216 124.159  0.00  0.00    +0.000 A 
ATOM      4  C   UNL     1     -10.060   0.978 122.909  0.00  0.00    +0.000 A 
ATOM      5  C   UNL     1      -9.916  -0.286 122.332  0.00  0.00    +0.000 A 
ATOM      6  C   UNL     1      -9.294  -1.335 123.052  0.00  0.00    +0.000 A 
ENDROOT
BRANCH   1   7
ATOM      7  N   UNL     1      -7.378  -1.950 124.697  0.00  0.00    +0.000 NA
ATOM      8  C   UNL     1      -8.539  -2.720 125.761  0.00  0.00    +0.000 C 
ATOM      9  C   UNL     1      -6.443  -2.531 125.723  0.00  0.00    +0.000 C 
BRANCH   7  11
ATOM     10  C   UNL     1      -5.259  -2.836 123.269  0.00  0.00    +0.000 C 
ATOM     11  C   UNL     1      -6.465  -1.879 123.402  0.00  0.00    +0.000 C 
ENDBRANCH   7  11
ENDBRANCH   1   7
BRANCH   3  12
ATOM     12  O   UNL     1      -9.797   2.463 124.683  0.00  0.00    +0.000 OA
ATOM     13  H   UNL     1     -10.504   2.481 125.333  0.00  0.00    +0.000 HD
ENDBRANCH   3  12
TORSDOF 3
ENDMDL
MODEL 6
REMARK VINA RESULT:      -4.6     10.783     11.636
REMARK  Name = Edrophonium
REMARK  6 active torsions:
REMARK  status: ('A' for Active; 'I' for Inactive)
REMARK    1  A    between atoms: C_1  and  C_2
REMARK    2  A    between atoms: C_2  and  N_3
REMARK    3  A    between atoms: N_3  and  C_4
REMARK    4  A    between atoms: N_3  and  C_5
REMARK    5  A    between atoms: N_3  and  C_6
REMARK    6  A    between atoms: C_8  and  O_9
REMARK                            x       y       z     vdW  Elec       q    Type
REMARK                         _______ _______ _______ _____ _____    ______ ____
ROOT
ATOM      1  C   UNL     1      -8.706  -1.422 123.815  0.00  0.00    +0.000 A 
ATOM      2  C   UNL     1      -7.313  -1.431 123.408  0.00  0.00    +0.000 A 
ATOM      3  C   UNL     1      -6.519  -2.582 123.612  0.00  0.00    +0.000 A 
ATOM      4  C   UNL     1      -7.021  -3.661 124.283  0.00  0.00    +0.000 A 
ATOM      5  C   UNL     1      -8.365  -3.680 124.663  0.00  0.00    +0.000 A 
ATOM      6  C   UNL     1      -9.222  -2.606 124.319  0.00  0.00    +0.000 A 
ENDROOT
BRANCH   1   7
ATOM      7  N   UNL     1      -9.409  -0.026 124.058  0.00  0.00    +0.000 NA
ATOM      8  C   UNL     1     -10.043  -0.254 122.440  0.00  0.00    +0.000 C 
ATOM      9  C   UNL     1      -9.744   1.398 123.708  0.00  0.00    +0.000 C 
BRANCH   7  11
ATOM     10  C   UNL     1      -8.291   0.391 126.485  0.00  0.00    +0.000 C 
ATOM     11  C   UNL     1      -9.517  -0.026 125.640  0.00  0.00    +0.000 C 
ENDBRANCH   7  11
ENDBRANCH   1   7
BRANCH   3  12
ATOM     12  O   UNL     1      -5.206  -2.664 123.219  0.00  0.00    +0.000 OA
ATOM     13  H   UNL     1      -5.092  -3.004 122.328  0.00  0.00    +0.000 HD
ENDBRANCH   3  12
TORSDOF 3
ENDMDL
MODEL 7
REMARK VINA RESULT:      -4.6     10.488     11.947
REMARK  Name = Edrophonium
REMARK  6 active torsions:
REMARK  status: ('A' for Active; 'I' for Inactive)
REMARK    1  A    between atoms: C_1  and  C_2
REMARK    2  A    between atoms: C_2  and  N_3
REMARK    3  A    between atoms: N_3  and  C_4
REMARK    4  A    between atoms: N_3  and  C_5
REMARK    5  A    between atoms: N_3  and  C_6
REMARK    6  A    between atoms: C_8  and  O_9
REMARK                            x       y       z     vdW  Elec       q    Type
REMARK                         _______ _______ _______ _____ _____    ______ ____
ROOT
ATOM      1  C   UNL     1      -7.767  -0.472 123.419  0.00  0.00    +0.000 A 
ATOM      2  C   UNL     1      -9.187  -0.586 123.144  0.00  0.00    +0.000 A 
ATOM      3  C   UNL     1      -9.975   0.576 122.975  0.00  0.00    +0.000 A 
ATOM      4  C   UNL     1      -9.432   1.816 123.167  0.00  0.00    +0.000 A 
ATOM      5  C   UNL     1      -8.064   1.945 123.411  0.00  0.00    +0.000 A 
ATOM      6  C   UNL     1      -7.226   0.804 123.417  0.00  0.00    +0.000 A 
ENDROOT
BRANCH   1   7
ATOM      7  N   UNL     1      -7.033  -1.697 124.100  0.00  0.00    +0.000 NA
ATOM      8  C   UNL     1      -6.311  -1.926 122.519  0.00  0.00    +0.000 C 
ATOM      9  C   UNL     1      -6.630  -3.143 124.206  0.00  0.00    +0.000 C 
BRANCH   7  11
ATOM     10  C   UNL     1      -7.463  -2.209 126.720  0.00  0.00    +0.000 C 
ATOM     11  C   UNL     1      -7.020  -1.224 125.614  0.00  0.00    +0.000 C 
ENDBRANCH   7  11
ENDBRANCH   1   7
BRANCH   3  12
ATOM     12  O   UNL     1     -11.315   0.534 122.679  0.00  0.00    +0.000 OA
ATOM     13  H   UNL     1     -11.662   1.366 122.348  0.00  0.00    +0.000 HD
ENDBRANCH   3  12
TORSDOF 3
ENDMDL
MODEL 8
REMARK VINA RESULT:      -4.6     10.961     12.317
REMARK  Name = Edrophonium
REMARK  6 active torsions:
REMARK  status: ('A' for Active; 'I' for Inactive)
REMARK    1  A    between atoms: C_1  and  C_2
REMARK    2  A    between atoms: C_2  and  N_3
REMARK    3  A    between atoms: N_3  and  C_4
REMARK    4  A    between atoms: N_3  and  C_5
REMARK    5  A    between atoms: N_3  and  C_6
REMARK    6  A    between atoms: C_8  and  O_9
REMARK                            x       y       z     vdW  Elec       q    Type
REMARK                         _______ _______ _______ _____ _____    ______ ____
ROOT
ATOM      1  C   UNL     1      -8.467  -2.681 126.276  0.00  0.00    +0.000 A 
ATOM      2  C   UNL     1      -8.990  -1.422 125.779  0.00  0.00    +0.000 A 
ATOM      3  C   UNL     1      -9.174  -1.226 124.392  0.00  0.00    +0.000 A 
ATOM      4  C   UNL     1      -8.769  -2.176 123.497  0.00  0.00    +0.000 A 
ATOM      5  C   UNL     1      -8.284  -3.402 123.957  0.00  0.00    +0.000 A 
ATOM      6  C   UNL     1      -8.249  -3.684 125.344  0.00  0.00    +0.000 A 
ENDROOT
BRANCH   1   7
ATOM      7  N   UNL     1      -7.798  -2.704 127.709  0.00  0.00    +0.000 NA
ATOM      8  C   UNL     1      -8.983  -3.947 128.058  0.00  0.00    +0.000 C 
ATOM      9  C   UNL     1      -7.817  -2.630 129.212  0.00  0.00    +0.000 C 
BRANCH   7  11
ATOM     10  C   UNL     1      -5.167  -2.521 128.309  0.00  0.00    +0.000 C 
ATOM     11  C   UNL     1      -6.340  -2.188 127.358  0.00  0.00    +0.000 C 
ENDBRANCH   7  11
ENDBRANCH   1   7
BRANCH   3  12
ATOM     12  O   UNL     1      -9.696  -0.071 123.863  0.00  0.00    +0.000 OA
ATOM     13  H   UNL     1      -9.148   0.321 123.179  0.00  0.00    +0.000 HD
ENDBRANCH   3  12
TORSDOF 3
ENDMDL
MODEL 9
REMARK VINA RESULT:      -4.5     11.309     12.060
REMARK  Name = Edrophonium
REMARK  6 active torsions:
REMARK  status: ('A' for Active; 'I' for Inactive)
REMARK    1  A    between atoms: C_1  and  C_2
REMARK    2  A    between atoms: C_2  and  N_3
REMARK    3  A    between atoms: N_3  and  C_4
REMARK    4  A    between atoms: N_3  and  C_5
REMARK    5  A    between atoms: N_3  and  C_6
REMARK    6  A    between atoms: C_8  and  O_9
REMARK                            x       y       z     vdW  Elec       q    Type
REMARK                         _______ _______ _______ _____ _____    ______ ____
ROOT
ATOM      1  C   UNL     1      -7.541  -2.721 126.354  0.00  0.00    +0.000 A 
ATOM      2  C   UNL     1      -7.012  -1.995 127.493  0.00  0.00    +0.000 A 
ATOM      3  C   UNL     1      -7.463  -2.292 128.800  0.00  0.00    +0.000 A 
ATOM      4  C   UNL     1      -8.470  -3.194 128.997  0.00  0.00    +0.000 A 
ATOM      5  C   UNL     1      -8.976  -3.919 127.916  0.00  0.00    +0.000 A 
ATOM      6  C   UNL     1      -8.423  -3.757 126.623  0.00  0.00    +0.000 A 
ENDROOT
BRANCH   1   7
ATOM      7  N   UNL     1      -7.434  -2.057 124.923  0.00  0.00    +0.000 NA
ATOM      8  C   UNL     1      -5.794  -2.673 124.945  0.00  0.00    +0.000 C 
ATOM      9  C   UNL     1      -6.806  -1.157 123.893  0.00  0.00    +0.000 C 
BRANCH   7  11
ATOM     10  C   UNL     1      -9.385  -2.971 123.288  0.00  0.00    +0.000 C 
ATOM     11  C   UNL     1      -8.956  -2.080 124.476  0.00  0.00    +0.000 C 
ENDBRANCH   7  11
ENDBRANCH   1   7
BRANCH   3  12
ATOM     12  O   UNL     1      -6.977  -1.664 129.919  0.00  0.00    +0.000 OA
ATOM     13  H   UNL     1      -6.665  -2.270 130.596  0.00  0.00    +0.000 HD
ENDBRANCH   3  12
TORSDOF 3
ENDMDL
