MODEL 1
REMARK VINA RESULT:      -7.5      0.000      0.000
REMARK  Name = Efavirenz
REMARK  3 active torsions:
REMARK  status: ('A' for Active; 'I' for Inactive)
REMARK    1  A    between atoms: C_2  and  C_5
REMARK    2  A    between atoms: C_5  and  C_17
REMARK    3  A    between atoms: C_18  and  C_19
REMARK                            x       y       z     vdW  Elec       q    Type
REMARK                         _______ _______ _______ _____ _____    ______ ____
ROOT
ATOM      1  C   UNL     1      -6.933  -2.110 124.240  0.00  0.00    +0.000 C 
ATOM      2  O   UNL     1      -7.893  -2.663 123.314  0.00  0.00    +0.000 OA
ATOM      3  C   UNL     1      -9.182  -2.715 123.722  0.00  0.00    +0.000 C 
ATOM      4  O   UNL     1     -10.107  -2.349 123.009  0.00  0.00    +0.000 OA
ATOM      5  N   UNL     1      -9.374  -3.300 124.945  0.00  0.00    +0.000 N 
ATOM      6  C   UNL     1      -8.464  -3.101 125.980  0.00  0.00    +0.000 A 
ATOM      7  C   UNL     1      -7.244  -2.502 125.675  0.00  0.00    +0.000 A 
ATOM      8  C   UNL     1      -6.344  -2.221 126.714  0.00  0.00    +0.000 A 
ATOM      9  C   UNL     1      -6.660  -2.526 128.027  0.00  0.00    +0.000 A 
ATOM     10 CL   UNL     1      -5.516  -2.176 129.260  0.00  0.00    +0.000 Cl
ATOM     11  C   UNL     1      -7.892  -3.094 128.331  0.00  0.00    +0.000 A 
ATOM     12  C   UNL     1      -8.800  -3.389 127.305  0.00  0.00    +0.000 A 
ATOM     13  H   UNL     1     -10.308  -3.647 125.131  0.00  0.00    +0.000 HD
ENDROOT
BRANCH   1  15
ATOM     14  F   UNL     1      -5.322  -2.619 122.499  0.00  0.00    +0.000 F 
ATOM     15  C   UNL     1      -5.519  -2.633 123.843  0.00  0.00    +0.000 C 
ATOM     16  F   UNL     1      -5.301  -3.908 124.242  0.00  0.00    +0.000 F 
ATOM     17  F   UNL     1      -4.531  -1.873 124.384  0.00  0.00    +0.000 F 
ENDBRANCH   1  15
BRANCH   1  18
ATOM     18  C   UNL     1      -6.997  -0.628 124.104  0.00  0.00    +0.000 C 
ATOM     19  C   UNL     1      -7.038   0.573 123.970  0.00  0.00    +0.000 C 
BRANCH  19  20
ATOM     20  C   UNL     1      -7.029   1.999 123.811  0.00  0.00    +0.000 C 
ATOM     21  C   UNL     1      -6.723   2.594 122.456  0.00  0.00    +0.000 C 
ATOM     22  C   UNL     1      -8.120   2.662 123.005  0.00  0.00    +0.000 C 
ENDBRANCH  19  20
ENDBRANCH   1  18
TORSDOF 3
ENDMDL
MODEL 2
REMARK VINA RESULT:      -7.2      4.034      6.226
REMARK  Name = Efavirenz
REMARK  3 active torsions:
REMARK  status: ('A' for Active; 'I' for Inactive)
REMARK    1  A    between atoms: C_2  and  C_5
REMARK    2  A    between atoms: C_5  and  C_17
REMARK    3  A    between atoms: C_18  and  C_19
REMARK                            x       y       z     vdW  Elec       q    Type
REMARK                         _______ _______ _______ _____ _____    ______ ____
ROOT
ATOM      1  C   UNL     1      -7.211   1.771 125.142  0.00  0.00    +0.000 C 
ATOM      2  O   UNL     1      -8.479   1.587 125.807  0.00  0.00    +0.000 OA
ATOM      3  C   UNL     1      -9.537   1.252 125.032  0.00  0.00    +0.000 C 
ATOM      4  O   UNL     1     -10.308   0.352 125.334  0.00  0.00    +0.000 OA
ATOM      5  N   UNL     1      -9.731   2.062 123.945  0.00  0.00    +0.000 N 
ATOM      6  C   UNL     1      -8.648   2.568 123.231  0.00  0.00    +0.000 A 
ATOM      7  C   UNL     1      -7.376   2.433 123.785  0.00  0.00    +0.000 A 
ATOM      8  C   UNL     1      -6.263   2.864 123.048  0.00  0.00    +0.000 A 
ATOM      9  C   UNL     1      -6.417   3.411 121.785  0.00  0.00    +0.000 A 
ATOM     10 CL   UNL     1      -5.023   3.939 120.932  0.00  0.00    +0.000 Cl
ATOM     11  C   UNL     1      -7.684   3.513 121.223  0.00  0.00    +0.000 A 
ATOM     12  C   UNL     1      -8.809   3.095 121.948  0.00  0.00    +0.000 A 
ATOM     13  H   UNL     1     -10.661   2.054 123.544  0.00  0.00    +0.000 HD
ENDROOT
BRANCH   1  15
ATOM     14  F   UNL     1      -6.561   3.983 125.900  0.00  0.00    +0.000 F 
ATOM     15  C   UNL     1      -6.309   2.657 126.056  0.00  0.00    +0.000 C 
ATOM     16  F   UNL     1      -4.989   2.493 125.808  0.00  0.00    +0.000 F 
ATOM     17  F   UNL     1      -6.503   2.382 127.373  0.00  0.00    +0.000 F 
ENDBRANCH   1  15
BRANCH   1  18
ATOM     18  C   UNL     1      -6.607   0.420 124.968  0.00  0.00    +0.000 C 
ATOM     19  C   UNL     1      -6.142  -0.685 124.820  0.00  0.00    +0.000 C 
BRANCH  19  20
ATOM     20  C   UNL     1      -5.619  -2.016 124.691  0.00  0.00    +0.000 C 
ATOM     21  C   UNL     1      -6.547  -3.145 124.310  0.00  0.00    +0.000 C 
ATOM     22  C   UNL     1      -5.530  -2.648 123.323  0.00  0.00    +0.000 C 
ENDBRANCH  19  20
ENDBRANCH   1  18
TORSDOF 3
ENDMDL
MODEL 3
REMARK VINA RESULT:      -7.2      4.116      5.350
REMARK  Name = Efavirenz
REMARK  3 active torsions:
REMARK  status: ('A' for Active; 'I' for Inactive)
REMARK    1  A    between atoms: C_2  and  C_5
REMARK    2  A    between atoms: C_5  and  C_17
REMARK    3  A    between atoms: C_18  and  C_19
REMARK                            x       y       z     vdW  Elec       q    Type
REMARK                         _______ _______ _______ _____ _____    ______ ____
ROOT
ATOM      1  C   UNL     1      -7.260   2.111 124.407  0.00  0.00    +0.000 C 
ATOM      2  O   UNL     1      -6.538   2.819 125.438  0.00  0.00    +0.000 OA
ATOM      3  C   UNL     1      -5.336   2.316 125.803  0.00  0.00    +0.000 C 
ATOM      4  O   UNL     1      -4.344   3.022 125.928  0.00  0.00    +0.000 OA
ATOM      5  N   UNL     1      -5.343   0.984 126.118  0.00  0.00    +0.000 N 
ATOM      6  C   UNL     1      -6.134   0.087 125.404  0.00  0.00    +0.000 A 
ATOM      7  C   UNL     1      -7.091   0.606 124.534  0.00  0.00    +0.000 A 
ATOM      8  C   UNL     1      -7.846  -0.277 123.746  0.00  0.00    +0.000 A 
ATOM      9  C   UNL     1      -7.643  -1.644 123.823  0.00  0.00    +0.000 A 
ATOM     10 CL   UNL     1      -8.605  -2.683 122.849  0.00  0.00    +0.000 Cl
ATOM     11  C   UNL     1      -6.665  -2.155 124.668  0.00  0.00    +0.000 A 
ATOM     12  C   UNL     1      -5.907  -1.289 125.468  0.00  0.00    +0.000 A 
ATOM     13  H   UNL     1      -4.574   0.658 126.692  0.00  0.00    +0.000 HD
ENDROOT
BRANCH   1  15
ATOM     14  F   UNL     1      -9.435   1.673 125.390  0.00  0.00    +0.000 F 
ATOM     15  C   UNL     1      -8.769   2.486 124.528  0.00  0.00    +0.000 C 
ATOM     16  F   UNL     1      -9.426   2.403 123.348  0.00  0.00    +0.000 F 
ATOM     17  F   UNL     1      -8.937   3.753 124.988  0.00  0.00    +0.000 F 
ENDBRANCH   1  15
BRANCH   1  18
ATOM     18  C   UNL     1      -6.713   2.565 123.098  0.00  0.00    +0.000 C 
ATOM     19  C   UNL     1      -6.294   2.931 122.025  0.00  0.00    +0.000 C 
BRANCH  19  20
ATOM     20  C   UNL     1      -5.809   3.315 120.730  0.00  0.00    +0.000 C 
ATOM     21  C   UNL     1      -6.624   4.262 119.882  0.00  0.00    +0.000 C 
ATOM     22  C   UNL     1      -5.340   4.732 120.504  0.00  0.00    +0.000 C 
ENDBRANCH  19  20
ENDBRANCH   1  18
TORSDOF 3
ENDMDL
MODEL 4
REMARK VINA RESULT:      -6.8      3.217      5.249
REMARK  Name = Efavirenz
REMARK  3 active torsions:
REMARK  status: ('A' for Active; 'I' for Inactive)
REMARK    1  A    between atoms: C_2  and  C_5
REMARK    2  A    between atoms: C_5  and  C_17
REMARK    3  A    between atoms: C_18  and  C_19
REMARK                            x       y       z     vdW  Elec       q    Type
REMARK                         _______ _______ _______ _____ _____    ______ ____
ROOT
ATOM      1  C   UNL     1      -8.169  -0.069 124.823  0.00  0.00    +0.000 C 
ATOM      2  O   UNL     1      -9.492  -0.238 124.269  0.00  0.00    +0.000 OA
ATOM      3  C   UNL     1      -9.745   0.369 123.086  0.00  0.00    +0.000 C 
ATOM      4  O   UNL     1     -10.302  -0.209 122.163  0.00  0.00    +0.000 OA
ATOM      5  N   UNL     1      -9.425   1.699 123.044  0.00  0.00    +0.000 N 
ATOM      6  C   UNL     1      -8.289   2.180 123.690  0.00  0.00    +0.000 A 
ATOM      7  C   UNL     1      -7.628   1.328 124.574  0.00  0.00    +0.000 A 
ATOM      8  C   UNL     1      -6.437   1.763 125.176  0.00  0.00    +0.000 A 
ATOM      9  C   UNL     1      -5.917   3.015 124.897  0.00  0.00    +0.000 A 
ATOM     10 CL   UNL     1      -4.466   3.506 125.674  0.00  0.00    +0.000 Cl
ATOM     11  C   UNL     1      -6.563   3.848 123.990  0.00  0.00    +0.000 A 
ATOM     12  C   UNL     1      -7.757   3.435 123.384  0.00  0.00    +0.000 A 
ATOM     13  H   UNL     1      -9.886   2.246 122.326  0.00  0.00    +0.000 HD
ENDROOT
BRANCH   1  15
ATOM     14  F   UNL     1      -8.982  -1.445 126.649  0.00  0.00    +0.000 F 
ATOM     15  C   UNL     1      -8.248  -0.340 126.357  0.00  0.00    +0.000 C 
ATOM     16  F   UNL     1      -8.816   0.681 127.041  0.00  0.00    +0.000 F 
ATOM     17  F   UNL     1      -7.017  -0.543 126.896  0.00  0.00    +0.000 F 
ENDBRANCH   1  15
BRANCH   1  18
ATOM     18  C   UNL     1      -7.286  -1.070 124.162  0.00  0.00    +0.000 C 
ATOM     19  C   UNL     1      -6.586  -1.902 123.635  0.00  0.00    +0.000 C 
BRANCH  19  20
ATOM     20  C   UNL     1      -5.740  -2.910 123.061  0.00  0.00    +0.000 C 
ATOM     21  C   UNL     1      -4.307  -3.029 123.524  0.00  0.00    +0.000 C 
ATOM     22  C   UNL     1      -5.307  -4.084 123.906  0.00  0.00    +0.000 C 
ENDBRANCH  19  20
ENDBRANCH   1  18
TORSDOF 3
ENDMDL
MODEL 5
REMARK VINA RESULT:      -6.7      3.801      5.792
REMARK  Name = Efavirenz
REMARK  3 active torsions:
REMARK  status: ('A' for Active; 'I' for Inactive)
REMARK    1  A    between atoms: C_2  and  C_5
REMARK    2  A    between atoms: C_5  and  C_17
REMARK    3  A    between atoms: C_18  and  C_19
REMARK                            x       y       z     vdW  Elec       q    Type
REMARK                         _______ _______ _______ _____ _____    ______ ____
ROOT
ATOM      1  C   UNL     1      -7.981   1.409 124.973  0.00  0.00    +0.000 C 
ATOM      2  O   UNL     1      -9.022   1.959 124.136  0.00  0.00    +0.000 OA
ATOM      3  C   UNL     1      -8.631   2.719 123.087  0.00  0.00    +0.000 C 
ATOM      4  O   UNL     1      -9.099   2.574 121.966  0.00  0.00    +0.000 OA
ATOM      5  N   UNL     1      -7.752   3.721 123.400  0.00  0.00    +0.000 N 
ATOM      6  C   UNL     1      -6.757   3.524 124.353  0.00  0.00    +0.000 A 
ATOM      7  C   UNL     1      -6.827   2.381 125.148  0.00  0.00    +0.000 A 
ATOM      8  C   UNL     1      -5.793   2.122 126.061  0.00  0.00    +0.000 A 
ATOM      9  C   UNL     1      -4.713   2.982 126.172  0.00  0.00    +0.000 A 
ATOM     10 CL   UNL     1      -3.483   2.627 127.317  0.00  0.00    +0.000 Cl
ATOM     11  C   UNL     1      -4.631   4.103 125.354  0.00  0.00    +0.000 A 
ATOM     12  C   UNL     1      -5.658   4.382 124.442  0.00  0.00    +0.000 A 
ATOM     13  H   UNL     1      -7.696   4.487 122.739  0.00  0.00    +0.000 HD
ENDROOT
BRANCH   1  15
ATOM     14  F   UNL     1      -8.545   2.122 127.223  0.00  0.00    +0.000 F 
ATOM     15  C   UNL     1      -8.604   1.072 126.362  0.00  0.00    +0.000 C 
ATOM     16  F   UNL     1      -7.979   0.043 126.981  0.00  0.00    +0.000 F 
ATOM     17  F   UNL     1      -9.916   0.734 126.257  0.00  0.00    +0.000 F 
ENDBRANCH   1  15
BRANCH   1  18
ATOM     18  C   UNL     1      -7.492   0.170 124.306  0.00  0.00    +0.000 C 
ATOM     19  C   UNL     1      -7.106  -0.849 123.785  0.00  0.00    +0.000 C 
BRANCH  19  20
ATOM     20  C   UNL     1      -6.613  -2.069 123.210  0.00  0.00    +0.000 C 
ATOM     21  C   UNL     1      -5.298  -2.637 123.689  0.00  0.00    +0.000 C 
ATOM     22  C   UNL     1      -6.585  -3.325 124.047  0.00  0.00    +0.000 C 
ENDBRANCH  19  20
ENDBRANCH   1  18
TORSDOF 3
ENDMDL
MODEL 6
REMARK VINA RESULT:      -6.6      3.181      5.660
REMARK  Name = Efavirenz
REMARK  3 active torsions:
REMARK  status: ('A' for Active; 'I' for Inactive)
REMARK    1  A    between atoms: C_2  and  C_5
REMARK    2  A    between atoms: C_5  and  C_17
REMARK    3  A    between atoms: C_18  and  C_19
REMARK                            x       y       z     vdW  Elec       q    Type
REMARK                         _______ _______ _______ _____ _____    ______ ____
ROOT
ATOM      1  C   UNL     1      -6.314  -0.834 125.108  0.00  0.00    +0.000 C 
ATOM      2  O   UNL     1      -5.103  -0.286 125.671  0.00  0.00    +0.000 OA
ATOM      3  C   UNL     1      -5.196   0.921 126.275  0.00  0.00    +0.000 C 
ATOM      4  O   UNL     1      -4.695   1.145 127.368  0.00  0.00    +0.000 OA
ATOM      5  N   UNL     1      -5.802   1.893 125.524  0.00  0.00    +0.000 N 
ATOM      6  C   UNL     1      -6.886   1.588 124.705  0.00  0.00    +0.000 A 
ATOM      7  C   UNL     1      -7.183   0.244 124.482  0.00  0.00    +0.000 A 
ATOM      8  C   UNL     1      -8.317  -0.087 123.725  0.00  0.00    +0.000 A 
ATOM      9  C   UNL     1      -9.138   0.902 123.210  0.00  0.00    +0.000 A 
ATOM     10 CL   UNL     1     -10.504   0.443 122.275  0.00  0.00    +0.000 Cl
ATOM     11  C   UNL     1      -8.857   2.239 123.461  0.00  0.00    +0.000 A 
ATOM     12  C   UNL     1      -7.724   2.590 124.209  0.00  0.00    +0.000 A 
ATOM     13  H   UNL     1      -5.602   2.850 125.789  0.00  0.00    +0.000 HD
ENDROOT
BRANCH   1  15
ATOM     14  F   UNL     1      -4.653  -2.356 124.207  0.00  0.00    +0.000 F 
ATOM     15  C   UNL     1      -5.914  -1.884 124.027  0.00  0.00    +0.000 C 
ATOM     16  F   UNL     1      -5.953  -1.384 122.770  0.00  0.00    +0.000 F 
ATOM     17  F   UNL     1      -6.735  -2.967 124.049  0.00  0.00    +0.000 F 
ENDBRANCH   1  15
BRANCH   1  18
ATOM     18  C   UNL     1      -7.058  -1.489 126.221  0.00  0.00    +0.000 C 
ATOM     19  C   UNL     1      -7.674  -1.997 127.127  0.00  0.00    +0.000 C 
BRANCH  19  20
ATOM     20  C   UNL     1      -8.382  -2.565 128.240  0.00  0.00    +0.000 C 
ATOM     21  C   UNL     1      -8.843  -4.001 128.172  0.00  0.00    +0.000 C 
ATOM     22  C   UNL     1      -7.711  -3.622 129.084  0.00  0.00    +0.000 C 
ENDBRANCH  19  20
ENDBRANCH   1  18
TORSDOF 3
ENDMDL
MODEL 7
REMARK VINA RESULT:      -6.6      9.358     10.614
REMARK  Name = Efavirenz
REMARK  3 active torsions:
REMARK  status: ('A' for Active; 'I' for Inactive)
REMARK    1  A    between atoms: C_2  and  C_5
REMARK    2  A    between atoms: C_5  and  C_17
REMARK    3  A    between atoms: C_18  and  C_19
REMARK                            x       y       z     vdW  Elec       q    Type
REMARK                         _______ _______ _______ _____ _____    ______ ____
ROOT
ATOM      1  C   UNL     1      -8.230   5.483 131.300  0.00  0.00    +0.000 C 
ATOM      2  O   UNL     1      -8.196   4.951 132.642  0.00  0.00    +0.000 OA
ATOM      3  C   UNL     1      -9.361   4.486 133.150  0.00  0.00    +0.000 C 
ATOM      4  O   UNL     1      -9.438   3.411 133.728  0.00  0.00    +0.000 OA
ATOM      5  N   UNL     1     -10.415   5.355 133.056  0.00  0.00    +0.000 N 
ATOM      6  C   UNL     1     -10.573   6.164 131.933  0.00  0.00    +0.000 A 
ATOM      7  C   UNL     1      -9.515   6.246 131.029  0.00  0.00    +0.000 A 
ATOM      8  C   UNL     1      -9.681   6.992 129.853  0.00  0.00    +0.000 A 
ATOM      9  C   UNL     1     -10.877   7.635 129.584  0.00  0.00    +0.000 A 
ATOM     10 CL   UNL     1     -11.023   8.550 128.137  0.00  0.00    +0.000 Cl
ATOM     11  C   UNL     1     -11.940   7.524 130.472  0.00  0.00    +0.000 A 
ATOM     12  C   UNL     1     -11.791   6.790 131.657  0.00  0.00    +0.000 A 
ATOM     13  H   UNL     1     -11.186   5.192 133.692  0.00  0.00    +0.000 HD
ENDROOT
BRANCH   1  15
ATOM     14  F   UNL     1      -7.374   7.693 130.779  0.00  0.00    +0.000 F 
ATOM     15  C   UNL     1      -7.005   6.431 131.123  0.00  0.00    +0.000 C 
ATOM     16  F   UNL     1      -6.152   6.012 130.159  0.00  0.00    +0.000 F 
ATOM     17  F   UNL     1      -6.284   6.541 132.270  0.00  0.00    +0.000 F 
ENDBRANCH   1  15
BRANCH   1  18
ATOM     18  C   UNL     1      -8.132   4.325 130.367  0.00  0.00    +0.000 C 
ATOM     19  C   UNL     1      -8.077   3.379 129.618  0.00  0.00    +0.000 C 
BRANCH  19  20
ATOM     20  C   UNL     1      -8.014   2.220 128.773  0.00  0.00    +0.000 C 
ATOM     21  C   UNL     1      -6.746   1.400 128.731  0.00  0.00    +0.000 C 
ATOM     22  C   UNL     1      -7.973   0.847 129.399  0.00  0.00    +0.000 C 
ENDBRANCH  19  20
ENDBRANCH   1  18
TORSDOF 3
ENDMDL
MODEL 8
REMARK VINA RESULT:      -6.6     11.120     12.454
REMARK  Name = Efavirenz
REMARK  3 active torsions:
REMARK  status: ('A' for Active; 'I' for Inactive)
REMARK    1  A    between atoms: C_2  and  C_5
REMARK    2  A    between atoms: C_5  and  C_17
REMARK    3  A    between atoms: C_18  and  C_19
REMARK                            x       y       z     vdW  Elec       q    Type
REMARK                         _______ _______ _______ _____ _____    ______ ____
ROOT
ATOM      1  C   UNL     1      -7.446   4.841 133.671  0.00  0.00    +0.000 C 
ATOM      2  O   UNL     1      -6.017   4.809 133.467  0.00  0.00    +0.000 OA
ATOM      3  C   UNL     1      -5.442   5.928 132.969  0.00  0.00    +0.000 C 
ATOM      4  O   UNL     1      -4.422   6.405 133.446  0.00  0.00    +0.000 OA
ATOM      5  N   UNL     1      -6.030   6.418 131.834  0.00  0.00    +0.000 N 
ATOM      6  C   UNL     1      -7.413   6.378 131.673  0.00  0.00    +0.000 A 
ATOM      7  C   UNL     1      -8.155   5.615 132.572  0.00  0.00    +0.000 A 
ATOM      8  C   UNL     1      -9.555   5.622 132.478  0.00  0.00    +0.000 A 
ATOM      9  C   UNL     1     -10.197   6.379 131.512  0.00  0.00    +0.000 A 
ATOM     10 CL   UNL     1     -11.912   6.339 131.428  0.00  0.00    +0.000 Cl
ATOM     11  C   UNL     1      -9.454   7.163 130.638  0.00  0.00    +0.000 A 
ATOM     12  C   UNL     1      -8.054   7.163 130.712  0.00  0.00    +0.000 A 
ATOM     13  H   UNL     1      -5.457   7.030 131.264  0.00  0.00    +0.000 HD
ENDROOT
BRANCH   1  15
ATOM     14  F   UNL     1      -7.149   2.550 134.413  0.00  0.00    +0.000 F 
ATOM     15  C   UNL     1      -7.965   3.371 133.701  0.00  0.00    +0.000 C 
ATOM     16  F   UNL     1      -8.064   2.824 132.466  0.00  0.00    +0.000 F 
ATOM     17  F   UNL     1      -9.194   3.282 134.274  0.00  0.00    +0.000 F 
ENDBRANCH   1  15
BRANCH   1  18
ATOM     18  C   UNL     1      -7.687   5.505 134.983  0.00  0.00    +0.000 C 
ATOM     19  C   UNL     1      -7.863   6.061 136.041  0.00  0.00    +0.000 C 
BRANCH  19  20
ATOM     20  C   UNL     1      -8.020   6.704 137.315  0.00  0.00    +0.000 C 
ATOM     21  C   UNL     1      -7.374   8.048 137.553  0.00  0.00    +0.000 C 
ATOM     22  C   UNL     1      -8.867   7.950 137.417  0.00  0.00    +0.000 C 
ENDBRANCH  19  20
ENDBRANCH   1  18
TORSDOF 3
ENDMDL
MODEL 9
REMARK VINA RESULT:      -6.5      3.129      5.205
REMARK  Name = Efavirenz
REMARK  3 active torsions:
REMARK  status: ('A' for Active; 'I' for Inactive)
REMARK    1  A    between atoms: C_2  and  C_5
REMARK    2  A    between atoms: C_5  and  C_17
REMARK    3  A    between atoms: C_18  and  C_19
REMARK                            x       y       z     vdW  Elec       q    Type
REMARK                         _______ _______ _______ _____ _____    ______ ____
ROOT
ATOM      1  C   UNL     1      -7.185  -0.168 126.161  0.00  0.00    +0.000 C 
ATOM      2  O   UNL     1      -8.325   0.710 126.036  0.00  0.00    +0.000 OA
ATOM      3  C   UNL     1      -9.365   0.266 125.294  0.00  0.00    +0.000 C 
ATOM      4  O   UNL     1     -10.523   0.349 125.678  0.00  0.00    +0.000 OA
ATOM      5  N   UNL     1      -9.028  -0.186 124.046  0.00  0.00    +0.000 N 
ATOM      6  C   UNL     1      -7.847  -0.894 123.840  0.00  0.00    +0.000 A 
ATOM      7  C   UNL     1      -6.909  -0.920 124.871  0.00  0.00    +0.000 A 
ATOM      8  C   UNL     1      -5.747  -1.691 124.715  0.00  0.00    +0.000 A 
ATOM      9  C   UNL     1      -5.532  -2.424 123.560  0.00  0.00    +0.000 A 
ATOM     10 CL   UNL     1      -4.085  -3.338 123.413  0.00  0.00    +0.000 Cl
ATOM     11  C   UNL     1      -6.485  -2.421 122.548  0.00  0.00    +0.000 A 
ATOM     12  C   UNL     1      -7.648  -1.650 122.682  0.00  0.00    +0.000 A 
ATOM     13  H   UNL     1      -9.777  -0.213 123.365  0.00  0.00    +0.000 HD
ENDROOT
BRANCH   1  15
ATOM     14  F   UNL     1      -4.953  -0.040 127.105  0.00  0.00    +0.000 F 
ATOM     15  C   UNL     1      -5.946   0.698 126.543  0.00  0.00    +0.000 C 
ATOM     16  F   UNL     1      -6.241   1.672 127.436  0.00  0.00    +0.000 F 
ATOM     17  F   UNL     1      -5.403   1.308 125.457  0.00  0.00    +0.000 F 
ENDBRANCH   1  15
BRANCH   1  18
ATOM     18  C   UNL     1      -7.497  -1.139 127.247  0.00  0.00    +0.000 C 
ATOM     19  C   UNL     1      -7.751  -1.946 128.110  0.00  0.00    +0.000 C 
BRANCH  19  20
ATOM     20  C   UNL     1      -8.103  -2.913 129.110  0.00  0.00    +0.000 C 
ATOM     21  C   UNL     1      -7.021  -3.763 129.735  0.00  0.00    +0.000 C 
ATOM     22  C   UNL     1      -7.684  -2.683 130.543  0.00  0.00    +0.000 C 
ENDBRANCH  19  20
ENDBRANCH   1  18
TORSDOF 3
ENDMDL
