MODEL 1
REMARK VINA RESULT:      -8.4      0.000      0.000
REMARK  Name = Efinaconazole
REMARK  7 active torsions:
REMARK  status: ('A' for Active; 'I' for Inactive)
REMARK    1  A    between atoms: C_1  and  C_2
REMARK    2  A    between atoms: C_2  and  N_3
REMARK    3  A    between atoms: C_2  and  C_10
REMARK    4  A    between atoms: C_10  and  O_11
REMARK    5  A    between atoms: C_10  and  C_12
REMARK    6  A    between atoms: C_10  and  C_18
REMARK    7  A    between atoms: C_12  and  N_13
REMARK                            x       y       z     vdW  Elec       q    Type
REMARK                         _______ _______ _______ _____ _____    ______ ____
ROOT
ATOM      1  C   UNL     1      -8.042   2.038 123.914  0.00  0.00    +0.000 C 
ENDROOT
BRANCH   1   2
ATOM      2  C   UNL     1      -7.367   3.169 122.731  0.00  0.00    +0.000 A 
ATOM      3  C   UNL     1      -8.027   3.534 121.424  0.00  0.00    +0.000 A 
ATOM      4  F   UNL     1      -9.336   3.324 121.195  0.00  0.00    +0.000 F 
ATOM      5  C   UNL     1      -7.340   3.847 120.249  0.00  0.00    +0.000 A 
ATOM      6  C   UNL     1      -6.046   4.234 120.408  0.00  0.00    +0.000 A 
ATOM      7  F   UNL     1      -5.411   4.807 119.377  0.00  0.00    +0.000 F 
ATOM      8  C   UNL     1      -5.414   4.104 121.657  0.00  0.00    +0.000 A 
ATOM      9  C   UNL     1      -6.012   3.469 122.777  0.00  0.00    +0.000 A 
ENDBRANCH   1   2
BRANCH   1  11
ATOM     10  C   UNL     1     -10.056   0.547 122.313  0.00  0.00    +0.000 C 
ATOM     11  C   UNL     1      -8.752   0.518 123.122  0.00  0.00    +0.000 C 
BRANCH  11  12
ATOM     12  N   UNL     1      -8.580  -0.794 123.928  0.00  0.00    +0.000 NA
ATOM     13  C   UNL     1      -7.813  -1.597 123.041  0.00  0.00    +0.000 C 
ATOM     14  C   UNL     1      -6.385  -1.224 122.868  0.00  0.00    +0.000 C 
ATOM     15  C   UNL     1      -5.844  -2.119 123.831  0.00  0.00    +0.000 C 
ATOM     16  C   UNL     1      -5.082  -3.124 123.274  0.00  0.00    +0.000 C 
ATOM     17  C   UNL     1      -6.462  -1.773 125.174  0.00  0.00    +0.000 C 
ATOM     18  C   UNL     1      -8.053  -1.453 125.130  0.00  0.00    +0.000 C 
ENDBRANCH  11  12
ENDBRANCH   1  11
BRANCH   1  19
ATOM     19  O   UNL     1      -7.047   1.654 124.944  0.00  0.00    +0.000 OA
ATOM     20  H   UNL     1      -7.349   1.563 125.861  0.00  0.00    +0.000 HD
ENDBRANCH   1  19
BRANCH   1  21
ATOM     21  C   UNL     1      -8.926   2.738 124.936  0.00  0.00    +0.000 C 
BRANCH  21  22
ATOM     22  N   UNL     1      -8.196   3.420 126.007  0.00  0.00    +0.000 N 
ATOM     23  C   UNL     1      -7.495   4.601 126.030  0.00  0.00    +0.000 A 
ATOM     24  N   UNL     1      -6.818   4.703 127.147  0.00  0.00    +0.000 NA
ATOM     25  C   UNL     1      -7.312   3.666 127.868  0.00  0.00    +0.000 A 
ATOM     26  N   UNL     1      -8.176   2.869 127.234  0.00  0.00    +0.000 NA
ENDBRANCH  21  22
ENDBRANCH   1  21
TORSDOF 6
ENDMDL
MODEL 2
REMARK VINA RESULT:      -7.9      1.609      2.131
REMARK  Name = Efinaconazole
REMARK  7 active torsions:
REMARK  status: ('A' for Active; 'I' for Inactive)
REMARK    1  A    between atoms: C_1  and  C_2
REMARK    2  A    between atoms: C_2  and  N_3
REMARK    3  A    between atoms: C_2  and  C_10
REMARK    4  A    between atoms: C_10  and  O_11
REMARK    5  A    between atoms: C_10  and  C_12
REMARK    6  A    between atoms: C_10  and  C_18
REMARK    7  A    between atoms: C_12  and  N_13
REMARK                            x       y       z     vdW  Elec       q    Type
REMARK                         _______ _______ _______ _____ _____    ______ ____
ROOT
ATOM      1  C   UNL     1      -6.777   3.128 123.746  0.00  0.00    +0.000 C 
ENDROOT
BRANCH   1   2
ATOM      2  C   UNL     1      -6.290   3.545 122.095  0.00  0.00    +0.000 A 
ATOM      3  C   UNL     1      -5.049   4.326 121.742  0.00  0.00    +0.000 A 
ATOM      4  F   UNL     1      -4.018   4.465 122.596  0.00  0.00    +0.000 F 
ATOM      5  C   UNL     1      -4.942   5.198 120.656  0.00  0.00    +0.000 A 
ATOM      6  C   UNL     1      -5.851   5.015 119.662  0.00  0.00    +0.000 A 
ATOM      7  F   UNL     1      -5.648   5.616 118.482  0.00  0.00    +0.000 F 
ATOM      8  C   UNL     1      -6.941   4.146 119.846  0.00  0.00    +0.000 A 
ATOM      9  C   UNL     1      -7.237   3.512 121.081  0.00  0.00    +0.000 A 
ENDBRANCH   1   2
BRANCH   1  11
ATOM     10  C   UNL     1      -9.501   1.959 123.521  0.00  0.00    +0.000 C 
ATOM     11  C   UNL     1      -8.007   1.741 123.798  0.00  0.00    +0.000 C 
BRANCH  11  12
ATOM     12  N   UNL     1      -7.752   0.667 124.884  0.00  0.00    +0.000 NA
ATOM     13  C   UNL     1      -7.800  -0.541 124.135  0.00  0.00    +0.000 C 
ATOM     14  C   UNL     1      -6.647  -0.816 123.239  0.00  0.00    +0.000 C 
ATOM     15  C   UNL     1      -5.909  -1.635 124.137  0.00  0.00    +0.000 C 
ATOM     16  C   UNL     1      -5.833  -2.951 123.737  0.00  0.00    +0.000 C 
ATOM     17  C   UNL     1      -5.607  -0.802 125.370  0.00  0.00    +0.000 C 
ATOM     18  C   UNL     1      -6.841   0.114 125.894  0.00  0.00    +0.000 C 
ENDBRANCH  11  12
ENDBRANCH   1  11
BRANCH   1  19
ATOM     19  O   UNL     1      -5.611   2.803 124.601  0.00  0.00    +0.000 OA
ATOM     20  H   UNL     1      -5.589   1.936 125.036  0.00  0.00    +0.000 HD
ENDBRANCH   1  19
BRANCH   1  21
ATOM     21  C   UNL     1      -7.120   4.362 124.570  0.00  0.00    +0.000 C 
BRANCH  21  22
ATOM     22  N   UNL     1      -6.925   4.203 126.013  0.00  0.00    +0.000 N 
ATOM     23  C   UNL     1      -7.661   3.549 126.971  0.00  0.00    +0.000 A 
ATOM     24  N   UNL     1      -7.228   3.863 128.167  0.00  0.00    +0.000 NA
ATOM     25  C   UNL     1      -6.086   4.536 127.881  0.00  0.00    +0.000 A 
ATOM     26  N   UNL     1      -5.836   4.746 126.586  0.00  0.00    +0.000 NA
ENDBRANCH  21  22
ENDBRANCH   1  21
TORSDOF 6
ENDMDL
MODEL 3
REMARK VINA RESULT:      -7.6      3.752      6.045
REMARK  Name = Efinaconazole
REMARK  7 active torsions:
REMARK  status: ('A' for Active; 'I' for Inactive)
REMARK    1  A    between atoms: C_1  and  C_2
REMARK    2  A    between atoms: C_2  and  N_3
REMARK    3  A    between atoms: C_2  and  C_10
REMARK    4  A    between atoms: C_10  and  O_11
REMARK    5  A    between atoms: C_10  and  C_12
REMARK    6  A    between atoms: C_10  and  C_18
REMARK    7  A    between atoms: C_12  and  N_13
REMARK                            x       y       z     vdW  Elec       q    Type
REMARK                         _______ _______ _______ _____ _____    ______ ____
ROOT
ATOM      1  C   UNL     1      -7.352  -0.021 126.186  0.00  0.00    +0.000 C 
ENDROOT
BRANCH   1   2
ATOM      2  C   UNL     1      -6.914  -1.480 127.088  0.00  0.00    +0.000 A 
ATOM      3  C   UNL     1      -7.898  -2.524 127.555  0.00  0.00    +0.000 A 
ATOM      4  F   UNL     1      -9.131  -2.637 127.029  0.00  0.00    +0.000 F 
ATOM      5  C   UNL     1      -7.764  -3.273 128.726  0.00  0.00    +0.000 A 
ATOM      6  C   UNL     1      -6.506  -3.349 129.237  0.00  0.00    +0.000 A 
ATOM      7  F   UNL     1      -6.248  -4.259 130.185  0.00  0.00    +0.000 F 
ATOM      8  C   UNL     1      -5.479  -2.540 128.720  0.00  0.00    +0.000 A 
ATOM      9  C   UNL     1      -5.693  -1.528 127.747  0.00  0.00    +0.000 A 
ENDBRANCH   1   2
BRANCH   1  11
ATOM     10  C   UNL     1      -7.095   1.033 123.419  0.00  0.00    +0.000 C 
ATOM     11  C   UNL     1      -6.972  -0.160 124.376  0.00  0.00    +0.000 C 
BRANCH  11  12
ATOM     12  N   UNL     1      -7.376  -1.500 123.713  0.00  0.00    +0.000 NA
ATOM     13  C   UNL     1      -6.145  -1.951 123.164  0.00  0.00    +0.000 C 
ATOM     14  C   UNL     1      -5.127  -2.447 124.126  0.00  0.00    +0.000 C 
ATOM     15  C   UNL     1      -5.447  -3.830 124.033  0.00  0.00    +0.000 C 
ATOM     16  C   UNL     1      -4.456  -4.580 123.438  0.00  0.00    +0.000 C 
ATOM     17  C   UNL     1      -6.896  -3.992 124.457  0.00  0.00    +0.000 C 
ATOM     18  C   UNL     1      -7.906  -2.859 123.881  0.00  0.00    +0.000 C 
ENDBRANCH  11  12
ENDBRANCH   1  11
BRANCH   1  19
ATOM     19  O   UNL     1      -8.777   0.342 126.378  0.00  0.00    +0.000 OA
ATOM     20  H   UNL     1      -9.177   0.180 127.247  0.00  0.00    +0.000 HD
ENDBRANCH   1  19
BRANCH   1  21
ATOM     21  C   UNL     1      -6.869   1.246 126.879  0.00  0.00    +0.000 C 
BRANCH  21  22
ATOM     22  N   UNL     1      -7.604   1.592 128.097  0.00  0.00    +0.000 N 
ATOM     23  C   UNL     1      -7.537   1.102 129.379  0.00  0.00    +0.000 A 
ATOM     24  N   UNL     1      -8.540   1.555 130.089  0.00  0.00    +0.000 NA
ATOM     25  C   UNL     1      -9.066   2.492 129.262  0.00  0.00    +0.000 A 
ATOM     26  N   UNL     1      -8.517   2.579 128.048  0.00  0.00    +0.000 NA
ENDBRANCH  21  22
ENDBRANCH   1  21
TORSDOF 6
ENDMDL
MODEL 4
REMARK VINA RESULT:      -7.5      4.401      6.547
REMARK  Name = Efinaconazole
REMARK  7 active torsions:
REMARK  status: ('A' for Active; 'I' for Inactive)
REMARK    1  A    between atoms: C_1  and  C_2
REMARK    2  A    between atoms: C_2  and  N_3
REMARK    3  A    between atoms: C_2  and  C_10
REMARK    4  A    between atoms: C_10  and  O_11
REMARK    5  A    between atoms: C_10  and  C_12
REMARK    6  A    between atoms: C_10  and  C_18
REMARK    7  A    between atoms: C_12  and  N_13
REMARK                            x       y       z     vdW  Elec       q    Type
REMARK                         _______ _______ _______ _____ _____    ______ ____
ROOT
ATOM      1  C   UNL     1      -6.515  -0.774 127.141  0.00  0.00    +0.000 C 
ENDROOT
BRANCH   1   2
ATOM      2  C   UNL     1      -7.379  -1.964 126.155  0.00  0.00    +0.000 A 
ATOM      3  C   UNL     1      -7.041  -2.294 124.722  0.00  0.00    +0.000 A 
ATOM      4  F   UNL     1      -5.849  -1.994 124.176  0.00  0.00    +0.000 F 
ATOM      5  C   UNL     1      -7.974  -2.669 123.753  0.00  0.00    +0.000 A 
ATOM      6  C   UNL     1      -9.157  -3.145 124.226  0.00  0.00    +0.000 A 
ATOM      7  F   UNL     1      -9.985  -3.774 123.382  0.00  0.00    +0.000 F 
ATOM      8  C   UNL     1      -9.466  -3.048 125.594  0.00  0.00    +0.000 A 
ATOM      9  C   UNL     1      -8.655  -2.359 126.534  0.00  0.00    +0.000 A 
ENDBRANCH   1   2
BRANCH   1  11
ATOM     10  C   UNL     1      -7.830  -0.048 129.706  0.00  0.00    +0.000 C 
ATOM     11  C   UNL     1      -6.857  -0.966 128.954  0.00  0.00    +0.000 C 
BRANCH  11  12
ATOM     12  N   UNL     1      -5.643  -1.384 129.820  0.00  0.00    +0.000 NA
ATOM     13  C   UNL     1      -6.198  -2.389 130.657  0.00  0.00    +0.000 C 
ATOM     14  C   UNL     1      -6.508  -3.695 130.018  0.00  0.00    +0.000 C 
ATOM     15  C   UNL     1      -5.297  -4.357 130.360  0.00  0.00    +0.000 C 
ATOM     16  C   UNL     1      -5.473  -5.380 131.267  0.00  0.00    +0.000 C 
ATOM     17  C   UNL     1      -4.156  -3.570 129.741  0.00  0.00    +0.000 C 
ATOM     18  C   UNL     1      -4.292  -1.957 129.869  0.00  0.00    +0.000 C 
ENDBRANCH  11  12
ENDBRANCH   1  11
BRANCH   1  19
ATOM     19  O   UNL     1      -5.053  -0.809 126.895  0.00  0.00    +0.000 OA
ATOM     20  H   UNL     1      -4.702  -0.300 126.148  0.00  0.00    +0.000 HD
ENDBRANCH   1  19
BRANCH   1  21
ATOM     21  C   UNL     1      -6.641   0.635 126.578  0.00  0.00    +0.000 C 
BRANCH  21  22
ATOM     22  N   UNL     1      -5.585   1.557 127.003  0.00  0.00    +0.000 N 
ATOM     23  C   UNL     1      -5.367   2.217 128.188  0.00  0.00    +0.000 A 
ATOM     24  N   UNL     1      -4.421   3.111 128.039  0.00  0.00    +0.000 NA
ATOM     25  C   UNL     1      -3.940   2.805 126.809  0.00  0.00    +0.000 A 
ATOM     26  N   UNL     1      -4.591   1.847 126.145  0.00  0.00    +0.000 NA
ENDBRANCH  21  22
ENDBRANCH   1  21
TORSDOF 6
ENDMDL
MODEL 5
REMARK VINA RESULT:      -7.5      2.415      3.994
REMARK  Name = Efinaconazole
REMARK  7 active torsions:
REMARK  status: ('A' for Active; 'I' for Inactive)
REMARK    1  A    between atoms: C_1  and  C_2
REMARK    2  A    between atoms: C_2  and  N_3
REMARK    3  A    between atoms: C_2  and  C_10
REMARK    4  A    between atoms: C_10  and  O_11
REMARK    5  A    between atoms: C_10  and  C_12
REMARK    6  A    between atoms: C_10  and  C_18
REMARK    7  A    between atoms: C_12  and  N_13
REMARK                            x       y       z     vdW  Elec       q    Type
REMARK                         _______ _______ _______ _____ _____    ______ ____
ROOT
ATOM      1  C   UNL     1      -5.951   0.789 126.582  0.00  0.00    +0.000 C 
ENDROOT
BRANCH   1   2
ATOM      2  C   UNL     1      -7.078   1.511 125.423  0.00  0.00    +0.000 A 
ATOM      3  C   UNL     1      -8.581   1.425 125.526  0.00  0.00    +0.000 A 
ATOM      4  F   UNL     1      -9.207   1.114 126.675  0.00  0.00    +0.000 F 
ATOM      5  C   UNL     1      -9.449   1.373 124.433  0.00  0.00    +0.000 A 
ATOM      6  C   UNL     1      -8.943   1.829 123.256  0.00  0.00    +0.000 A 
ATOM      7  F   UNL     1      -9.783   2.068 122.241  0.00  0.00    +0.000 F 
ATOM      8  C   UNL     1      -7.573   2.119 123.136  0.00  0.00    +0.000 A 
ATOM      9  C   UNL     1      -6.622   1.850 124.156  0.00  0.00    +0.000 A 
ENDBRANCH   1   2
BRANCH   1  11
ATOM     10  C   UNL     1      -5.587  -1.858 127.884  0.00  0.00    +0.000 C 
ATOM     11  C   UNL     1      -6.123  -1.054 126.691  0.00  0.00    +0.000 C 
BRANCH  11  12
ATOM     12  N   UNL     1      -5.986  -1.816 125.349  0.00  0.00    +0.000 NA
ATOM     13  C   UNL     1      -7.081  -2.722 125.401  0.00  0.00    +0.000 C 
ATOM     14  C   UNL     1      -8.437  -2.142 125.221  0.00  0.00    +0.000 C 
ATOM     15  C   UNL     1      -8.556  -2.387 123.826  0.00  0.00    +0.000 C 
ATOM     16  C   UNL     1      -9.515  -3.328 123.518  0.00  0.00    +0.000 C 
ATOM     17  C   UNL     1      -7.422  -1.651 123.134  0.00  0.00    +0.000 C 
ATOM     18  C   UNL     1      -5.985  -1.756 123.882  0.00  0.00    +0.000 C 
ENDBRANCH  11  12
ENDBRANCH   1  11
BRANCH   1  19
ATOM     19  O   UNL     1      -4.544   1.150 126.284  0.00  0.00    +0.000 OA
ATOM     20  H   UNL     1      -4.169   0.868 125.434  0.00  0.00    +0.000 HD
ENDBRANCH   1  19
BRANCH   1  21
ATOM     21  C   UNL     1      -5.931   1.542 127.906  0.00  0.00    +0.000 C 
BRANCH  21  22
ATOM     22  N   UNL     1      -5.458   2.925 127.812  0.00  0.00    +0.000 N 
ATOM     23  C   UNL     1      -6.091   4.087 127.445  0.00  0.00    +0.000 A 
ATOM     24  N   UNL     1      -5.216   5.050 127.294  0.00  0.00    +0.000 NA
ATOM     25  C   UNL     1      -4.091   4.485 127.796  0.00  0.00    +0.000 A 
ATOM     26  N   UNL     1      -4.187   3.203 128.154  0.00  0.00    +0.000 NA
ENDBRANCH  21  22
ENDBRANCH   1  21
TORSDOF 6
ENDMDL
MODEL 6
REMARK VINA RESULT:      -7.4      3.984      6.430
REMARK  Name = Efinaconazole
REMARK  7 active torsions:
REMARK  status: ('A' for Active; 'I' for Inactive)
REMARK    1  A    between atoms: C_1  and  C_2
REMARK    2  A    between atoms: C_2  and  N_3
REMARK    3  A    between atoms: C_2  and  C_10
REMARK    4  A    between atoms: C_10  and  O_11
REMARK    5  A    between atoms: C_10  and  C_12
REMARK    6  A    between atoms: C_10  and  C_18
REMARK    7  A    between atoms: C_12  and  N_13
REMARK                            x       y       z     vdW  Elec       q    Type
REMARK                         _______ _______ _______ _____ _____    ______ ____
ROOT
ATOM      1  C   UNL     1      -6.465  -0.662 126.853  0.00  0.00    +0.000 C 
ENDROOT
BRANCH   1   2
ATOM      2  C   UNL     1      -7.359  -1.899 125.956  0.00  0.00    +0.000 A 
ATOM      3  C   UNL     1      -7.068  -2.297 124.530  0.00  0.00    +0.000 A 
ATOM      4  F   UNL     1      -5.895  -2.023 123.931  0.00  0.00    +0.000 F 
ATOM      5  C   UNL     1      -8.031  -2.719 123.612  0.00  0.00    +0.000 A 
ATOM      6  C   UNL     1      -9.196  -3.174 124.147  0.00  0.00    +0.000 A 
ATOM      7  F   UNL     1     -10.050  -3.843 123.361  0.00  0.00    +0.000 F 
ATOM      8  C   UNL     1      -9.460  -3.011 125.518  0.00  0.00    +0.000 A 
ATOM      9  C   UNL     1      -8.620  -2.276 126.396  0.00  0.00    +0.000 A 
ENDBRANCH   1   2
BRANCH   1  11
ATOM     10  C   UNL     1      -7.845   0.459 129.236  0.00  0.00    +0.000 C 
ATOM     11  C   UNL     1      -6.920  -0.617 128.651  0.00  0.00    +0.000 C 
BRANCH  11  12
ATOM     12  N   UNL     1      -5.796  -1.034 129.632  0.00  0.00    +0.000 NA
ATOM     13  C   UNL     1      -6.398  -2.105 130.346  0.00  0.00    +0.000 C 
ATOM     14  C   UNL     1      -6.571  -3.384 129.610  0.00  0.00    +0.000 C 
ATOM     15  C   UNL     1      -5.379  -4.016 130.058  0.00  0.00    +0.000 C 
ATOM     16  C   UNL     1      -5.611  -5.094 130.885  0.00  0.00    +0.000 C 
ATOM     17  C   UNL     1      -4.211  -3.151 129.620  0.00  0.00    +0.000 C 
ATOM     18  C   UNL     1      -4.435  -1.554 129.812  0.00  0.00    +0.000 C 
ENDBRANCH  11  12
ENDBRANCH   1  11
BRANCH   1  19
ATOM     19  O   UNL     1      -4.998  -0.822 126.706  0.00  0.00    +0.000 OA
ATOM     20  H   UNL     1      -4.668  -1.604 126.236  0.00  0.00    +0.000 HD
ENDBRANCH   1  19
BRANCH   1  21
ATOM     21  C   UNL     1      -6.457   0.677 126.129  0.00  0.00    +0.000 C 
BRANCH  21  22
ATOM     22  N   UNL     1      -7.729   1.037 125.499  0.00  0.00    +0.000 N 
ATOM     23  C   UNL     1      -8.959   1.346 126.029  0.00  0.00    +0.000 A 
ATOM     24  N   UNL     1      -9.863   1.383 125.082  0.00  0.00    +0.000 NA
ATOM     25  C   UNL     1      -9.098   1.309 123.964  0.00  0.00    +0.000 A 
ATOM     26  N   UNL     1      -7.789   1.128 124.158  0.00  0.00    +0.000 NA
ENDBRANCH  21  22
ENDBRANCH   1  21
TORSDOF 6
ENDMDL
MODEL 7
REMARK VINA RESULT:      -7.4      3.412      5.524
REMARK  Name = Efinaconazole
REMARK  7 active torsions:
REMARK  status: ('A' for Active; 'I' for Inactive)
REMARK    1  A    between atoms: C_1  and  C_2
REMARK    2  A    between atoms: C_2  and  N_3
REMARK    3  A    between atoms: C_2  and  C_10
REMARK    4  A    between atoms: C_10  and  O_11
REMARK    5  A    between atoms: C_10  and  C_12
REMARK    6  A    between atoms: C_10  and  C_18
REMARK    7  A    between atoms: C_12  and  N_13
REMARK                            x       y       z     vdW  Elec       q    Type
REMARK                         _______ _______ _______ _____ _____    ______ ____
ROOT
ATOM      1  C   UNL     1      -8.286   0.082 125.875  0.00  0.00    +0.000 C 
ENDROOT
BRANCH   1   2
ATOM      2  C   UNL     1      -7.465  -0.784 127.183  0.00  0.00    +0.000 A 
ATOM      3  C   UNL     1      -5.975  -0.767 127.415  0.00  0.00    +0.000 A 
ATOM      4  F   UNL     1      -5.175   0.179 126.890  0.00  0.00    +0.000 F 
ATOM      5  C   UNL     1      -5.240  -1.836 127.934  0.00  0.00    +0.000 A 
ATOM      6  C   UNL     1      -5.956  -2.760 128.629  0.00  0.00    +0.000 A 
ATOM      7  F   UNL     1      -5.299  -3.653 129.382  0.00  0.00    +0.000 F 
ATOM      8  C   UNL     1      -7.361  -2.726 128.619  0.00  0.00    +0.000 A 
ATOM      9  C   UNL     1      -8.117  -1.835 127.813  0.00  0.00    +0.000 A 
ENDBRANCH   1   2
BRANCH   1  11
ATOM     10  C   UNL     1      -7.262   1.097 123.276  0.00  0.00    +0.000 C 
ATOM     11  C   UNL     1      -7.407  -0.079 124.250  0.00  0.00    +0.000 C 
BRANCH  11  12
ATOM     12  N   UNL     1      -7.596  -1.435 123.524  0.00  0.00    +0.000 NA
ATOM     13  C   UNL     1      -6.267  -1.761 123.139  0.00  0.00    +0.000 C 
ATOM     14  C   UNL     1      -5.343  -2.187 124.222  0.00  0.00    +0.000 C 
ATOM     15  C   UNL     1      -5.520  -3.589 124.073  0.00  0.00    +0.000 C 
ATOM     16  C   UNL     1      -4.395  -4.234 123.607  0.00  0.00    +0.000 C 
ATOM     17  C   UNL     1      -6.992  -3.890 124.298  0.00  0.00    +0.000 C 
ATOM     18  C   UNL     1      -8.017  -2.839 123.605  0.00  0.00    +0.000 C 
ENDBRANCH  11  12
ENDBRANCH   1  11
BRANCH   1  19
ATOM     19  O   UNL     1      -9.699  -0.343 125.731  0.00  0.00    +0.000 OA
ATOM     20  H   UNL     1     -10.358   0.329 125.495  0.00  0.00    +0.000 HD
ENDBRANCH   1  19
BRANCH   1  21
ATOM     21  C   UNL     1      -8.685   1.493 126.286  0.00  0.00    +0.000 C 
BRANCH  21  22
ATOM     22  N   UNL     1      -7.586   2.310 126.805  0.00  0.00    +0.000 N 
ATOM     23  C   UNL     1      -6.576   2.995 126.173  0.00  0.00    +0.000 A 
ATOM     24  N   UNL     1      -5.689   3.401 127.049  0.00  0.00    +0.000 NA
ATOM     25  C   UNL     1      -6.313   3.133 128.222  0.00  0.00    +0.000 A 
ATOM     26  N   UNL     1      -7.484   2.496 128.133  0.00  0.00    +0.000 NA
ENDBRANCH  21  22
ENDBRANCH   1  21
TORSDOF 6
ENDMDL
MODEL 8
REMARK VINA RESULT:      -7.4      6.208     10.384
REMARK  Name = Efinaconazole
REMARK  7 active torsions:
REMARK  status: ('A' for Active; 'I' for Inactive)
REMARK    1  A    between atoms: C_1  and  C_2
REMARK    2  A    between atoms: C_2  and  N_3
REMARK    3  A    between atoms: C_2  and  C_10
REMARK    4  A    between atoms: C_10  and  O_11
REMARK    5  A    between atoms: C_10  and  C_12
REMARK    6  A    between atoms: C_10  and  C_18
REMARK    7  A    between atoms: C_12  and  N_13
REMARK                            x       y       z     vdW  Elec       q    Type
REMARK                         _______ _______ _______ _____ _____    ______ ____
ROOT
ATOM      1  C   UNL     1      -8.257   5.117 130.700  0.00  0.00    +0.000 C 
ENDROOT
BRANCH   1   2
ATOM      2  C   UNL     1      -7.970   5.281 132.439  0.00  0.00    +0.000 A 
ATOM      3  C   UNL     1      -6.723   5.876 133.047  0.00  0.00    +0.000 A 
ATOM      4  F   UNL     1      -5.883   6.658 132.345  0.00  0.00    +0.000 F 
ATOM      5  C   UNL     1      -6.164   5.474 134.262  0.00  0.00    +0.000 A 
ATOM      6  C   UNL     1      -7.001   4.817 135.108  0.00  0.00    +0.000 A 
ATOM      7  F   UNL     1      -6.628   4.645 136.383  0.00  0.00    +0.000 F 
ATOM      8  C   UNL     1      -8.269   4.397 134.669  0.00  0.00    +0.000 A 
ATOM      9  C   UNL     1      -8.710   4.509 133.324  0.00  0.00    +0.000 A 
ENDBRANCH   1   2
BRANCH   1  11
ATOM     10  C   UNL     1     -10.877   3.721 130.533  0.00  0.00    +0.000 C 
ATOM     11  C   UNL     1     -10.061   4.997 130.283  0.00  0.00    +0.000 C 
BRANCH  11  12
ATOM     12  N   UNL     1     -10.497   5.741 128.997  0.00  0.00    +0.000 NA
ATOM     13  C   UNL     1     -11.744   6.306 129.381  0.00  0.00    +0.000 C 
ATOM     14  C   UNL     1     -11.696   7.451 130.326  0.00  0.00    +0.000 C 
ATOM     15  C   UNL     1     -11.749   8.490 129.357  0.00  0.00    +0.000 C 
ATOM     16  C   UNL     1     -12.921   9.213 129.397  0.00  0.00    +0.000 C 
ATOM     17  C   UNL     1     -10.543   8.328 128.448  0.00  0.00    +0.000 C 
ATOM     18  C   UNL     1     -10.215   6.798 128.017  0.00  0.00    +0.000 C 
ENDBRANCH  11  12
ENDBRANCH   1  11
BRANCH   1  19
ATOM     19  O   UNL     1      -7.632   6.218 129.929  0.00  0.00    +0.000 OA
ATOM     20  H   UNL     1      -7.729   7.124 130.263  0.00  0.00    +0.000 HD
ENDBRANCH   1  19
BRANCH   1  21
ATOM     21  C   UNL     1      -7.350   4.071 130.066  0.00  0.00    +0.000 C 
BRANCH  21  22
ATOM     22  N   UNL     1      -7.707   3.707 128.694  0.00  0.00    +0.000 N 
ATOM     23  C   UNL     1      -8.355   2.612 128.175  0.00  0.00    +0.000 A 
ATOM     24  N   UNL     1      -8.253   2.603 126.869  0.00  0.00    +0.000 NA
ATOM     25  C   UNL     1      -7.728   3.829 126.622  0.00  0.00    +0.000 A 
ATOM     26  N   UNL     1      -7.403   4.555 127.695  0.00  0.00    +0.000 NA
ENDBRANCH  21  22
ENDBRANCH   1  21
TORSDOF 6
ENDMDL
MODEL 9
REMARK VINA RESULT:      -7.3      4.086      6.723
REMARK  Name = Efinaconazole
REMARK  7 active torsions:
REMARK  status: ('A' for Active; 'I' for Inactive)
REMARK    1  A    between atoms: C_1  and  C_2
REMARK    2  A    between atoms: C_2  and  N_3
REMARK    3  A    between atoms: C_2  and  C_10
REMARK    4  A    between atoms: C_10  and  O_11
REMARK    5  A    between atoms: C_10  and  C_12
REMARK    6  A    between atoms: C_10  and  C_18
REMARK    7  A    between atoms: C_12  and  N_13
REMARK                            x       y       z     vdW  Elec       q    Type
REMARK                         _______ _______ _______ _____ _____    ______ ____
ROOT
ATOM      1  C   UNL     1      -6.414  -1.422 127.356  0.00  0.00    +0.000 C 
ENDROOT
BRANCH   1   2
ATOM      2  C   UNL     1      -7.400  -2.434 126.289  0.00  0.00    +0.000 A 
ATOM      3  C   UNL     1      -6.993  -2.863 124.901  0.00  0.00    +0.000 A 
ATOM      4  F   UNL     1      -5.714  -2.828 124.483  0.00  0.00    +0.000 F 
ATOM      5  C   UNL     1      -7.879  -3.062 123.840  0.00  0.00    +0.000 A 
ATOM      6  C   UNL     1      -9.177  -3.273 124.187  0.00  0.00    +0.000 A 
ATOM      7  F   UNL     1     -10.026  -3.739 123.262  0.00  0.00    +0.000 F 
ATOM      8  C   UNL     1      -9.597  -3.080 125.515  0.00  0.00    +0.000 A 
ATOM      9  C   UNL     1      -8.762  -2.549 126.532  0.00  0.00    +0.000 A 
ENDBRANCH   1   2
BRANCH   1  11
ATOM     10  C   UNL     1      -4.931   1.128 126.991  0.00  0.00    +0.000 C 
ATOM     11  C   UNL     1      -6.189   0.298 126.701  0.00  0.00    +0.000 C 
BRANCH  11  12
ATOM     12  N   UNL     1      -7.474   1.163 126.648  0.00  0.00    +0.000 NA
ATOM     13  C   UNL     1      -7.452   1.658 125.316  0.00  0.00    +0.000 C 
ATOM     14  C   UNL     1      -7.763   0.684 124.236  0.00  0.00    +0.000 C 
ATOM     15  C   UNL     1      -9.148   0.983 124.114  0.00  0.00    +0.000 C 
ATOM     16  C   UNL     1      -9.472   1.583 122.917  0.00  0.00    +0.000 C 
ATOM     17  C   UNL     1      -9.793   0.710 125.461  0.00  0.00    +0.000 C 
ATOM     18  C   UNL     1      -8.938   1.218 126.744  0.00  0.00    +0.000 C 
ENDBRANCH  11  12
ENDBRANCH   1  11
BRANCH   1  19
ATOM     19  O   UNL     1      -6.961  -1.373 128.733  0.00  0.00    +0.000 OA
ATOM     20  H   UNL     1      -7.005  -2.200 129.238  0.00  0.00    +0.000 HD
ENDBRANCH   1  19
BRANCH   1  21
ATOM     21  C   UNL     1      -5.150  -2.137 127.814  0.00  0.00    +0.000 C 
BRANCH  21  22
ATOM     22  N   UNL     1      -4.934  -2.123 129.263  0.00  0.00    +0.000 N 
ATOM     23  C   UNL     1      -5.146  -3.075 130.230  0.00  0.00    +0.000 A 
ATOM     24  N   UNL     1      -5.021  -2.544 131.422  0.00  0.00    +0.000 NA
ATOM     25  C   UNL     1      -4.514  -1.321 131.130  0.00  0.00    +0.000 A 
ATOM     26  N   UNL     1      -4.411  -1.022 129.832  0.00  0.00    +0.000 NA
ENDBRANCH  21  22
ENDBRANCH   1  21
TORSDOF 6
ENDMDL
