MODEL 1
REMARK VINA RESULT:      -5.3      0.000      0.000
REMARK  Name = Eflornithine
REMARK  8 active torsions:
REMARK  status: ('A' for Active; 'I' for Inactive)
REMARK    1  A    between atoms: N_1  and  C_2
REMARK    2  A    between atoms: C_2  and  C_3
REMARK    3  A    between atoms: C_3  and  C_4
REMARK    4  A    between atoms: C_4  and  C_5
REMARK    5  A    between atoms: C_5  and  N_6
REMARK    6  A    between atoms: C_5  and  C_7
REMARK    7  A    between atoms: C_5  and  C_10
REMARK    8  A    between atoms: C_10  and  O_11
REMARK                            x       y       z     vdW  Elec       q    Type
REMARK                         _______ _______ _______ _____ _____    ______ ____
ROOT
ATOM      1  C   UNL     1     -11.745   7.328 128.723  0.00  0.00    +0.000 C 
ENDROOT
BRANCH   1   2
ATOM      2  N   UNL     1     -12.400   6.016 129.001  0.00  0.00    +0.000 NA
ATOM      3  H   UNL     1     -12.119   5.672 129.919  0.00  0.00    +0.000 HD
ATOM      4  H   UNL     1     -12.165   5.316 128.303  0.00  0.00    +0.000 HD
ENDBRANCH   1   2
BRANCH   1   5
ATOM      5  C   UNL     1     -11.977   7.812 127.261  0.00  0.00    +0.000 C 
ATOM      6  F   UNL     1     -10.862   8.346 126.710  0.00  0.00    +0.000 F 
ATOM      7  F   UNL     1     -12.292   6.758 126.457  0.00  0.00    +0.000 F 
ENDBRANCH   1   5
BRANCH   1   8
ATOM      8  C   UNL     1     -10.210   7.141 128.851  0.00  0.00    +0.000 C 
ATOM      9  O   UNL     1      -9.469   7.934 129.426  0.00  0.00    +0.000 OA
BRANCH   8  10
ATOM     10  O   UNL     1      -9.663   6.047 128.271  0.00  0.00    +0.000 OA
ATOM     11  H   UNL     1      -9.455   5.261 128.805  0.00  0.00    +0.000 HD
ENDBRANCH   8  10
ENDBRANCH   1   8
BRANCH   1  12
ATOM     12  C   UNL     1     -12.305   8.369 129.728  0.00  0.00    +0.000 C 
BRANCH  12  13
ATOM     13  C   UNL     1     -13.029   9.552 129.082  0.00  0.00    +0.000 C 
BRANCH  13  14
ATOM     14  C   UNL     1     -13.343  10.643 130.091  0.00  0.00    +0.000 C 
BRANCH  14  15
ATOM     15  N   UNL     1     -13.404  11.908 129.380  0.00  0.00    +0.000 NA
ATOM     16  H   UNL     1     -13.772  12.636 129.988  0.00  0.00    +0.000 HD
ATOM     17  H   UNL     1     -14.041  11.836 128.585  0.00  0.00    +0.000 HD
ENDBRANCH  14  15
ENDBRANCH  13  14
ENDBRANCH  12  13
ENDBRANCH   1  12
TORSDOF 8
ENDMDL
MODEL 2
REMARK VINA RESULT:      -5.3      2.643      3.578
REMARK  Name = Eflornithine
REMARK  8 active torsions:
REMARK  status: ('A' for Active; 'I' for Inactive)
REMARK    1  A    between atoms: N_1  and  C_2
REMARK    2  A    between atoms: C_2  and  C_3
REMARK    3  A    between atoms: C_3  and  C_4
REMARK    4  A    between atoms: C_4  and  C_5
REMARK    5  A    between atoms: C_5  and  N_6
REMARK    6  A    between atoms: C_5  and  C_7
REMARK    7  A    between atoms: C_5  and  C_10
REMARK    8  A    between atoms: C_10  and  O_11
REMARK                            x       y       z     vdW  Elec       q    Type
REMARK                         _______ _______ _______ _____ _____    ______ ____
ROOT
ATOM      1  C   UNL     1     -11.821   7.425 128.410  0.00  0.00    +0.000 C 
ENDROOT
BRANCH   1   2
ATOM      2  N   UNL     1     -12.639   6.219 128.736  0.00  0.00    +0.000 NA
ATOM      3  H   UNL     1     -13.564   6.299 128.313  0.00  0.00    +0.000 HD
ATOM      4  H   UNL     1     -12.747   6.090 129.737  0.00  0.00    +0.000 HD
ENDBRANCH   1   2
BRANCH   1   5
ATOM      5  C   UNL     1     -12.572   8.754 128.720  0.00  0.00    +0.000 C 
ATOM      6  F   UNL     1     -13.787   8.812 128.127  0.00  0.00    +0.000 F 
ATOM      7  F   UNL     1     -12.832   8.853 130.054  0.00  0.00    +0.000 F 
ENDBRANCH   1   5
BRANCH   1   8
ATOM      8  C   UNL     1     -11.574   7.445 126.879  0.00  0.00    +0.000 C 
ATOM      9  O   UNL     1     -10.788   8.207 126.322  0.00  0.00    +0.000 OA
BRANCH   8  10
ATOM     10  O   UNL     1     -12.289   6.583 126.119  0.00  0.00    +0.000 OA
ATOM     11  H   UNL     1     -12.252   5.627 126.295  0.00  0.00    +0.000 HD
ENDBRANCH   8  10
ENDBRANCH   1   8
BRANCH   1  12
ATOM     12  C   UNL     1     -10.505   7.350 129.227  0.00  0.00    +0.000 C 
BRANCH  12  13
ATOM     13  C   UNL     1     -10.371   6.105 130.106  0.00  0.00    +0.000 C 
BRANCH  13  14
ATOM     14  C   UNL     1     -10.623   6.417 131.571  0.00  0.00    +0.000 C 
BRANCH  14  15
ATOM     15  N   UNL     1     -12.035   6.204 131.837  0.00  0.00    +0.000 NA
ATOM     16  H   UNL     1     -12.222   5.214 131.972  0.00  0.00    +0.000 HD
ATOM     17  H   UNL     1     -12.594   6.507 131.040  0.00  0.00    +0.000 HD
ENDBRANCH  14  15
ENDBRANCH  13  14
ENDBRANCH  12  13
ENDBRANCH   1  12
TORSDOF 8
ENDMDL
MODEL 3
REMARK VINA RESULT:      -5.2      3.205      3.827
REMARK  Name = Eflornithine
REMARK  8 active torsions:
REMARK  status: ('A' for Active; 'I' for Inactive)
REMARK    1  A    between atoms: N_1  and  C_2
REMARK    2  A    between atoms: C_2  and  C_3
REMARK    3  A    between atoms: C_3  and  C_4
REMARK    4  A    between atoms: C_4  and  C_5
REMARK    5  A    between atoms: C_5  and  N_6
REMARK    6  A    between atoms: C_5  and  C_7
REMARK    7  A    between atoms: C_5  and  C_10
REMARK    8  A    between atoms: C_10  and  O_11
REMARK                            x       y       z     vdW  Elec       q    Type
REMARK                         _______ _______ _______ _____ _____    ______ ____
ROOT
ATOM      1  C   UNL     1     -11.485   6.777 129.987  0.00  0.00    +0.000 C 
ENDROOT
BRANCH   1   2
ATOM      2  N   UNL     1     -12.186   5.775 129.130  0.00  0.00    +0.000 NA
ATOM      3  H   UNL     1     -12.403   4.940 129.674  0.00  0.00    +0.000 HD
ATOM      4  H   UNL     1     -11.629   5.506 128.325  0.00  0.00    +0.000 HD
ENDBRANCH   1   2
BRANCH   1   5
ATOM      5  C   UNL     1      -9.978   6.440 130.185  0.00  0.00    +0.000 C 
ATOM      6  F   UNL     1      -9.439   5.825 129.108  0.00  0.00    +0.000 F 
ATOM      7  F   UNL     1      -9.251   7.584 130.332  0.00  0.00    +0.000 F 
ENDBRANCH   1   5
BRANCH   1   8
ATOM      8  C   UNL     1     -12.106   6.718 131.408  0.00  0.00    +0.000 C 
ATOM      9  O   UNL     1     -13.171   7.250 131.712  0.00  0.00    +0.000 OA
BRANCH   8  10
ATOM     10  O   UNL     1     -11.414   6.059 132.366  0.00  0.00    +0.000 OA
ATOM     11  H   UNL     1     -11.521   6.301 133.301  0.00  0.00    +0.000 HD
ENDBRANCH   8  10
ENDBRANCH   1   8
BRANCH   1  12
ATOM     12  C   UNL     1     -11.641   8.171 129.325  0.00  0.00    +0.000 C 
BRANCH  12  13
ATOM     13  C   UNL     1     -12.097   8.135 127.864  0.00  0.00    +0.000 C 
BRANCH  13  14
ATOM     14  C   UNL     1     -10.924   8.004 126.909  0.00  0.00    +0.000 C 
BRANCH  14  15
ATOM     15  N   UNL     1     -10.966   6.673 126.329  0.00  0.00    +0.000 NA
ATOM     16  H   UNL     1     -10.142   6.513 125.754  0.00  0.00    +0.000 HD
ATOM     17  H   UNL     1     -11.777   6.580 125.716  0.00  0.00    +0.000 HD
ENDBRANCH  14  15
ENDBRANCH  13  14
ENDBRANCH  12  13
ENDBRANCH   1  12
TORSDOF 8
ENDMDL
MODEL 4
REMARK VINA RESULT:      -5.0      2.751      4.046
REMARK  Name = Eflornithine
REMARK  8 active torsions:
REMARK  status: ('A' for Active; 'I' for Inactive)
REMARK    1  A    between atoms: N_1  and  C_2
REMARK    2  A    between atoms: C_2  and  C_3
REMARK    3  A    between atoms: C_3  and  C_4
REMARK    4  A    between atoms: C_4  and  C_5
REMARK    5  A    between atoms: C_5  and  N_6
REMARK    6  A    between atoms: C_5  and  C_7
REMARK    7  A    between atoms: C_5  and  C_10
REMARK    8  A    between atoms: C_10  and  O_11
REMARK                            x       y       z     vdW  Elec       q    Type
REMARK                         _______ _______ _______ _____ _____    ______ ____
ROOT
ATOM      1  C   UNL     1     -12.280   8.480 128.796  0.00  0.00    +0.000 C 
ENDROOT
BRANCH   1   2
ATOM      2  N   UNL     1     -11.196   8.964 127.891  0.00  0.00    +0.000 NA
ATOM      3  H   UNL     1     -11.200   9.984 127.855  0.00  0.00    +0.000 HD
ATOM      4  H   UNL     1     -11.297   8.603 126.947  0.00  0.00    +0.000 HD
ENDBRANCH   1   2
BRANCH   1   5
ATOM      5  C   UNL     1     -13.325   7.596 128.054  0.00  0.00    +0.000 C 
ATOM      6  F   UNL     1     -12.950   7.306 126.787  0.00  0.00    +0.000 F 
ATOM      7  F   UNL     1     -13.443   6.384 128.667  0.00  0.00    +0.000 F 
ENDBRANCH   1   5
BRANCH   1   8
ATOM      8  C   UNL     1     -13.075   9.712 129.304  0.00  0.00    +0.000 C 
ATOM      9  O   UNL     1     -13.122  10.059 130.481  0.00  0.00    +0.000 OA
BRANCH   8  10
ATOM     10  O   UNL     1     -13.774  10.424 128.389  0.00  0.00    +0.000 OA
ATOM     11  H   UNL     1     -13.401  10.588 127.506  0.00  0.00    +0.000 HD
ENDBRANCH   8  10
ENDBRANCH   1   8
BRANCH   1  12
ATOM     12  C   UNL     1     -11.621   7.678 129.950  0.00  0.00    +0.000 C 
BRANCH  12  13
ATOM     13  C   UNL     1     -10.120   7.434 129.780  0.00  0.00    +0.000 C 
BRANCH  13  14
ATOM     14  C   UNL     1      -9.829   6.035 129.266  0.00  0.00    +0.000 C 
BRANCH  14  15
ATOM     15  N   UNL     1      -9.588   6.124 127.837  0.00  0.00    +0.000 NA
ATOM     16  H   UNL     1     -10.323   5.640 127.326  0.00  0.00    +0.000 HD
ATOM     17  H   UNL     1      -8.709   5.665 127.597  0.00  0.00    +0.000 HD
ENDBRANCH  14  15
ENDBRANCH  13  14
ENDBRANCH  12  13
ENDBRANCH   1  12
TORSDOF 8
ENDMDL
MODEL 5
REMARK VINA RESULT:      -4.9      2.284      2.683
REMARK  Name = Eflornithine
REMARK  8 active torsions:
REMARK  status: ('A' for Active; 'I' for Inactive)
REMARK    1  A    between atoms: N_1  and  C_2
REMARK    2  A    between atoms: C_2  and  C_3
REMARK    3  A    between atoms: C_3  and  C_4
REMARK    4  A    between atoms: C_4  and  C_5
REMARK    5  A    between atoms: C_5  and  N_6
REMARK    6  A    between atoms: C_5  and  C_7
REMARK    7  A    between atoms: C_5  and  C_10
REMARK    8  A    between atoms: C_10  and  O_11
REMARK                            x       y       z     vdW  Elec       q    Type
REMARK                         _______ _______ _______ _____ _____    ______ ____
ROOT
ATOM      1  C   UNL     1     -11.788   7.772 128.664  0.00  0.00    +0.000 C 
ENDROOT
BRANCH   1   2
ATOM      2  N   UNL     1     -10.891   8.696 127.908  0.00  0.00    +0.000 NA
ATOM      3  H   UNL     1     -11.240   8.822 126.957  0.00  0.00    +0.000 HD
ATOM      4  H   UNL     1      -9.937   8.350 127.864  0.00  0.00    +0.000 HD
ENDBRANCH   1   2
BRANCH   1   5
ATOM      5  C   UNL     1     -11.001   6.647 129.399  0.00  0.00    +0.000 C 
ATOM      6  F   UNL     1     -11.744   5.531 129.582  0.00  0.00    +0.000 F 
ATOM      7  F   UNL     1      -9.941   6.239 128.646  0.00  0.00    +0.000 F 
ENDBRANCH   1   5
BRANCH   1   8
ATOM      8  C   UNL     1     -12.696   7.035 127.644  0.00  0.00    +0.000 C 
ATOM      9  O   UNL     1     -13.887   6.800 127.833  0.00  0.00    +0.000 OA
BRANCH   8  10
ATOM     10  O   UNL     1     -12.126   6.609 126.493  0.00  0.00    +0.000 OA
ATOM     11  H   UNL     1     -12.493   6.881 125.635  0.00  0.00    +0.000 HD
ENDBRANCH   8  10
ENDBRANCH   1   8
BRANCH   1  12
ATOM     12  C   UNL     1     -12.598   8.615 129.684  0.00  0.00    +0.000 C 
BRANCH  12  13
ATOM     13  C   UNL     1     -13.224   9.886 129.107  0.00  0.00    +0.000 C 
BRANCH  13  14
ATOM     14  C   UNL     1     -13.453  10.940 130.176  0.00  0.00    +0.000 C 
BRANCH  14  15
ATOM     15  N   UNL     1     -13.541  12.232 129.519  0.00  0.00    +0.000 NA
ATOM     16  H   UNL     1     -14.433  12.673 129.729  0.00  0.00    +0.000 HD
ATOM     17  H   UNL     1     -13.498  12.118 128.506  0.00  0.00    +0.000 HD
ENDBRANCH  14  15
ENDBRANCH  13  14
ENDBRANCH  12  13
ENDBRANCH   1  12
TORSDOF 8
ENDMDL
MODEL 6
REMARK VINA RESULT:      -4.9      2.478      3.888
REMARK  Name = Eflornithine
REMARK  8 active torsions:
REMARK  status: ('A' for Active; 'I' for Inactive)
REMARK    1  A    between atoms: N_1  and  C_2
REMARK    2  A    between atoms: C_2  and  C_3
REMARK    3  A    between atoms: C_3  and  C_4
REMARK    4  A    between atoms: C_4  and  C_5
REMARK    5  A    between atoms: C_5  and  N_6
REMARK    6  A    between atoms: C_5  and  C_7
REMARK    7  A    between atoms: C_5  and  C_10
REMARK    8  A    between atoms: C_10  and  O_11
REMARK                            x       y       z     vdW  Elec       q    Type
REMARK                         _______ _______ _______ _____ _____    ______ ____
ROOT
ATOM      1  C   UNL     1     -12.111   7.300 128.154  0.00  0.00    +0.000 C 
ENDROOT
BRANCH   1   2
ATOM      2  N   UNL     1     -12.684   6.783 126.876  0.00  0.00    +0.000 NA
ATOM      3  H   UNL     1     -12.619   5.765 126.850  0.00  0.00    +0.000 HD
ATOM      4  H   UNL     1     -12.207   7.163 126.063  0.00  0.00    +0.000 HD
ENDBRANCH   1   2
BRANCH   1   5
ATOM      5  C   UNL     1     -12.594   8.743 128.483  0.00  0.00    +0.000 C 
ATOM      6  F   UNL     1     -13.836   8.994 128.006  0.00  0.00    +0.000 F 
ATOM      7  F   UNL     1     -12.699   8.914 129.831  0.00  0.00    +0.000 F 
ENDBRANCH   1   5
BRANCH   1   8
ATOM      8  C   UNL     1     -10.573   7.414 127.985  0.00  0.00    +0.000 C 
ATOM      9  O   UNL     1      -9.868   6.528 127.510  0.00  0.00    +0.000 OA
BRANCH   8  10
ATOM     10  O   UNL     1      -9.980   8.554 128.413  0.00  0.00    +0.000 OA
ATOM     11  H   UNL     1      -9.807   9.280 127.790  0.00  0.00    +0.000 HD
ENDBRANCH   8  10
ENDBRANCH   1   8
BRANCH   1  12
ATOM     12  C   UNL     1     -12.516   6.326 129.292  0.00  0.00    +0.000 C 
BRANCH  12  13
ATOM     13  C   UNL     1     -11.416   6.057 130.322  0.00  0.00    +0.000 C 
BRANCH  13  14
ATOM     14  C   UNL     1     -11.098   4.577 130.436  0.00  0.00    +0.000 C 
BRANCH  14  15
ATOM     15  N   UNL     1      -9.902   4.314 129.655  0.00  0.00    +0.000 NA
ATOM     16  H   UNL     1      -9.299   5.133 129.649  0.00  0.00    +0.000 HD
ATOM     17  H   UNL     1     -10.150   4.120 128.685  0.00  0.00    +0.000 HD
ENDBRANCH  14  15
ENDBRANCH  13  14
ENDBRANCH  12  13
ENDBRANCH   1  12
TORSDOF 8
ENDMDL
MODEL 7
REMARK VINA RESULT:      -4.8      2.728      3.905
REMARK  Name = Eflornithine
REMARK  8 active torsions:
REMARK  status: ('A' for Active; 'I' for Inactive)
REMARK    1  A    between atoms: N_1  and  C_2
REMARK    2  A    between atoms: C_2  and  C_3
REMARK    3  A    between atoms: C_3  and  C_4
REMARK    4  A    between atoms: C_4  and  C_5
REMARK    5  A    between atoms: C_5  and  N_6
REMARK    6  A    between atoms: C_5  and  C_7
REMARK    7  A    between atoms: C_5  and  C_10
REMARK    8  A    between atoms: C_10  and  O_11
REMARK                            x       y       z     vdW  Elec       q    Type
REMARK                         _______ _______ _______ _____ _____    ______ ____
ROOT
ATOM      1  C   UNL     1     -11.817   8.098 128.629  0.00  0.00    +0.000 C 
ENDROOT
BRANCH   1   2
ATOM      2  N   UNL     1     -11.022   8.700 127.518  0.00  0.00    +0.000 NA
ATOM      3  H   UNL     1     -11.625   9.272 126.926  0.00  0.00    +0.000 HD
ATOM      4  H   UNL     1     -10.574   7.993 126.942  0.00  0.00    +0.000 HD
ENDBRANCH   1   2
BRANCH   1   5
ATOM      5  C   UNL     1     -12.652   6.868 128.165  0.00  0.00    +0.000 C 
ATOM      6  F   UNL     1     -13.881   6.834 128.731  0.00  0.00    +0.000 F 
ATOM      7  F   UNL     1     -12.888   6.933 126.825  0.00  0.00    +0.000 F 
ENDBRANCH   1   5
BRANCH   1   8
ATOM      8  C   UNL     1     -12.861   9.145 129.100  0.00  0.00    +0.000 C 
ATOM      9  O   UNL     1     -13.610   9.755 128.341  0.00  0.00    +0.000 OA
BRANCH   8  10
ATOM     10  O   UNL     1     -12.926   9.411 130.426  0.00  0.00    +0.000 OA
ATOM     11  H   UNL     1     -13.788   9.502 130.866  0.00  0.00    +0.000 HD
ENDBRANCH   8  10
ENDBRANCH   1   8
BRANCH   1  12
ATOM     12  C   UNL     1     -10.835   7.686 129.757  0.00  0.00    +0.000 C 
BRANCH  12  13
ATOM     13  C   UNL     1     -11.122   6.320 130.384  0.00  0.00    +0.000 C 
BRANCH  13  14
ATOM     14  C   UNL     1     -11.675   6.450 131.793  0.00  0.00    +0.000 C 
BRANCH  14  15
ATOM     15  N   UNL     1     -10.595   6.179 132.725  0.00  0.00    +0.000 NA
ATOM     16  H   UNL     1     -10.942   5.651 133.522  0.00  0.00    +0.000 HD
ATOM     17  H   UNL     1     -10.216   7.053 133.090  0.00  0.00    +0.000 HD
ENDBRANCH  14  15
ENDBRANCH  13  14
ENDBRANCH  12  13
ENDBRANCH   1  12
TORSDOF 8
ENDMDL
MODEL 8
REMARK VINA RESULT:      -4.7      3.043      3.540
REMARK  Name = Eflornithine
REMARK  8 active torsions:
REMARK  status: ('A' for Active; 'I' for Inactive)
REMARK    1  A    between atoms: N_1  and  C_2
REMARK    2  A    between atoms: C_2  and  C_3
REMARK    3  A    between atoms: C_3  and  C_4
REMARK    4  A    between atoms: C_4  and  C_5
REMARK    5  A    between atoms: C_5  and  N_6
REMARK    6  A    between atoms: C_5  and  C_7
REMARK    7  A    between atoms: C_5  and  C_10
REMARK    8  A    between atoms: C_10  and  O_11
REMARK                            x       y       z     vdW  Elec       q    Type
REMARK                         _______ _______ _______ _____ _____    ______ ____
ROOT
ATOM      1  C   UNL     1     -11.045   5.963 130.712  0.00  0.00    +0.000 C 
ENDROOT
BRANCH   1   2
ATOM      2  N   UNL     1     -11.880   6.099 131.943  0.00  0.00    +0.000 NA
ATOM      3  H   UNL     1     -12.626   6.778 131.786  0.00  0.00    +0.000 HD
ATOM      4  H   UNL     1     -11.332   6.393 132.746  0.00  0.00    +0.000 HD
ENDBRANCH   1   2
BRANCH   1   5
ATOM      5  C   UNL     1     -10.662   4.484 130.413  0.00  0.00    +0.000 C 
ATOM      6  F   UNL     1     -10.119   3.863 131.486  0.00  0.00    +0.000 F 
ATOM      7  F   UNL     1     -11.775   3.755 130.118  0.00  0.00    +0.000 F 
ENDBRANCH   1   5
BRANCH   1   8
ATOM      8  C   UNL     1      -9.698   6.692 130.958  0.00  0.00    +0.000 C 
ATOM      9  O   UNL     1      -9.089   6.664 132.024  0.00  0.00    +0.000 OA
BRANCH   8  10
ATOM     10  O   UNL     1      -9.184   7.417 129.937  0.00  0.00    +0.000 OA
ATOM     11  H   UNL     1      -8.225   7.432 129.781  0.00  0.00    +0.000 HD
ENDBRANCH   8  10
ENDBRANCH   1   8
BRANCH   1  12
ATOM     12  C   UNL     1     -11.840   6.562 129.522  0.00  0.00    +0.000 C 
BRANCH  12  13
ATOM     13  C   UNL     1     -12.748   7.737 129.890  0.00  0.00    +0.000 C 
BRANCH  13  14
ATOM     14  C   UNL     1     -12.602   8.892 128.914  0.00  0.00    +0.000 C 
BRANCH  14  15
ATOM     15  N   UNL     1     -11.303   8.777 128.276  0.00  0.00    +0.000 NA
ATOM     16  H   UNL     1     -10.684   9.515 128.603  0.00  0.00    +0.000 HD
ATOM     17  H   UNL     1     -11.394   8.893 127.266  0.00  0.00    +0.000 HD
ENDBRANCH  14  15
ENDBRANCH  13  14
ENDBRANCH  12  13
ENDBRANCH   1  12
TORSDOF 8
ENDMDL
MODEL 9
REMARK VINA RESULT:      -4.7     11.546     13.449
REMARK  Name = Eflornithine
REMARK  8 active torsions:
REMARK  status: ('A' for Active; 'I' for Inactive)
REMARK    1  A    between atoms: N_1  and  C_2
REMARK    2  A    between atoms: C_2  and  C_3
REMARK    3  A    between atoms: C_3  and  C_4
REMARK    4  A    between atoms: C_4  and  C_5
REMARK    5  A    between atoms: C_5  and  N_6
REMARK    6  A    between atoms: C_5  and  C_7
REMARK    7  A    between atoms: C_5  and  C_10
REMARK    8  A    between atoms: C_10  and  O_11
REMARK                            x       y       z     vdW  Elec       q    Type
REMARK                         _______ _______ _______ _____ _____    ______ ____
ROOT
ATOM      1  C   UNL     1      -7.554  -2.327 124.055  0.00  0.00    +0.000 C 
ENDROOT
BRANCH   1   2
ATOM      2  N   UNL     1      -7.392  -1.979 122.612  0.00  0.00    +0.000 NA
ATOM      3  H   UNL     1      -8.299  -1.991 122.146  0.00  0.00    +0.000 HD
ATOM      4  H   UNL     1      -6.768  -2.621 122.133  0.00  0.00    +0.000 HD
ENDBRANCH   1   2
BRANCH   1   5
ATOM      5  C   UNL     1      -8.695  -3.359 124.293  0.00  0.00    +0.000 C 
ATOM      6  F   UNL     1      -9.413  -3.605 123.173  0.00  0.00    +0.000 F 
ATOM      7  F   UNL     1      -8.175  -4.569 124.645  0.00  0.00    +0.000 F 
ENDBRANCH   1   5
BRANCH   1   8
ATOM      8  C   UNL     1      -7.996  -1.048 124.815  0.00  0.00    +0.000 C 
ATOM      9  O   UNL     1      -7.222  -0.170 125.186  0.00  0.00    +0.000 OA
BRANCH   8  10
ATOM     10  O   UNL     1      -9.313  -0.916 125.103  0.00  0.00    +0.000 OA
ATOM     11  H   UNL     1      -9.625  -1.004 126.019  0.00  0.00    +0.000 HD
ENDBRANCH   8  10
ENDBRANCH   1   8
BRANCH   1  12
ATOM     12  C   UNL     1      -6.204  -2.891 124.570  0.00  0.00    +0.000 C 
BRANCH  12  13
ATOM     13  C   UNL     1      -5.244  -3.349 123.470  0.00  0.00    +0.000 C 
BRANCH  13  14
ATOM     14  C   UNL     1      -4.263  -4.393 123.974  0.00  0.00    +0.000 C 
BRANCH  14  15
ATOM     15  N   UNL     1      -4.230  -5.479 123.010  0.00  0.00    +0.000 NA
ATOM     16  H   UNL     1      -3.816  -6.308 123.429  0.00  0.00    +0.000 HD
ATOM     17  H   UNL     1      -3.647  -5.226 122.212  0.00  0.00    +0.000 HD
ENDBRANCH  14  15
ENDBRANCH  13  14
ENDBRANCH  12  13
ENDBRANCH   1  12
TORSDOF 8
ENDMDL
