MODEL 1
REMARK VINA RESULT:      -9.3      0.000      0.000
REMARK  Name = Elagolix
REMARK  16 active torsions:
REMARK  status: ('A' for Active; 'I' for Inactive)
REMARK    1  A    between atoms: C_1  and  O_2
REMARK    2  A    between atoms: O_2  and  C_3
REMARK    3  A    between atoms: C_7  and  C_10
REMARK    4  A    between atoms: C_11  and  C_12
REMARK    5  A    between atoms: N_13  and  C_14
REMARK    6  A    between atoms: C_14  and  C_15
REMARK    7  A    between atoms: C_16  and  C_22
REMARK    8  A    between atoms: N_28  and  C_29
REMARK    9  A    between atoms: C_29  and  C_30
REMARK   10  A    between atoms: C_30  and  N_31
REMARK   11  A    between atoms: C_30  and  C_38
REMARK   12  A    between atoms: N_31  and  C_32
REMARK   13  A    between atoms: C_32  and  C_33
REMARK   14  A    between atoms: C_33  and  C_34
REMARK   15  A    between atoms: C_34  and  C_35
REMARK   16  A    between atoms: C_35  and  O_36
REMARK                            x       y       z     vdW  Elec       q    Type
REMARK                         _______ _______ _______ _____ _____    ______ ____
ROOT
ATOM      1  C   UNL     1      -7.040   2.623 123.979  0.00  0.00    +0.000 A 
ATOM      2  C   UNL     1      -6.770   1.314 124.169  0.00  0.00    +0.000 A 
ATOM      3  C   UNL     1      -6.671   0.308 123.041  0.00  0.00    +0.000 C 
ATOM      4  N   UNL     1      -6.485   0.840 125.449  0.00  0.00    +0.000 N 
ATOM      5  C   UNL     1      -6.265   1.728 126.478  0.00  0.00    +0.000 A 
ATOM      6  O   UNL     1      -5.543   1.393 127.422  0.00  0.00    +0.000 OA
ATOM      7  N   UNL     1      -6.788   2.987 126.380  0.00  0.00    +0.000 N 
ATOM      8  C   UNL     1      -7.088   3.546 125.157  0.00  0.00    +0.000 A 
ATOM      9  O   UNL     1      -7.369   4.734 125.012  0.00  0.00    +0.000 OA
ENDROOT
BRANCH   1  14
ATOM     10  C   UNL     1      -6.430   4.203 120.615  0.00  0.00    +0.000 A 
ATOM     11  C   UNL     1      -7.718   4.159 120.070  0.00  0.00    +0.000 A 
ATOM     12  C   UNL     1      -8.776   3.598 120.787  0.00  0.00    +0.000 A 
ATOM     13  C   UNL     1      -8.560   3.117 122.073  0.00  0.00    +0.000 A 
ATOM     14  C   UNL     1      -7.280   3.178 122.640  0.00  0.00    +0.000 A 
ATOM     15  C   UNL     1      -6.223   3.732 121.910  0.00  0.00    +0.000 A 
ATOM     16  F   UNL     1      -5.005   3.796 122.471  0.00  0.00    +0.000 F 
BRANCH  10  18
ATOM     17  C   UNL     1      -5.975   5.529 118.737  0.00  0.00    +0.000 C 
ATOM     18  O   UNL     1      -5.462   4.771 119.831  0.00  0.00    +0.000 OA
ENDBRANCH  10  18
ENDBRANCH   1  14
BRANCH   4  19
ATOM     19  C   UNL     1      -6.181  -0.600 125.668  0.00  0.00    +0.000 C 
BRANCH  19  20
ATOM     20  C   UNL     1      -7.275  -1.612 125.364  0.00  0.00    +0.000 A 
ATOM     21  C   UNL     1      -6.984  -2.906 124.857  0.00  0.00    +0.000 A 
ATOM     22  C   UNL     1      -7.989  -3.892 124.838  0.00  0.00    +0.000 A 
ATOM     23  C   UNL     1      -9.264  -3.615 125.311  0.00  0.00    +0.000 A 
ATOM     24  C   UNL     1      -9.554  -2.334 125.756  0.00  0.00    +0.000 A 
ATOM     25  C   UNL     1      -8.580  -1.344 125.786  0.00  0.00    +0.000 A 
ATOM     26  F   UNL     1      -8.867  -0.171 126.374  0.00  0.00    +0.000 F 
BRANCH  21  27
ATOM     27  C   UNL     1      -5.601  -3.256 124.380  0.00  0.00    +0.000 C 
ATOM     28  F   UNL     1      -5.585  -4.479 123.775  0.00  0.00    +0.000 F 
ATOM     29  F   UNL     1      -5.104  -2.381 123.464  0.00  0.00    +0.000 F 
ATOM     30  F   UNL     1      -4.675  -3.326 125.374  0.00  0.00    +0.000 F 
ENDBRANCH  21  27
ENDBRANCH  19  20
ENDBRANCH   4  19
BRANCH   7  31
ATOM     31  C   UNL     1      -6.737   3.893 127.536  0.00  0.00    +0.000 C 
BRANCH  31  32
ATOM     32  C   UNL     1      -7.984   3.945 128.461  0.00  0.00    +0.000 C 
BRANCH  32  33
ATOM     33  C   UNL     1      -7.851   2.948 129.585  0.00  0.00    +0.000 A 
ATOM     34  C   UNL     1      -8.713   1.852 129.661  0.00  0.00    +0.000 A 
ATOM     35  C   UNL     1      -8.386   0.781 130.467  0.00  0.00    +0.000 A 
ATOM     36  C   UNL     1      -7.277   0.862 131.304  0.00  0.00    +0.000 A 
ATOM     37  C   UNL     1      -6.469   2.000 131.315  0.00  0.00    +0.000 A 
ATOM     38  C   UNL     1      -6.741   3.040 130.441  0.00  0.00    +0.000 A 
ENDBRANCH  32  33
BRANCH  32  39
ATOM     39  N   UNL     1      -8.254   5.333 128.912  0.00  0.00    +0.000 NA
ATOM     40  H   UNL     1      -7.399   5.757 129.256  0.00  0.00    +0.000 HD
BRANCH  39  41
ATOM     41  C   UNL     1      -9.340   5.405 129.884  0.00  0.00    +0.000 C 
BRANCH  41  42
ATOM     42  C   UNL     1      -9.959   6.785 129.836  0.00  0.00    +0.000 C 
BRANCH  42  43
ATOM     43  C   UNL     1     -11.042   6.821 128.770  0.00  0.00    +0.000 C 
BRANCH  43  44
ATOM     44  C   UNL     1     -10.594   7.343 127.430  0.00  0.00    +0.000 C 
ATOM     45  O   UNL     1     -10.017   6.628 126.622  0.00  0.00    +0.000 OA
BRANCH  44  46
ATOM     46  O   UNL     1     -10.853   8.636 127.157  0.00  0.00    +0.000 OA
ATOM     47  H   UNL     1     -10.128   9.186 126.809  0.00  0.00    +0.000 HD
ENDBRANCH  44  46
ENDBRANCH  43  44
ENDBRANCH  42  43
ENDBRANCH  41  42
ENDBRANCH  39  41
ENDBRANCH  32  39
ENDBRANCH  31  32
ENDBRANCH   7  31
TORSDOF 14
ENDMDL
MODEL 2
REMARK VINA RESULT:      -9.2      1.876      2.527
REMARK  Name = Elagolix
REMARK  16 active torsions:
REMARK  status: ('A' for Active; 'I' for Inactive)
REMARK    1  A    between atoms: C_1  and  O_2
REMARK    2  A    between atoms: O_2  and  C_3
REMARK    3  A    between atoms: C_7  and  C_10
REMARK    4  A    between atoms: C_11  and  C_12
REMARK    5  A    between atoms: N_13  and  C_14
REMARK    6  A    between atoms: C_14  and  C_15
REMARK    7  A    between atoms: C_16  and  C_22
REMARK    8  A    between atoms: N_28  and  C_29
REMARK    9  A    between atoms: C_29  and  C_30
REMARK   10  A    between atoms: C_30  and  N_31
REMARK   11  A    between atoms: C_30  and  C_38
REMARK   12  A    between atoms: N_31  and  C_32
REMARK   13  A    between atoms: C_32  and  C_33
REMARK   14  A    between atoms: C_33  and  C_34
REMARK   15  A    between atoms: C_34  and  C_35
REMARK   16  A    between atoms: C_35  and  O_36
REMARK                            x       y       z     vdW  Elec       q    Type
REMARK                         _______ _______ _______ _____ _____    ______ ____
ROOT
ATOM      1  C   UNL     1      -7.157   2.148 124.903  0.00  0.00    +0.000 A 
ATOM      2  C   UNL     1      -6.815   0.853 125.071  0.00  0.00    +0.000 A 
ATOM      3  C   UNL     1      -6.638  -0.122 123.925  0.00  0.00    +0.000 C 
ATOM      4  N   UNL     1      -6.526   0.370 126.347  0.00  0.00    +0.000 N 
ATOM      5  C   UNL     1      -6.375   1.247 127.397  0.00  0.00    +0.000 A 
ATOM      6  O   UNL     1      -5.651   0.934 128.347  0.00  0.00    +0.000 OA
ATOM      7  N   UNL     1      -6.968   2.476 127.315  0.00  0.00    +0.000 N 
ATOM      8  C   UNL     1      -7.279   3.042 126.097  0.00  0.00    +0.000 A 
ATOM      9  O   UNL     1      -7.627   4.214 125.971  0.00  0.00    +0.000 OA
ENDROOT
BRANCH   1  14
ATOM     10  C   UNL     1      -6.594   3.876 121.603  0.00  0.00    +0.000 A 
ATOM     11  C   UNL     1      -7.852   3.725 121.013  0.00  0.00    +0.000 A 
ATOM     12  C   UNL     1      -8.875   3.045 121.678  0.00  0.00    +0.000 A 
ATOM     13  C   UNL     1      -8.655   2.550 122.958  0.00  0.00    +0.000 A 
ATOM     14  C   UNL     1      -7.406   2.716 123.571  0.00  0.00    +0.000 A 
ATOM     15  C   UNL     1      -6.384   3.389 122.892  0.00  0.00    +0.000 A 
ATOM     16  F   UNL     1      -5.196   3.553 123.498  0.00  0.00    +0.000 F 
BRANCH  10  18
ATOM     17  C   UNL     1      -6.063   4.823 119.527  0.00  0.00    +0.000 C 
ATOM     18  O   UNL     1      -5.659   4.555 120.869  0.00  0.00    +0.000 OA
ENDBRANCH  10  18
ENDBRANCH   1  14
BRANCH   4  19
ATOM     19  C   UNL     1      -6.141  -1.055 126.542  0.00  0.00    +0.000 C 
BRANCH  19  20
ATOM     20  C   UNL     1      -6.875  -1.848 127.613  0.00  0.00    +0.000 A 
ATOM     21  C   UNL     1      -8.119  -2.482 127.360  0.00  0.00    +0.000 A 
ATOM     22  C   UNL     1      -8.631  -3.414 128.284  0.00  0.00    +0.000 A 
ATOM     23  C   UNL     1      -7.932  -3.720 129.443  0.00  0.00    +0.000 A 
ATOM     24  C   UNL     1      -6.743  -3.057 129.708  0.00  0.00    +0.000 A 
ATOM     25  C   UNL     1      -6.216  -2.136 128.811  0.00  0.00    +0.000 A 
ATOM     26  F   UNL     1      -4.988  -1.642 129.037  0.00  0.00    +0.000 F 
BRANCH  21  27
ATOM     27  C   UNL     1      -8.882  -2.210 126.092  0.00  0.00    +0.000 C 
ATOM     28  F   UNL     1      -9.273  -0.906 126.023  0.00  0.00    +0.000 F 
ATOM     29  F   UNL     1      -8.159  -2.443 124.963  0.00  0.00    +0.000 F 
ATOM     30  F   UNL     1     -10.022  -2.942 125.965  0.00  0.00    +0.000 F 
ENDBRANCH  21  27
ENDBRANCH  19  20
ENDBRANCH   4  19
BRANCH   7  31
ATOM     31  C   UNL     1      -6.990   3.359 128.489  0.00  0.00    +0.000 C 
BRANCH  31  32
ATOM     32  C   UNL     1      -8.379   3.741 129.072  0.00  0.00    +0.000 C 
BRANCH  32  33
ATOM     33  C   UNL     1      -8.485   3.307 130.513  0.00  0.00    +0.000 A 
ATOM     34  C   UNL     1      -7.741   3.954 131.501  0.00  0.00    +0.000 A 
ATOM     35  C   UNL     1      -8.083   3.794 132.829  0.00  0.00    +0.000 A 
ATOM     36  C   UNL     1      -9.072   2.880 133.179  0.00  0.00    +0.000 A 
ATOM     37  C   UNL     1      -9.748   2.145 132.203  0.00  0.00    +0.000 A 
ATOM     38  C   UNL     1      -9.471   2.371 130.865  0.00  0.00    +0.000 A 
ENDBRANCH  32  33
BRANCH  32  39
ATOM     39  N   UNL     1      -8.672   5.178 128.850  0.00  0.00    +0.000 NA
ATOM     40  H   UNL     1      -7.894   5.744 129.175  0.00  0.00    +0.000 HD
BRANCH  39  41
ATOM     41  C   UNL     1      -9.942   5.589 129.439  0.00  0.00    +0.000 C 
BRANCH  41  42
ATOM     42  C   UNL     1     -10.201   7.041 129.099  0.00  0.00    +0.000 C 
BRANCH  42  43
ATOM     43  C   UNL     1     -11.197   7.125 127.954  0.00  0.00    +0.000 C 
BRANCH  43  44
ATOM     44  C   UNL     1     -10.581   7.196 126.582  0.00  0.00    +0.000 C 
ATOM     45  O   UNL     1     -10.920   8.045 125.769  0.00  0.00    +0.000 OA
BRANCH  44  46
ATOM     46  O   UNL     1      -9.639   6.281 126.284  0.00  0.00    +0.000 OA
ATOM     47  H   UNL     1      -8.741   6.598 126.074  0.00  0.00    +0.000 HD
ENDBRANCH  44  46
ENDBRANCH  43  44
ENDBRANCH  42  43
ENDBRANCH  41  42
ENDBRANCH  39  41
ENDBRANCH  32  39
ENDBRANCH  31  32
ENDBRANCH   7  31
TORSDOF 14
ENDMDL
MODEL 3
REMARK VINA RESULT:      -9.2      3.339      6.704
REMARK  Name = Elagolix
REMARK  16 active torsions:
REMARK  status: ('A' for Active; 'I' for Inactive)
REMARK    1  A    between atoms: C_1  and  O_2
REMARK    2  A    between atoms: O_2  and  C_3
REMARK    3  A    between atoms: C_7  and  C_10
REMARK    4  A    between atoms: C_11  and  C_12
REMARK    5  A    between atoms: N_13  and  C_14
REMARK    6  A    between atoms: C_14  and  C_15
REMARK    7  A    between atoms: C_16  and  C_22
REMARK    8  A    between atoms: N_28  and  C_29
REMARK    9  A    between atoms: C_29  and  C_30
REMARK   10  A    between atoms: C_30  and  N_31
REMARK   11  A    between atoms: C_30  and  C_38
REMARK   12  A    between atoms: N_31  and  C_32
REMARK   13  A    between atoms: C_32  and  C_33
REMARK   14  A    between atoms: C_33  and  C_34
REMARK   15  A    between atoms: C_34  and  C_35
REMARK   16  A    between atoms: C_35  and  O_36
REMARK                            x       y       z     vdW  Elec       q    Type
REMARK                         _______ _______ _______ _____ _____    ______ ____
ROOT
ATOM      1  C   UNL     1      -6.783   2.773 124.187  0.00  0.00    +0.000 A 
ATOM      2  C   UNL     1      -6.630   3.651 125.201  0.00  0.00    +0.000 A 
ATOM      3  C   UNL     1      -6.531   5.150 125.003  0.00  0.00    +0.000 C 
ATOM      4  N   UNL     1      -6.636   3.199 126.520  0.00  0.00    +0.000 N 
ATOM      5  C   UNL     1      -7.013   1.905 126.802  0.00  0.00    +0.000 A 
ATOM      6  O   UNL     1      -7.507   1.646 127.903  0.00  0.00    +0.000 OA
ATOM      7  N   UNL     1      -6.902   0.962 125.819  0.00  0.00    +0.000 N 
ATOM      8  C   UNL     1      -6.902   1.311 124.487  0.00  0.00    +0.000 A 
ATOM      9  O   UNL     1      -7.003   0.490 123.577  0.00  0.00    +0.000 OA
ENDROOT
BRANCH   1  14
ATOM     10  C   UNL     1      -8.162   3.754 120.821  0.00  0.00    +0.000 A 
ATOM     11  C   UNL     1      -6.987   4.117 120.156  0.00  0.00    +0.000 A 
ATOM     12  C   UNL     1      -5.753   4.064 120.807  0.00  0.00    +0.000 A 
ATOM     13  C   UNL     1      -5.683   3.602 122.116  0.00  0.00    +0.000 A 
ATOM     14  C   UNL     1      -6.850   3.212 122.786  0.00  0.00    +0.000 A 
ATOM     15  C   UNL     1      -8.084   3.279 122.129  0.00  0.00    +0.000 A 
ATOM     16  F   UNL     1      -9.192   2.888 122.780  0.00  0.00    +0.000 F 
BRANCH  10  18
ATOM     17  C   UNL     1      -9.136   4.358 118.778  0.00  0.00    +0.000 C 
ATOM     18  O   UNL     1      -9.320   3.845 120.096  0.00  0.00    +0.000 OA
ENDBRANCH  10  18
ENDBRANCH   1  14
BRANCH   4  19
ATOM     19  C   UNL     1      -6.474   4.160 127.645  0.00  0.00    +0.000 C 
BRANCH  19  20
ATOM     20  C   UNL     1      -5.541   3.772 128.782  0.00  0.00    +0.000 A 
ATOM     21  C   UNL     1      -4.131   3.892 128.673  0.00  0.00    +0.000 A 
ATOM     22  C   UNL     1      -3.327   3.774 129.825  0.00  0.00    +0.000 A 
ATOM     23  C   UNL     1      -3.899   3.539 131.067  0.00  0.00    +0.000 A 
ATOM     24  C   UNL     1      -5.273   3.370 131.156  0.00  0.00    +0.000 A 
ATOM     25  C   UNL     1      -6.087   3.484 130.036  0.00  0.00    +0.000 A 
ATOM     26  F   UNL     1      -7.420   3.472 130.200  0.00  0.00    +0.000 F 
BRANCH  21  27
ATOM     27  C   UNL     1      -3.480   4.193 127.351  0.00  0.00    +0.000 C 
ATOM     28  F   UNL     1      -3.958   5.355 126.821  0.00  0.00    +0.000 F 
ATOM     29  F   UNL     1      -2.131   4.349 127.433  0.00  0.00    +0.000 F 
ATOM     30  F   UNL     1      -3.691   3.241 126.402  0.00  0.00    +0.000 F 
ENDBRANCH  21  27
ENDBRANCH  19  20
ENDBRANCH   4  19
BRANCH   7  31
ATOM     31  C   UNL     1      -7.111  -0.458 126.140  0.00  0.00    +0.000 C 
BRANCH  31  32
ATOM     32  C   UNL     1      -5.848  -1.338 126.349  0.00  0.00    +0.000 C 
BRANCH  32  33
ATOM     33  C   UNL     1      -6.021  -2.234 127.550  0.00  0.00    +0.000 A 
ATOM     34  C   UNL     1      -4.912  -2.629 128.300  0.00  0.00    +0.000 A 
ATOM     35  C   UNL     1      -5.094  -3.151 129.565  0.00  0.00    +0.000 A 
ATOM     36  C   UNL     1      -6.382  -3.412 130.023  0.00  0.00    +0.000 A 
ATOM     37  C   UNL     1      -7.497  -3.121 129.235  0.00  0.00    +0.000 A 
ATOM     38  C   UNL     1      -7.321  -2.512 128.003  0.00  0.00    +0.000 A 
ENDBRANCH  32  33
BRANCH  32  39
ATOM     39  N   UNL     1      -5.490  -2.059 125.102  0.00  0.00    +0.000 NA
ATOM     40  H   UNL     1      -4.771  -1.546 124.601  0.00  0.00    +0.000 HD
BRANCH  39  41
ATOM     41  C   UNL     1      -6.651  -2.346 124.267  0.00  0.00    +0.000 C 
BRANCH  41  42
ATOM     42  C   UNL     1      -6.925  -3.835 124.293  0.00  0.00    +0.000 C 
BRANCH  42  43
ATOM     43  C   UNL     1      -8.276  -4.092 124.941  0.00  0.00    +0.000 C 
BRANCH  43  44
ATOM     44  C   UNL     1      -9.383  -3.180 124.481  0.00  0.00    +0.000 C 
ATOM     45  O   UNL     1      -9.803  -3.209 123.332  0.00  0.00    +0.000 OA
BRANCH  44  46
ATOM     46  O   UNL     1      -9.891  -2.325 125.388  0.00  0.00    +0.000 OA
ATOM     47  H   UNL     1     -10.283  -2.697 126.200  0.00  0.00    +0.000 HD
ENDBRANCH  44  46
ENDBRANCH  43  44
ENDBRANCH  42  43
ENDBRANCH  41  42
ENDBRANCH  39  41
ENDBRANCH  32  39
ENDBRANCH  31  32
ENDBRANCH   7  31
TORSDOF 14
ENDMDL
MODEL 4
REMARK VINA RESULT:      -9.1      4.643      8.112
REMARK  Name = Elagolix
REMARK  16 active torsions:
REMARK  status: ('A' for Active; 'I' for Inactive)
REMARK    1  A    between atoms: C_1  and  O_2
REMARK    2  A    between atoms: O_2  and  C_3
REMARK    3  A    between atoms: C_7  and  C_10
REMARK    4  A    between atoms: C_11  and  C_12
REMARK    5  A    between atoms: N_13  and  C_14
REMARK    6  A    between atoms: C_14  and  C_15
REMARK    7  A    between atoms: C_16  and  C_22
REMARK    8  A    between atoms: N_28  and  C_29
REMARK    9  A    between atoms: C_29  and  C_30
REMARK   10  A    between atoms: C_30  and  N_31
REMARK   11  A    between atoms: C_30  and  C_38
REMARK   12  A    between atoms: N_31  and  C_32
REMARK   13  A    between atoms: C_32  and  C_33
REMARK   14  A    between atoms: C_33  and  C_34
REMARK   15  A    between atoms: C_34  and  C_35
REMARK   16  A    between atoms: C_35  and  O_36
REMARK                            x       y       z     vdW  Elec       q    Type
REMARK                         _______ _______ _______ _____ _____    ______ ____
ROOT
ATOM      1  C   UNL     1      -6.687   1.163 130.283  0.00  0.00    +0.000 A 
ATOM      2  C   UNL     1      -5.461   1.692 130.087  0.00  0.00    +0.000 A 
ATOM      3  C   UNL     1      -4.181   0.885 130.156  0.00  0.00    +0.000 C 
ATOM      4  N   UNL     1      -5.331   3.031 129.723  0.00  0.00    +0.000 N 
ATOM      5  C   UNL     1      -6.442   3.755 129.352  0.00  0.00    +0.000 A 
ATOM      6  O   UNL     1      -6.313   4.705 128.574  0.00  0.00    +0.000 OA
ATOM      7  N   UNL     1      -7.668   3.345 129.796  0.00  0.00    +0.000 N 
ATOM      8  C   UNL     1      -7.897   2.037 130.164  0.00  0.00    +0.000 A 
ATOM      9  O   UNL     1      -9.021   1.586 130.377  0.00  0.00    +0.000 OA
ENDROOT
BRANCH   1  14
ATOM     10  C   UNL     1      -7.171  -2.549 129.867  0.00  0.00    +0.000 A 
ATOM     11  C   UNL     1      -7.154  -2.964 131.203  0.00  0.00    +0.000 A 
ATOM     12  C   UNL     1      -6.965  -2.042 132.234  0.00  0.00    +0.000 A 
ATOM     13  C   UNL     1      -6.836  -0.691 131.935  0.00  0.00    +0.000 A 
ATOM     14  C   UNL     1      -6.876  -0.258 130.603  0.00  0.00    +0.000 A 
ATOM     15  C   UNL     1      -7.055  -1.192 129.575  0.00  0.00    +0.000 A 
ATOM     16  F   UNL     1      -7.105  -0.761 128.304  0.00  0.00    +0.000 F 
BRANCH  10  18
ATOM     17  C   UNL     1      -8.710  -3.651 128.486  0.00  0.00    +0.000 C 
ATOM     18  O   UNL     1      -7.360  -3.531 128.932  0.00  0.00    +0.000 OA
ENDBRANCH  10  18
ENDBRANCH   1  14
BRANCH   4  19
ATOM     19  C   UNL     1      -3.983   3.622 129.497  0.00  0.00    +0.000 C 
BRANCH  19  20
ATOM     20  C   UNL     1      -3.592   4.835 130.327  0.00  0.00    +0.000 A 
ATOM     21  C   UNL     1      -3.131   6.038 129.730  0.00  0.00    +0.000 A 
ATOM     22  C   UNL     1      -3.031   7.210 130.505  0.00  0.00    +0.000 A 
ATOM     23  C   UNL     1      -3.377   7.203 131.849  0.00  0.00    +0.000 A 
ATOM     24  C   UNL     1      -3.776   6.013 132.436  0.00  0.00    +0.000 A 
ATOM     25  C   UNL     1      -3.885   4.844 131.693  0.00  0.00    +0.000 A 
ATOM     26  F   UNL     1      -4.427   3.758 132.269  0.00  0.00    +0.000 F 
BRANCH  21  27
ATOM     27  C   UNL     1      -2.791   6.094 128.266  0.00  0.00    +0.000 C 
ATOM     28  F   UNL     1      -1.972   7.150 127.991  0.00  0.00    +0.000 F 
ATOM     29  F   UNL     1      -2.138   4.989 127.817  0.00  0.00    +0.000 F 
ATOM     30  F   UNL     1      -3.872   6.247 127.453  0.00  0.00    +0.000 F 
ENDBRANCH  21  27
ENDBRANCH  19  20
ENDBRANCH   4  19
BRANCH   7  31
ATOM     31  C   UNL     1      -8.847   4.197 129.582  0.00  0.00    +0.000 C 
BRANCH  31  32
ATOM     32  C   UNL     1      -9.088   5.352 130.591  0.00  0.00    +0.000 C 
BRANCH  32  33
ATOM     33  C   UNL     1      -8.551   4.986 131.953  0.00  0.00    +0.000 A 
ATOM     34  C   UNL     1      -7.434   5.644 132.470  0.00  0.00    +0.000 A 
ATOM     35  C   UNL     1      -7.154   5.556 133.819  0.00  0.00    +0.000 A 
ATOM     36  C   UNL     1      -7.900   4.700 134.623  0.00  0.00    +0.000 A 
ATOM     37  C   UNL     1      -8.953   3.952 134.091  0.00  0.00    +0.000 A 
ATOM     38  C   UNL     1      -9.295   4.108 132.757  0.00  0.00    +0.000 A 
ENDBRANCH  32  33
BRANCH  32  39
ATOM     39  N   UNL     1      -8.571   6.639 130.062  0.00  0.00    +0.000 NA
ATOM     40  H   UNL     1      -7.857   7.005 130.684  0.00  0.00    +0.000 HD
BRANCH  39  41
ATOM     41  C   UNL     1      -9.631   7.606 129.803  0.00  0.00    +0.000 C 
BRANCH  41  42
ATOM     42  C   UNL     1     -10.577   7.040 128.765  0.00  0.00    +0.000 C 
BRANCH  42  43
ATOM     43  C   UNL     1     -10.920   8.118 127.749  0.00  0.00    +0.000 C 
BRANCH  43  44
ATOM     44  C   UNL     1     -11.201   7.611 126.359  0.00  0.00    +0.000 C 
ATOM     45  O   UNL     1     -10.683   8.118 125.374  0.00  0.00    +0.000 OA
BRANCH  44  46
ATOM     46  O   UNL     1     -12.053   6.574 126.244  0.00  0.00    +0.000 OA
ATOM     47  H   UNL     1     -12.440   6.393 125.368  0.00  0.00    +0.000 HD
ENDBRANCH  44  46
ENDBRANCH  43  44
ENDBRANCH  42  43
ENDBRANCH  41  42
ENDBRANCH  39  41
ENDBRANCH  32  39
ENDBRANCH  31  32
ENDBRANCH   7  31
TORSDOF 14
ENDMDL
MODEL 5
REMARK VINA RESULT:      -9.0      3.798      6.324
REMARK  Name = Elagolix
REMARK  16 active torsions:
REMARK  status: ('A' for Active; 'I' for Inactive)
REMARK    1  A    between atoms: C_1  and  O_2
REMARK    2  A    between atoms: O_2  and  C_3
REMARK    3  A    between atoms: C_7  and  C_10
REMARK    4  A    between atoms: C_11  and  C_12
REMARK    5  A    between atoms: N_13  and  C_14
REMARK    6  A    between atoms: C_14  and  C_15
REMARK    7  A    between atoms: C_16  and  C_22
REMARK    8  A    between atoms: N_28  and  C_29
REMARK    9  A    between atoms: C_29  and  C_30
REMARK   10  A    between atoms: C_30  and  N_31
REMARK   11  A    between atoms: C_30  and  C_38
REMARK   12  A    between atoms: N_31  and  C_32
REMARK   13  A    between atoms: C_32  and  C_33
REMARK   14  A    between atoms: C_33  and  C_34
REMARK   15  A    between atoms: C_34  and  C_35
REMARK   16  A    between atoms: C_35  and  O_36
REMARK                            x       y       z     vdW  Elec       q    Type
REMARK                         _______ _______ _______ _____ _____    ______ ____
ROOT
ATOM      1  C   UNL     1      -6.417   3.505 126.920  0.00  0.00    +0.000 A 
ATOM      2  C   UNL     1      -5.321   3.222 127.655  0.00  0.00    +0.000 A 
ATOM      3  C   UNL     1      -4.066   2.599 127.080  0.00  0.00    +0.000 C 
ATOM      4  N   UNL     1      -5.276   3.577 129.002  0.00  0.00    +0.000 N 
ATOM      5  C   UNL     1      -6.244   4.402 129.530  0.00  0.00    +0.000 A 
ATOM      6  O   UNL     1      -5.968   5.114 130.500  0.00  0.00    +0.000 OA
ATOM      7  N   UNL     1      -7.459   4.467 128.908  0.00  0.00    +0.000 N 
ATOM      8  C   UNL     1      -7.600   4.149 127.574  0.00  0.00    +0.000 A 
ATOM      9  O   UNL     1      -8.623   4.381 126.933  0.00  0.00    +0.000 OA
ENDROOT
BRANCH   1  14
ATOM     10  C   UNL     1      -6.009   3.841 123.190  0.00  0.00    +0.000 A 
ATOM     11  C   UNL     1      -6.536   2.619 122.760  0.00  0.00    +0.000 A 
ATOM     12  C   UNL     1      -7.003   1.680 123.683  0.00  0.00    +0.000 A 
ATOM     13  C   UNL     1      -6.986   1.979 125.040  0.00  0.00    +0.000 A 
ATOM     14  C   UNL     1      -6.483   3.210 125.482  0.00  0.00    +0.000 A 
ATOM     15  C   UNL     1      -6.007   4.140 124.551  0.00  0.00    +0.000 A 
ATOM     16  F   UNL     1      -5.542   5.321 124.989  0.00  0.00    +0.000 F 
BRANCH  10  18
ATOM     17  C   UNL     1      -5.202   4.032 120.998  0.00  0.00    +0.000 C 
ATOM     18  O   UNL     1      -5.575   4.691 122.208  0.00  0.00    +0.000 OA
ENDBRANCH  10  18
ENDBRANCH   1  14
BRANCH   4  19
ATOM     19  C   UNL     1      -4.070   3.274 129.820  0.00  0.00    +0.000 C 
BRANCH  19  20
ATOM     20  C   UNL     1      -3.280   4.446 130.383  0.00  0.00    +0.000 A 
ATOM     21  C   UNL     1      -2.865   4.492 131.739  0.00  0.00    +0.000 A 
ATOM     22  C   UNL     1      -1.923   5.455 132.151  0.00  0.00    +0.000 A 
ATOM     23  C   UNL     1      -1.395   6.363 131.244  0.00  0.00    +0.000 A 
ATOM     24  C   UNL     1      -1.846   6.346 129.933  0.00  0.00    +0.000 A 
ATOM     25  C   UNL     1      -2.772   5.405 129.502  0.00  0.00    +0.000 A 
ATOM     26  F   UNL     1      -3.054   5.327 128.191  0.00  0.00    +0.000 F 
BRANCH  21  27
ATOM     27  C   UNL     1      -3.380   3.493 132.740  0.00  0.00    +0.000 C 
ATOM     28  F   UNL     1      -2.880   3.741 133.984  0.00  0.00    +0.000 F 
ATOM     29  F   UNL     1      -4.734   3.507 132.873  0.00  0.00    +0.000 F 
ATOM     30  F   UNL     1      -3.043   2.205 132.459  0.00  0.00    +0.000 F 
ENDBRANCH  21  27
ENDBRANCH  19  20
ENDBRANCH   4  19
BRANCH   7  31
ATOM     31  C   UNL     1      -8.572   5.183 129.547  0.00  0.00    +0.000 C 
BRANCH  31  32
ATOM     32  C   UNL     1      -9.590   4.342 130.364  0.00  0.00    +0.000 C 
BRANCH  32  33
ATOM     33  C   UNL     1      -9.281   4.424 131.839  0.00  0.00    +0.000 A 
ATOM     34  C   UNL     1      -9.214   3.263 132.611  0.00  0.00    +0.000 A 
ATOM     35  C   UNL     1      -8.610   3.301 133.851  0.00  0.00    +0.000 A 
ATOM     36  C   UNL     1      -8.202   4.522 134.380  0.00  0.00    +0.000 A 
ATOM     37  C   UNL     1      -8.364   5.707 133.660  0.00  0.00    +0.000 A 
ATOM     38  C   UNL     1      -8.886   5.660 132.377  0.00  0.00    +0.000 A 
ENDBRANCH  32  33
BRANCH  32  39
ATOM     39  N   UNL     1     -10.985   4.709 130.017  0.00  0.00    +0.000 NA
ATOM     40  H   UNL     1     -11.341   4.079 129.306  0.00  0.00    +0.000 HD
BRANCH  39  41
ATOM     41  C   UNL     1     -11.116   6.110 129.633  0.00  0.00    +0.000 C 
BRANCH  41  42
ATOM     42  C   UNL     1     -12.540   6.374 129.192  0.00  0.00    +0.000 C 
BRANCH  42  43
ATOM     43  C   UNL     1     -12.579   7.610 128.309  0.00  0.00    +0.000 C 
BRANCH  43  44
ATOM     44  C   UNL     1     -11.695   7.545 127.091  0.00  0.00    +0.000 C 
ATOM     45  O   UNL     1     -10.789   8.349 126.912  0.00  0.00    +0.000 OA
BRANCH  44  46
ATOM     46  O   UNL     1     -11.944   6.565 126.202  0.00  0.00    +0.000 OA
ATOM     47  H   UNL     1     -12.870   6.294 126.065  0.00  0.00    +0.000 HD
ENDBRANCH  44  46
ENDBRANCH  43  44
ENDBRANCH  42  43
ENDBRANCH  41  42
ENDBRANCH  39  41
ENDBRANCH  32  39
ENDBRANCH  31  32
ENDBRANCH   7  31
TORSDOF 14
ENDMDL
MODEL 6
REMARK VINA RESULT:      -9.0      2.700      7.122
REMARK  Name = Elagolix
REMARK  16 active torsions:
REMARK  status: ('A' for Active; 'I' for Inactive)
REMARK    1  A    between atoms: C_1  and  O_2
REMARK    2  A    between atoms: O_2  and  C_3
REMARK    3  A    between atoms: C_7  and  C_10
REMARK    4  A    between atoms: C_11  and  C_12
REMARK    5  A    between atoms: N_13  and  C_14
REMARK    6  A    between atoms: C_14  and  C_15
REMARK    7  A    between atoms: C_16  and  C_22
REMARK    8  A    between atoms: N_28  and  C_29
REMARK    9  A    between atoms: C_29  and  C_30
REMARK   10  A    between atoms: C_30  and  N_31
REMARK   11  A    between atoms: C_30  and  C_38
REMARK   12  A    between atoms: N_31  and  C_32
REMARK   13  A    between atoms: C_32  and  C_33
REMARK   14  A    between atoms: C_33  and  C_34
REMARK   15  A    between atoms: C_34  and  C_35
REMARK   16  A    between atoms: C_35  and  O_36
REMARK                            x       y       z     vdW  Elec       q    Type
REMARK                         _______ _______ _______ _____ _____    ______ ____
ROOT
ATOM      1  C   UNL     1      -7.795   2.394 128.045  0.00  0.00    +0.000 A 
ATOM      2  C   UNL     1      -7.918   1.052 127.978  0.00  0.00    +0.000 A 
ATOM      3  C   UNL     1      -7.922   0.150 129.195  0.00  0.00    +0.000 C 
ATOM      4  N   UNL     1      -8.132   0.433 126.747  0.00  0.00    +0.000 N 
ATOM      5  C   UNL     1      -8.434   1.192 125.639  0.00  0.00    +0.000 A 
ATOM      6  O   UNL     1      -9.102   0.693 124.728  0.00  0.00    +0.000 OA
ATOM      7  N   UNL     1      -8.053   2.504 125.620  0.00  0.00    +0.000 N 
ATOM      8  C   UNL     1      -7.833   3.204 126.786  0.00  0.00    +0.000 A 
ATOM      9  O   UNL     1      -7.684   4.424 126.820  0.00  0.00    +0.000 OA
ENDROOT
BRANCH   1  14
ATOM     10  C   UNL     1      -8.611   4.017 131.346  0.00  0.00    +0.000 A 
ATOM     11  C   UNL     1      -7.330   4.351 131.794  0.00  0.00    +0.000 A 
ATOM     12  C   UNL     1      -6.202   4.030 131.035  0.00  0.00    +0.000 A 
ATOM     13  C   UNL     1      -6.356   3.412 129.800  0.00  0.00    +0.000 A 
ATOM     14  C   UNL     1      -7.636   3.094 129.327  0.00  0.00    +0.000 A 
ATOM     15  C   UNL     1      -8.759   3.410 130.100  0.00  0.00    +0.000 A 
ATOM     16  F   UNL     1      -9.981   3.112 129.627  0.00  0.00    +0.000 F 
BRANCH  10  18
ATOM     17  C   UNL     1     -10.109   5.708 131.966  0.00  0.00    +0.000 C 
ATOM     18  O   UNL     1      -9.650   4.372 132.164  0.00  0.00    +0.000 OA
ENDBRANCH  10  18
ENDBRANCH   1  14
BRANCH   4  19
ATOM     19  C   UNL     1      -8.275  -1.046 126.663  0.00  0.00    +0.000 C 
BRANCH  19  20
ATOM     20  C   UNL     1      -7.277  -1.809 125.806  0.00  0.00    +0.000 A 
ATOM     21  C   UNL     1      -7.685  -2.601 124.700  0.00  0.00    +0.000 A 
ATOM     22  C   UNL     1      -6.724  -3.072 123.784  0.00  0.00    +0.000 A 
ATOM     23  C   UNL     1      -5.379  -2.772 123.950  0.00  0.00    +0.000 A 
ATOM     24  C   UNL     1      -4.983  -2.043 125.061  0.00  0.00    +0.000 A 
ATOM     25  C   UNL     1      -5.912  -1.565 125.977  0.00  0.00    +0.000 A 
ATOM     26  F   UNL     1      -5.496  -0.731 126.945  0.00  0.00    +0.000 F 
BRANCH  21  27
ATOM     27  C   UNL     1      -9.138  -2.907 124.462  0.00  0.00    +0.000 C 
ATOM     28  F   UNL     1      -9.798  -3.105 125.639  0.00  0.00    +0.000 F 
ATOM     29  F   UNL     1      -9.806  -1.907 123.825  0.00  0.00    +0.000 F 
ATOM     30  F   UNL     1      -9.353  -4.031 123.727  0.00  0.00    +0.000 F 
ENDBRANCH  21  27
ENDBRANCH  19  20
ENDBRANCH   4  19
BRANCH   7  31
ATOM     31  C   UNL     1      -8.187   3.288 124.384  0.00  0.00    +0.000 C 
BRANCH  31  32
ATOM     32  C   UNL     1      -6.907   3.504 123.531  0.00  0.00    +0.000 C 
BRANCH  32  33
ATOM     33  C   UNL     1      -7.253   3.561 122.063  0.00  0.00    +0.000 A 
ATOM     34  C   UNL     1      -8.577   3.423 121.645  0.00  0.00    +0.000 A 
ATOM     35  C   UNL     1      -8.934   3.808 120.369  0.00  0.00    +0.000 A 
ATOM     36  C   UNL     1      -7.948   4.193 119.465  0.00  0.00    +0.000 A 
ATOM     37  C   UNL     1      -6.604   4.230 119.842  0.00  0.00    +0.000 A 
ATOM     38  C   UNL     1      -6.253   3.933 121.149  0.00  0.00    +0.000 A 
ENDBRANCH  32  33
BRANCH  32  39
ATOM     39  N   UNL     1      -6.134   4.674 124.017  0.00  0.00    +0.000 NA
ATOM     40  H   UNL     1      -6.230   5.446 123.364  0.00  0.00    +0.000 HD
BRANCH  39  41
ATOM     41  C   UNL     1      -4.739   4.350 124.293  0.00  0.00    +0.000 C 
BRANCH  41  42
ATOM     42  C   UNL     1      -4.657   3.576 125.591  0.00  0.00    +0.000 C 
BRANCH  42  43
ATOM     43  C   UNL     1      -3.389   3.963 126.334  0.00  0.00    +0.000 C 
BRANCH  43  44
ATOM     44  C   UNL     1      -3.569   5.033 127.379  0.00  0.00    +0.000 C 
ATOM     45  O   UNL     1      -4.639   5.605 127.534  0.00  0.00    +0.000 OA
BRANCH  44  46
ATOM     46  O   UNL     1      -2.498   5.339 128.135  0.00  0.00    +0.000 OA
ATOM     47  H   UNL     1      -1.961   4.607 128.489  0.00  0.00    +0.000 HD
ENDBRANCH  44  46
ENDBRANCH  43  44
ENDBRANCH  42  43
ENDBRANCH  41  42
ENDBRANCH  39  41
ENDBRANCH  32  39
ENDBRANCH  31  32
ENDBRANCH   7  31
TORSDOF 14
ENDMDL
MODEL 7
REMARK VINA RESULT:      -9.0      4.199      8.585
REMARK  Name = Elagolix
REMARK  16 active torsions:
REMARK  status: ('A' for Active; 'I' for Inactive)
REMARK    1  A    between atoms: C_1  and  O_2
REMARK    2  A    between atoms: O_2  and  C_3
REMARK    3  A    between atoms: C_7  and  C_10
REMARK    4  A    between atoms: C_11  and  C_12
REMARK    5  A    between atoms: N_13  and  C_14
REMARK    6  A    between atoms: C_14  and  C_15
REMARK    7  A    between atoms: C_16  and  C_22
REMARK    8  A    between atoms: N_28  and  C_29
REMARK    9  A    between atoms: C_29  and  C_30
REMARK   10  A    between atoms: C_30  and  N_31
REMARK   11  A    between atoms: C_30  and  C_38
REMARK   12  A    between atoms: N_31  and  C_32
REMARK   13  A    between atoms: C_32  and  C_33
REMARK   14  A    between atoms: C_33  and  C_34
REMARK   15  A    between atoms: C_34  and  C_35
REMARK   16  A    between atoms: C_35  and  O_36
REMARK                            x       y       z     vdW  Elec       q    Type
REMARK                         _______ _______ _______ _____ _____    ______ ____
ROOT
ATOM      1  C   UNL     1      -8.910   4.981 130.442  0.00  0.00    +0.000 A 
ATOM      2  C   UNL     1      -7.676   5.403 130.788  0.00  0.00    +0.000 A 
ATOM      3  C   UNL     1      -7.370   6.815 131.243  0.00  0.00    +0.000 C 
ATOM      4  N   UNL     1      -6.613   4.500 130.815  0.00  0.00    +0.000 N 
ATOM      5  C   UNL     1      -6.856   3.149 130.704  0.00  0.00    +0.000 A 
ATOM      6  O   UNL     1      -6.068   2.349 131.218  0.00  0.00    +0.000 OA
ATOM      7  N   UNL     1      -8.009   2.739 130.096  0.00  0.00    +0.000 N 
ATOM      8  C   UNL     1      -9.117   3.556 130.033  0.00  0.00    +0.000 A 
ATOM      9  O   UNL     1     -10.225   3.160 129.677  0.00  0.00    +0.000 OA
ENDROOT
BRANCH   1  14
ATOM     10  C   UNL     1     -11.600   7.356 129.295  0.00  0.00    +0.000 A 
ATOM     11  C   UNL     1     -12.317   7.530 130.483  0.00  0.00    +0.000 A 
ATOM     12  C   UNL     1     -11.939   6.859 131.648  0.00  0.00    +0.000 A 
ATOM     13  C   UNL     1     -10.812   6.045 131.641  0.00  0.00    +0.000 A 
ATOM     14  C   UNL     1     -10.070   5.882 130.464  0.00  0.00    +0.000 A 
ATOM     15  C   UNL     1     -10.464   6.550 129.297  0.00  0.00    +0.000 A 
ATOM     16  F   UNL     1      -9.735   6.395 128.180  0.00  0.00    +0.000 F 
BRANCH  10  18
ATOM     17  C   UNL     1     -13.268   7.544 127.660  0.00  0.00    +0.000 C 
ATOM     18  O   UNL     1     -12.053   8.055 128.208  0.00  0.00    +0.000 OA
ENDBRANCH  10  18
ENDBRANCH   1  14
BRANCH   4  19
ATOM     19  C   UNL     1      -5.250   4.954 131.202  0.00  0.00    +0.000 C 
BRANCH  19  20
ATOM     20  C   UNL     1      -4.357   5.529 130.113  0.00  0.00    +0.000 A 
ATOM     21  C   UNL     1      -3.225   6.332 130.413  0.00  0.00    +0.000 A 
ATOM     22  C   UNL     1      -2.285   6.622 129.405  0.00  0.00    +0.000 A 
ATOM     23  C   UNL     1      -2.453   6.133 128.117  0.00  0.00    +0.000 A 
ATOM     24  C   UNL     1      -3.588   5.394 127.819  0.00  0.00    +0.000 A 
ATOM     25  C   UNL     1      -4.528   5.092 128.797  0.00  0.00    +0.000 A 
ATOM     26  F   UNL     1      -5.524   4.242 128.497  0.00  0.00    +0.000 F 
BRANCH  21  27
ATOM     27  C   UNL     1      -2.986   6.840 131.809  0.00  0.00    +0.000 C 
ATOM     28  F   UNL     1      -2.469   5.862 132.607  0.00  0.00    +0.000 F 
ATOM     29  F   UNL     1      -2.103   7.873 131.867  0.00  0.00    +0.000 F 
ATOM     30  F   UNL     1      -4.111   7.272 132.440  0.00  0.00    +0.000 F 
ENDBRANCH  21  27
ENDBRANCH  19  20
ENDBRANCH   4  19
BRANCH   7  31
ATOM     31  C   UNL     1      -8.209   1.315 129.790  0.00  0.00    +0.000 C 
BRANCH  31  32
ATOM     32  C   UNL     1      -7.817   0.827 128.368  0.00  0.00    +0.000 C 
BRANCH  32  33
ATOM     33  C   UNL     1      -7.807  -0.681 128.311  0.00  0.00    +0.000 A 
ATOM     34  C   UNL     1      -7.744  -1.431 129.486  0.00  0.00    +0.000 A 
ATOM     35  C   UNL     1      -8.074  -2.771 129.460  0.00  0.00    +0.000 A 
ATOM     36  C   UNL     1      -8.326  -3.394 128.241  0.00  0.00    +0.000 A 
ATOM     37  C   UNL     1      -8.284  -2.674 127.046  0.00  0.00    +0.000 A 
ATOM     38  C   UNL     1      -8.044  -1.310 127.078  0.00  0.00    +0.000 A 
ENDBRANCH  32  33
BRANCH  32  39
ATOM     39  N   UNL     1      -8.666   1.467 127.333  0.00  0.00    +0.000 NA
ATOM     40  H   UNL     1      -9.125   0.754 126.774  0.00  0.00    +0.000 HD
BRANCH  39  41
ATOM     41  C   UNL     1      -7.927   2.423 126.515  0.00  0.00    +0.000 C 
BRANCH  41  42
ATOM     42  C   UNL     1      -7.864   1.915 125.091  0.00  0.00    +0.000 C 
BRANCH  42  43
ATOM     43  C   UNL     1      -9.146   2.282 124.362  0.00  0.00    +0.000 C 
BRANCH  43  44
ATOM     44  C   UNL     1     -10.108   1.140 124.158  0.00  0.00    +0.000 C 
ATOM     45  O   UNL     1     -10.532   0.849 123.048  0.00  0.00    +0.000 OA
BRANCH  44  46
ATOM     46  O   UNL     1     -10.486   0.453 125.253  0.00  0.00    +0.000 OA
ATOM     47  H   UNL     1     -10.561  -0.516 125.183  0.00  0.00    +0.000 HD
ENDBRANCH  44  46
ENDBRANCH  43  44
ENDBRANCH  42  43
ENDBRANCH  41  42
ENDBRANCH  39  41
ENDBRANCH  32  39
ENDBRANCH  31  32
ENDBRANCH   7  31
TORSDOF 14
ENDMDL
MODEL 8
REMARK VINA RESULT:      -8.9      1.980      2.645
REMARK  Name = Elagolix
REMARK  16 active torsions:
REMARK  status: ('A' for Active; 'I' for Inactive)
REMARK    1  A    between atoms: C_1  and  O_2
REMARK    2  A    between atoms: O_2  and  C_3
REMARK    3  A    between atoms: C_7  and  C_10
REMARK    4  A    between atoms: C_11  and  C_12
REMARK    5  A    between atoms: N_13  and  C_14
REMARK    6  A    between atoms: C_14  and  C_15
REMARK    7  A    between atoms: C_16  and  C_22
REMARK    8  A    between atoms: N_28  and  C_29
REMARK    9  A    between atoms: C_29  and  C_30
REMARK   10  A    between atoms: C_30  and  N_31
REMARK   11  A    between atoms: C_30  and  C_38
REMARK   12  A    between atoms: N_31  and  C_32
REMARK   13  A    between atoms: C_32  and  C_33
REMARK   14  A    between atoms: C_33  and  C_34
REMARK   15  A    between atoms: C_34  and  C_35
REMARK   16  A    between atoms: C_35  and  O_36
REMARK                            x       y       z     vdW  Elec       q    Type
REMARK                         _______ _______ _______ _____ _____    ______ ____
ROOT
ATOM      1  C   UNL     1      -7.163   2.170 124.410  0.00  0.00    +0.000 A 
ATOM      2  C   UNL     1      -6.862   0.861 124.546  0.00  0.00    +0.000 A 
ATOM      3  C   UNL     1      -6.784  -0.106 123.382  0.00  0.00    +0.000 C 
ATOM      4  N   UNL     1      -6.523   0.351 125.799  0.00  0.00    +0.000 N 
ATOM      5  C   UNL     1      -6.282   1.209 126.849  0.00  0.00    +0.000 A 
ATOM      6  O   UNL     1      -5.522   0.858 127.755  0.00  0.00    +0.000 OA
ATOM      7  N   UNL     1      -6.832   2.460 126.811  0.00  0.00    +0.000 N 
ATOM      8  C   UNL     1      -7.186   3.053 125.619  0.00  0.00    +0.000 A 
ATOM      9  O   UNL     1      -7.495   4.239 125.523  0.00  0.00    +0.000 OA
ENDROOT
BRANCH   1  14
ATOM     10  C   UNL     1      -6.714   3.930 121.110  0.00  0.00    +0.000 A 
ATOM     11  C   UNL     1      -8.004   3.821 120.580  0.00  0.00    +0.000 A 
ATOM     12  C   UNL     1      -9.010   3.158 121.285  0.00  0.00    +0.000 A 
ATOM     13  C   UNL     1      -8.742   2.639 122.546  0.00  0.00    +0.000 A 
ATOM     14  C   UNL     1      -7.461   2.763 123.099  0.00  0.00    +0.000 A 
ATOM     15  C   UNL     1      -6.455   3.420 122.380  0.00  0.00    +0.000 A 
ATOM     16  F   UNL     1      -5.236   3.543 122.929  0.00  0.00    +0.000 F 
BRANCH  10  18
ATOM     17  C   UNL     1      -6.310   5.026 119.079  0.00  0.00    +0.000 C 
ATOM     18  O   UNL     1      -5.799   4.595 120.340  0.00  0.00    +0.000 OA
ENDBRANCH  10  18
ENDBRANCH   1  14
BRANCH   4  19
ATOM     19  C   UNL     1      -6.183  -1.089 125.959  0.00  0.00    +0.000 C 
BRANCH  19  20
ATOM     20  C   UNL     1      -6.814  -1.843 127.119  0.00  0.00    +0.000 A 
ATOM     21  C   UNL     1      -8.109  -2.419 127.027  0.00  0.00    +0.000 A 
ATOM     22  C   UNL     1      -8.544  -3.323 128.016  0.00  0.00    +0.000 A 
ATOM     23  C   UNL     1      -7.722  -3.658 129.082  0.00  0.00    +0.000 A 
ATOM     24  C   UNL     1      -6.480  -3.051 129.192  0.00  0.00    +0.000 A 
ATOM     25  C   UNL     1      -6.026  -2.158 128.229  0.00  0.00    +0.000 A 
ATOM     26  F   UNL     1      -4.758  -1.722 128.296  0.00  0.00    +0.000 F 
BRANCH  21  27
ATOM     27  C   UNL     1      -9.009  -2.116 125.861  0.00  0.00    +0.000 C 
ATOM     28  F   UNL     1     -10.160  -2.845 125.925  0.00  0.00    +0.000 F 
ATOM     29  F   UNL     1      -9.397  -0.813 125.799  0.00  0.00    +0.000 F 
ATOM     30  F   UNL     1      -8.460  -2.402 124.649  0.00  0.00    +0.000 F 
ENDBRANCH  21  27
ENDBRANCH  19  20
ENDBRANCH   4  19
BRANCH   7  31
ATOM     31  C   UNL     1      -6.757   3.329 127.995  0.00  0.00    +0.000 C 
BRANCH  31  32
ATOM     32  C   UNL     1      -7.913   3.233 129.028  0.00  0.00    +0.000 C 
BRANCH  32  33
ATOM     33  C   UNL     1      -7.653   2.117 130.010  0.00  0.00    +0.000 A 
ATOM     34  C   UNL     1      -6.932   2.362 131.180  0.00  0.00    +0.000 A 
ATOM     35  C   UNL     1      -6.985   1.454 132.218  0.00  0.00    +0.000 A 
ATOM     36  C   UNL     1      -7.637   0.238 132.036  0.00  0.00    +0.000 A 
ATOM     37  C   UNL     1      -8.270  -0.062 130.828  0.00  0.00    +0.000 A 
ATOM     38  C   UNL     1      -8.297   0.884 129.817  0.00  0.00    +0.000 A 
ENDBRANCH  32  33
BRANCH  32  39
ATOM     39  N   UNL     1      -8.172   4.550 129.661  0.00  0.00    +0.000 NA
ATOM     40  H   UNL     1      -7.513   4.704 130.417  0.00  0.00    +0.000 HD
BRANCH  39  41
ATOM     41  C   UNL     1      -9.557   4.702 130.092  0.00  0.00    +0.000 C 
BRANCH  41  42
ATOM     42  C   UNL     1     -10.127   5.971 129.496  0.00  0.00    +0.000 C 
BRANCH  42  43
ATOM     43  C   UNL     1     -10.306   7.011 130.589  0.00  0.00    +0.000 C 
BRANCH  43  44
ATOM     44  C   UNL     1     -10.867   6.481 131.882  0.00  0.00    +0.000 C 
ATOM     45  O   UNL     1     -10.188   6.412 132.897  0.00  0.00    +0.000 OA
BRANCH  44  46
ATOM     46  O   UNL     1     -12.153   6.080 131.875  0.00  0.00    +0.000 OA
ATOM     47  H   UNL     1     -12.816   6.672 131.475  0.00  0.00    +0.000 HD
ENDBRANCH  44  46
ENDBRANCH  43  44
ENDBRANCH  42  43
ENDBRANCH  41  42
ENDBRANCH  39  41
ENDBRANCH  32  39
ENDBRANCH  31  32
ENDBRANCH   7  31
TORSDOF 14
ENDMDL
MODEL 9
REMARK VINA RESULT:      -8.8      4.442      7.692
REMARK  Name = Elagolix
REMARK  16 active torsions:
REMARK  status: ('A' for Active; 'I' for Inactive)
REMARK    1  A    between atoms: C_1  and  O_2
REMARK    2  A    between atoms: O_2  and  C_3
REMARK    3  A    between atoms: C_7  and  C_10
REMARK    4  A    between atoms: C_11  and  C_12
REMARK    5  A    between atoms: N_13  and  C_14
REMARK    6  A    between atoms: C_14  and  C_15
REMARK    7  A    between atoms: C_16  and  C_22
REMARK    8  A    between atoms: N_28  and  C_29
REMARK    9  A    between atoms: C_29  and  C_30
REMARK   10  A    between atoms: C_30  and  N_31
REMARK   11  A    between atoms: C_30  and  C_38
REMARK   12  A    between atoms: N_31  and  C_32
REMARK   13  A    between atoms: C_32  and  C_33
REMARK   14  A    between atoms: C_33  and  C_34
REMARK   15  A    between atoms: C_34  and  C_35
REMARK   16  A    between atoms: C_35  and  O_36
REMARK                            x       y       z     vdW  Elec       q    Type
REMARK                         _______ _______ _______ _____ _____    ______ ____
ROOT
ATOM      1  C   UNL     1      -7.401   0.798 130.013  0.00  0.00    +0.000 A 
ATOM      2  C   UNL     1      -6.552   1.413 129.163  0.00  0.00    +0.000 A 
ATOM      3  C   UNL     1      -5.305   0.758 128.604  0.00  0.00    +0.000 C 
ATOM      4  N   UNL     1      -6.845   2.692 128.691  0.00  0.00    +0.000 N 
ATOM      5  C   UNL     1      -8.089   3.238 128.912  0.00  0.00    +0.000 A 
ATOM      6  O   UNL     1      -8.532   4.073 128.118  0.00  0.00    +0.000 OA
ATOM      7  N   UNL     1      -8.831   2.775 129.963  0.00  0.00    +0.000 N 
ATOM      8  C   UNL     1      -8.624   1.519 130.488  0.00  0.00    +0.000 A 
ATOM      9  O   UNL     1      -9.390   0.992 131.292  0.00  0.00    +0.000 OA
ENDROOT
BRANCH   1  14
ATOM     10  C   UNL     1      -6.202  -2.096 132.106  0.00  0.00    +0.000 A 
ATOM     11  C   UNL     1      -6.784  -3.169 131.424  0.00  0.00    +0.000 A 
ATOM     12  C   UNL     1      -7.581  -2.950 130.298  0.00  0.00    +0.000 A 
ATOM     13  C   UNL     1      -7.763  -1.656 129.824  0.00  0.00    +0.000 A 
ATOM     14  C   UNL     1      -7.166  -0.575 130.484  0.00  0.00    +0.000 A 
ATOM     15  C   UNL     1      -6.377  -0.803 131.618  0.00  0.00    +0.000 A 
ATOM     16  F   UNL     1      -5.800   0.242 132.232  0.00  0.00    +0.000 F 
BRANCH  10  18
ATOM     17  C   UNL     1      -4.078  -2.700 132.889  0.00  0.00    +0.000 C 
ATOM     18  O   UNL     1      -5.441  -2.416 133.199  0.00  0.00    +0.000 OA
ENDBRANCH  10  18
ENDBRANCH   1  14
BRANCH   4  19
ATOM     19  C   UNL     1      -5.918   3.376 127.749  0.00  0.00    +0.000 C 
BRANCH  19  20
ATOM     20  C   UNL     1      -4.686   4.052 128.329  0.00  0.00    +0.000 A 
ATOM     21  C   UNL     1      -3.489   4.205 127.581  0.00  0.00    +0.000 A 
ATOM     22  C   UNL     1      -2.472   5.058 128.054  0.00  0.00    +0.000 A 
ATOM     23  C   UNL     1      -2.626   5.752 129.246  0.00  0.00    +0.000 A 
ATOM     24  C   UNL     1      -3.775   5.556 129.997  0.00  0.00    +0.000 A 
ATOM     25  C   UNL     1      -4.793   4.722 129.551  0.00  0.00    +0.000 A 
ATOM     26  F   UNL     1      -5.950   4.690 130.233  0.00  0.00    +0.000 F 
BRANCH  21  27
ATOM     27  C   UNL     1      -3.306   3.506 126.262  0.00  0.00    +0.000 C 
ATOM     28  F   UNL     1      -2.029   3.644 125.805  0.00  0.00    +0.000 F 
ATOM     29  F   UNL     1      -3.539   2.167 126.320  0.00  0.00    +0.000 F 
ATOM     30  F   UNL     1      -4.105   3.983 125.269  0.00  0.00    +0.000 F 
ENDBRANCH  21  27
ENDBRANCH  19  20
ENDBRANCH   4  19
BRANCH   7  31
ATOM     31  C   UNL     1     -10.073   3.464 130.342  0.00  0.00    +0.000 C 
BRANCH  31  32
ATOM     32  C   UNL     1      -9.942   4.853 131.025  0.00  0.00    +0.000 C 
BRANCH  32  33
ATOM     33  C   UNL     1      -8.996   4.778 132.198  0.00  0.00    +0.000 A 
ATOM     34  C   UNL     1      -7.925   5.668 132.298  0.00  0.00    +0.000 A 
ATOM     35  C   UNL     1      -7.279   5.825 133.508  0.00  0.00    +0.000 A 
ATOM     36  C   UNL     1      -7.604   4.993 134.575  0.00  0.00    +0.000 A 
ATOM     37  C   UNL     1      -8.601   4.023 134.451  0.00  0.00    +0.000 A 
ATOM     38  C   UNL     1      -9.315   3.926 133.268  0.00  0.00    +0.000 A 
ENDBRANCH  32  33
BRANCH  32  39
ATOM     39  N   UNL     1      -9.596   5.902 130.034  0.00  0.00    +0.000 NA
ATOM     40  H   UNL     1      -8.623   6.170 130.141  0.00  0.00    +0.000 HD
BRANCH  39  41
ATOM     41  C   UNL     1     -10.497   7.048 130.093  0.00  0.00    +0.000 C 
BRANCH  41  42
ATOM     42  C   UNL     1     -10.024   8.103 129.117  0.00  0.00    +0.000 C 
BRANCH  42  43
ATOM     43  C   UNL     1     -11.012   8.215 127.968  0.00  0.00    +0.000 C 
BRANCH  43  44
ATOM     44  C   UNL     1     -10.875   7.152 126.910  0.00  0.00    +0.000 C 
ATOM     45  O   UNL     1     -11.769   6.927 126.106  0.00  0.00    +0.000 OA
BRANCH  44  46
ATOM     46  O   UNL     1      -9.723   6.454 126.886  0.00  0.00    +0.000 OA
ATOM     47  H   UNL     1      -9.155   6.532 126.098  0.00  0.00    +0.000 HD
ENDBRANCH  44  46
ENDBRANCH  43  44
ENDBRANCH  42  43
ENDBRANCH  41  42
ENDBRANCH  39  41
ENDBRANCH  32  39
ENDBRANCH  31  32
ENDBRANCH   7  31
TORSDOF 14
ENDMDL
