MODEL 1
REMARK VINA RESULT:      -7.3      0.000      0.000
REMARK  Name = Eletriptan
REMARK  7 active torsions:
REMARK  status: ('A' for Active; 'I' for Inactive)
REMARK    1  A    between atoms: C_1  and  N_2
REMARK    2  A    between atoms: C_6  and  C_7
REMARK    3  A    between atoms: C_7  and  C_8
REMARK    4  A    between atoms: C_14  and  C_15
REMARK    5  A    between atoms: C_15  and  C_16
REMARK    6  A    between atoms: C_16  and  S_17
REMARK    7  A    between atoms: S_17  and  C_20
REMARK                            x       y       z     vdW  Elec       q    Type
REMARK                         _______ _______ _______ _____ _____    ______ ____
ROOT
ATOM      1  C   UNL     1      -9.181   5.866 131.458  0.00  0.00    +0.000 A 
ATOM      2  C   UNL     1      -9.577   5.165 132.583  0.00  0.00    +0.000 A 
ATOM      3  N   UNL     1      -8.499   5.059 133.426  0.00  0.00    +0.000 N 
ATOM      4  C   UNL     1      -7.406   5.695 132.884  0.00  0.00    +0.000 A 
ATOM      5  C   UNL     1      -7.843   6.339 131.728  0.00  0.00    +0.000 A 
ATOM      6  C   UNL     1      -6.890   7.052 130.953  0.00  0.00    +0.000 A 
ATOM      7  C   UNL     1      -5.519   6.972 131.257  0.00  0.00    +0.000 A 
ATOM      8  C   UNL     1      -5.139   6.341 132.448  0.00  0.00    +0.000 A 
ATOM      9  C   UNL     1      -6.069   5.721 133.293  0.00  0.00    +0.000 A 
ATOM     10  H   UNL     1      -8.483   4.521 134.281  0.00  0.00    +0.000 HD
ENDROOT
BRANCH   1  11
ATOM     11  C   UNL     1      -9.958   6.026 130.170  0.00  0.00    +0.000 C 
BRANCH  11  17
ATOM     12  C   UNL     1     -12.754   7.330 131.387  0.00  0.00    +0.000 C 
ATOM     13  N   UNL     1     -12.210   7.283 130.034  0.00  0.00    +0.000 NA
ATOM     14  C   UNL     1     -12.742   8.442 129.328  0.00  0.00    +0.000 C 
ATOM     15  C   UNL     1     -11.772   8.688 128.201  0.00  0.00    +0.000 C 
ATOM     16  C   UNL     1     -10.480   7.985 128.610  0.00  0.00    +0.000 C 
ATOM     17  C   UNL     1     -10.738   7.372 130.000  0.00  0.00    +0.000 C 
ENDBRANCH  11  17
ENDBRANCH   1  11
BRANCH   7  18
ATOM     18  C   UNL     1      -4.519   7.476 130.223  0.00  0.00    +0.000 C 
BRANCH  18  19
ATOM     19  C   UNL     1      -3.404   6.483 129.960  0.00  0.00    +0.000 C 
BRANCH  19  20
ATOM     20  S   UNL     1      -3.768   5.376 128.628  0.00  0.00    +0.000 S 
ATOM     21  O   UNL     1      -4.406   6.164 127.580  0.00  0.00    +0.000 OA
ATOM     22  O   UNL     1      -2.601   4.571 128.363  0.00  0.00    +0.000 OA
BRANCH  20  23
ATOM     23  C   UNL     1      -5.019   4.276 129.272  0.00  0.00    +0.000 A 
ATOM     24  C   UNL     1      -6.290   4.295 128.693  0.00  0.00    +0.000 A 
ATOM     25  C   UNL     1      -7.319   3.547 129.270  0.00  0.00    +0.000 A 
ATOM     26  C   UNL     1      -7.062   2.731 130.372  0.00  0.00    +0.000 A 
ATOM     27  C   UNL     1      -5.785   2.693 130.930  0.00  0.00    +0.000 A 
ATOM     28  C   UNL     1      -4.762   3.470 130.386  0.00  0.00    +0.000 A 
ENDBRANCH  20  23
ENDBRANCH  19  20
ENDBRANCH  18  19
ENDBRANCH   7  18
TORSDOF 6
ENDMDL
MODEL 2
REMARK VINA RESULT:      -7.1      1.647      2.087
REMARK  Name = Eletriptan
REMARK  7 active torsions:
REMARK  status: ('A' for Active; 'I' for Inactive)
REMARK    1  A    between atoms: C_1  and  N_2
REMARK    2  A    between atoms: C_6  and  C_7
REMARK    3  A    between atoms: C_7  and  C_8
REMARK    4  A    between atoms: C_14  and  C_15
REMARK    5  A    between atoms: C_15  and  C_16
REMARK    6  A    between atoms: C_16  and  S_17
REMARK    7  A    between atoms: S_17  and  C_20
REMARK                            x       y       z     vdW  Elec       q    Type
REMARK                         _______ _______ _______ _____ _____    ______ ____
ROOT
ATOM      1  C   UNL     1      -9.429   5.937 131.488  0.00  0.00    +0.000 A 
ATOM      2  C   UNL     1      -9.948   5.304 132.604  0.00  0.00    +0.000 A 
ATOM      3  N   UNL     1      -8.941   5.167 133.527  0.00  0.00    +0.000 N 
ATOM      4  C   UNL     1      -7.775   5.716 133.046  0.00  0.00    +0.000 A 
ATOM      5  C   UNL     1      -8.088   6.339 131.840  0.00  0.00    +0.000 A 
ATOM      6  C   UNL     1      -7.039   6.965 131.113  0.00  0.00    +0.000 A 
ATOM      7  C   UNL     1      -5.701   6.815 131.520  0.00  0.00    +0.000 A 
ATOM      8  C   UNL     1      -5.447   6.209 132.756  0.00  0.00    +0.000 A 
ATOM      9  C   UNL     1      -6.472   5.678 133.552  0.00  0.00    +0.000 A 
ATOM     10  H   UNL     1      -9.020   4.662 134.399  0.00  0.00    +0.000 HD
ENDROOT
BRANCH   1  11
ATOM     11  C   UNL     1     -10.101   6.092 130.142  0.00  0.00    +0.000 C 
BRANCH  11  17
ATOM     12  C   UNL     1     -12.875   7.469 131.328  0.00  0.00    +0.000 C 
ATOM     13  N   UNL     1     -12.351   7.350 129.971  0.00  0.00    +0.000 NA
ATOM     14  C   UNL     1     -12.890   8.472 129.213  0.00  0.00    +0.000 C 
ATOM     15  C   UNL     1     -11.935   8.655 128.061  0.00  0.00    +0.000 C 
ATOM     16  C   UNL     1     -10.639   7.969 128.488  0.00  0.00    +0.000 C 
ATOM     17  C   UNL     1     -10.879   7.431 129.912  0.00  0.00    +0.000 C 
ENDBRANCH  11  17
ENDBRANCH   1  11
BRANCH   7  18
ATOM     18  C   UNL     1      -4.601   7.219 130.546  0.00  0.00    +0.000 C 
BRANCH  18  19
ATOM     19  C   UNL     1      -3.276   7.476 131.238  0.00  0.00    +0.000 C 
BRANCH  19  20
ATOM     20  S   UNL     1      -2.013   6.337 130.751  0.00  0.00    +0.000 S 
ATOM     21  O   UNL     1      -2.038   6.269 129.295  0.00  0.00    +0.000 OA
ATOM     22  O   UNL     1      -0.803   6.651 131.472  0.00  0.00    +0.000 OA
BRANCH  20  23
ATOM     23  C   UNL     1      -2.569   4.748 131.345  0.00  0.00    +0.000 A 
ATOM     24  C   UNL     1      -3.435   3.999 130.544  0.00  0.00    +0.000 A 
ATOM     25  C   UNL     1      -3.992   2.821 131.049  0.00  0.00    +0.000 A 
ATOM     26  C   UNL     1      -3.631   2.360 132.315  0.00  0.00    +0.000 A 
ATOM     27  C   UNL     1      -2.745   3.096 133.100  0.00  0.00    +0.000 A 
ATOM     28  C   UNL     1      -2.218   4.295 132.620  0.00  0.00    +0.000 A 
ENDBRANCH  20  23
ENDBRANCH  19  20
ENDBRANCH  18  19
ENDBRANCH   7  18
TORSDOF 6
ENDMDL
MODEL 3
REMARK VINA RESULT:      -7.0      6.708      9.464
REMARK  Name = Eletriptan
REMARK  7 active torsions:
REMARK  status: ('A' for Active; 'I' for Inactive)
REMARK    1  A    between atoms: C_1  and  N_2
REMARK    2  A    between atoms: C_6  and  C_7
REMARK    3  A    between atoms: C_7  and  C_8
REMARK    4  A    between atoms: C_14  and  C_15
REMARK    5  A    between atoms: C_15  and  C_16
REMARK    6  A    between atoms: C_16  and  S_17
REMARK    7  A    between atoms: S_17  and  C_20
REMARK                            x       y       z     vdW  Elec       q    Type
REMARK                         _______ _______ _______ _____ _____    ______ ____
ROOT
ATOM      1  C   UNL     1      -5.889   3.254 124.679  0.00  0.00    +0.000 A 
ATOM      2  C   UNL     1      -5.637   4.007 123.547  0.00  0.00    +0.000 A 
ATOM      3  N   UNL     1      -6.722   3.906 122.713  0.00  0.00    +0.000 N 
ATOM      4  C   UNL     1      -7.692   3.115 123.285  0.00  0.00    +0.000 A 
ATOM      5  C   UNL     1      -7.262   2.820 124.577  0.00  0.00    +0.000 A 
ATOM      6  C   UNL     1      -8.078   1.979 125.382  0.00  0.00    +0.000 A 
ATOM      7  C   UNL     1      -9.201   1.335 124.832  0.00  0.00    +0.000 A 
ATOM      8  C   UNL     1      -9.605   1.694 123.541  0.00  0.00    +0.000 A 
ATOM      9  C   UNL     1      -8.882   2.605 122.759  0.00  0.00    +0.000 A 
ATOM     10  H   UNL     1      -6.772   4.286 121.777  0.00  0.00    +0.000 HD
ENDROOT
BRANCH   1  11
ATOM     11  C   UNL     1      -4.897   2.885 125.760  0.00  0.00    +0.000 C 
BRANCH  11  17
ATOM     12  C   UNL     1      -1.687   3.087 126.568  0.00  0.00    +0.000 C 
ATOM     13  N   UNL     1      -2.885   3.638 127.194  0.00  0.00    +0.000 NA
ATOM     14  C   UNL     1      -2.471   4.844 127.900  0.00  0.00    +0.000 C 
ATOM     15  C   UNL     1      -3.729   5.665 128.033  0.00  0.00    +0.000 C 
ATOM     16  C   UNL     1      -4.682   5.130 126.967  0.00  0.00    +0.000 C 
ATOM     17  C   UNL     1      -3.922   4.021 126.216  0.00  0.00    +0.000 C 
ENDBRANCH  11  17
ENDBRANCH   1  11
BRANCH   7  18
ATOM     18  C   UNL     1      -9.846   0.205 125.626  0.00  0.00    +0.000 C 
BRANCH  18  19
ATOM     19  C   UNL     1      -8.843  -0.563 126.464  0.00  0.00    +0.000 C 
BRANCH  19  20
ATOM     20  S   UNL     1      -8.686  -2.255 125.971  0.00  0.00    +0.000 S 
ATOM     21  O   UNL     1      -8.198  -2.994 127.130  0.00  0.00    +0.000 OA
ATOM     22  O   UNL     1      -9.887  -2.647 125.275  0.00  0.00    +0.000 OA
BRANCH  20  23
ATOM     23  C   UNL     1      -7.367  -2.265 124.768  0.00  0.00    +0.000 A 
ATOM     24  C   UNL     1      -7.605  -1.709 123.508  0.00  0.00    +0.000 A 
ATOM     25  C   UNL     1      -6.637  -1.833 122.509  0.00  0.00    +0.000 A 
ATOM     26  C   UNL     1      -5.413  -2.442 122.788  0.00  0.00    +0.000 A 
ATOM     27  C   UNL     1      -5.168  -2.969 124.054  0.00  0.00    +0.000 A 
ATOM     28  C   UNL     1      -6.146  -2.889 125.045  0.00  0.00    +0.000 A 
ENDBRANCH  20  23
ENDBRANCH  19  20
ENDBRANCH  18  19
ENDBRANCH   7  18
TORSDOF 6
ENDMDL
MODEL 4
REMARK VINA RESULT:      -7.0      8.074     10.465
REMARK  Name = Eletriptan
REMARK  7 active torsions:
REMARK  status: ('A' for Active; 'I' for Inactive)
REMARK    1  A    between atoms: C_1  and  N_2
REMARK    2  A    between atoms: C_6  and  C_7
REMARK    3  A    between atoms: C_7  and  C_8
REMARK    4  A    between atoms: C_14  and  C_15
REMARK    5  A    between atoms: C_15  and  C_16
REMARK    6  A    between atoms: C_16  and  S_17
REMARK    7  A    between atoms: S_17  and  C_20
REMARK                            x       y       z     vdW  Elec       q    Type
REMARK                         _______ _______ _______ _____ _____    ______ ____
ROOT
ATOM      1  C   UNL     1      -8.140  -2.575 128.427  0.00  0.00    +0.000 A 
ATOM      2  C   UNL     1      -8.896  -3.720 128.252  0.00  0.00    +0.000 A 
ATOM      3  N   UNL     1      -9.269  -3.792 126.933  0.00  0.00    +0.000 N 
ATOM      4  C   UNL     1      -8.754  -2.725 126.233  0.00  0.00    +0.000 A 
ATOM      5  C   UNL     1      -7.919  -2.032 127.107  0.00  0.00    +0.000 A 
ATOM      6  C   UNL     1      -7.279  -0.854 126.636  0.00  0.00    +0.000 A 
ATOM      7  C   UNL     1      -7.609  -0.317 125.378  0.00  0.00    +0.000 A 
ATOM      8  C   UNL     1      -8.427  -1.072 124.529  0.00  0.00    +0.000 A 
ATOM      9  C   UNL     1      -8.987  -2.294 124.924  0.00  0.00    +0.000 A 
ATOM     10  H   UNL     1      -9.899  -4.481 126.546  0.00  0.00    +0.000 HD
ENDROOT
BRANCH   1  11
ATOM     11  C   UNL     1      -7.710  -1.966 129.744  0.00  0.00    +0.000 C 
BRANCH  11  17
ATOM     12  C   UNL     1      -4.501  -2.029 128.911  0.00  0.00    +0.000 C 
ATOM     13  N   UNL     1      -5.394  -3.063 129.424  0.00  0.00    +0.000 NA
ATOM     14  C   UNL     1      -4.560  -4.020 130.140  0.00  0.00    +0.000 C 
ATOM     15  C   UNL     1      -5.497  -4.709 131.098  0.00  0.00    +0.000 C 
ATOM     16  C   UNL     1      -6.698  -3.777 131.240  0.00  0.00    +0.000 C 
ATOM     17  C   UNL     1      -6.397  -2.541 130.372  0.00  0.00    +0.000 C 
ENDBRANCH  11  17
ENDBRANCH   1  11
BRANCH   7  18
ATOM     18  C   UNL     1      -7.152   1.100 125.056  0.00  0.00    +0.000 C 
BRANCH  18  19
ATOM     19  C   UNL     1      -7.218   1.410 123.573  0.00  0.00    +0.000 C 
BRANCH  19  20
ATOM     20  S   UNL     1      -8.437   2.629 123.178  0.00  0.00    +0.000 S 
ATOM     21  O   UNL     1      -9.649   1.913 122.797  0.00  0.00    +0.000 OA
ATOM     22  O   UNL     1      -8.445   3.630 124.217  0.00  0.00    +0.000 OA
BRANCH  20  23
ATOM     23  C   UNL     1      -7.830   3.425 121.699  0.00  0.00    +0.000 A 
ATOM     24  C   UNL     1      -8.736   3.722 120.678  0.00  0.00    +0.000 A 
ATOM     25  C   UNL     1      -8.262   4.214 119.459  0.00  0.00    +0.000 A 
ATOM     26  C   UNL     1      -6.902   4.476 119.290  0.00  0.00    +0.000 A 
ATOM     27  C   UNL     1      -6.005   4.206 120.321  0.00  0.00    +0.000 A 
ATOM     28  C   UNL     1      -6.465   3.673 121.526  0.00  0.00    +0.000 A 
ENDBRANCH  20  23
ENDBRANCH  19  20
ENDBRANCH  18  19
ENDBRANCH   7  18
TORSDOF 6
ENDMDL
MODEL 5
REMARK VINA RESULT:      -6.9      2.198      2.764
REMARK  Name = Eletriptan
REMARK  7 active torsions:
REMARK  status: ('A' for Active; 'I' for Inactive)
REMARK    1  A    between atoms: C_1  and  N_2
REMARK    2  A    between atoms: C_6  and  C_7
REMARK    3  A    between atoms: C_7  and  C_8
REMARK    4  A    between atoms: C_14  and  C_15
REMARK    5  A    between atoms: C_15  and  C_16
REMARK    6  A    between atoms: C_16  and  S_17
REMARK    7  A    between atoms: S_17  and  C_20
REMARK                            x       y       z     vdW  Elec       q    Type
REMARK                         _______ _______ _______ _____ _____    ______ ____
ROOT
ATOM      1  C   UNL     1      -9.941   6.178 130.798  0.00  0.00    +0.000 A 
ATOM      2  C   UNL     1     -11.026   6.158 131.657  0.00  0.00    +0.000 A 
ATOM      3  N   UNL     1     -10.555   6.052 132.941  0.00  0.00    +0.000 N 
ATOM      4  C   UNL     1      -9.180   6.021 132.945  0.00  0.00    +0.000 A 
ATOM      5  C   UNL     1      -8.766   6.252 131.634  0.00  0.00    +0.000 A 
ATOM      6  C   UNL     1      -7.373   6.239 131.356  0.00  0.00    +0.000 A 
ATOM      7  C   UNL     1      -6.451   5.843 132.342  0.00  0.00    +0.000 A 
ATOM      8  C   UNL     1      -6.918   5.656 133.649  0.00  0.00    +0.000 A 
ATOM      9  C   UNL     1      -8.275   5.769 133.980  0.00  0.00    +0.000 A 
ATOM     10  H   UNL     1     -11.133   5.929 133.762  0.00  0.00    +0.000 HD
ENDROOT
BRANCH   1  11
ATOM     11  C   UNL     1      -9.977   6.053 129.291  0.00  0.00    +0.000 C 
BRANCH  11  17
ATOM     12  C   UNL     1     -13.213   6.771 129.387  0.00  0.00    +0.000 C 
ATOM     13  N   UNL     1     -12.298   6.552 128.272  0.00  0.00    +0.000 NA
ATOM     14  C   UNL     1     -12.826   7.305 127.142  0.00  0.00    +0.000 C 
ATOM     15  C   UNL     1     -11.639   7.533 126.240  0.00  0.00    +0.000 C 
ATOM     16  C   UNL     1     -10.409   7.345 127.125  0.00  0.00    +0.000 C 
ATOM     17  C   UNL     1     -10.932   7.042 128.542  0.00  0.00    +0.000 C 
ENDBRANCH  11  17
ENDBRANCH   1  11
BRANCH   7  18
ATOM     18  C   UNL     1      -5.023   5.532 131.912  0.00  0.00    +0.000 C 
BRANCH  18  19
ATOM     19  C   UNL     1      -4.954   4.416 130.888  0.00  0.00    +0.000 C 
BRANCH  19  20
ATOM     20  S   UNL     1      -5.202   2.815 131.597  0.00  0.00    +0.000 S 
ATOM     21  O   UNL     1      -4.638   1.844 130.667  0.00  0.00    +0.000 OA
ATOM     22  O   UNL     1      -4.801   2.855 132.982  0.00  0.00    +0.000 OA
BRANCH  20  23
ATOM     23  C   UNL     1      -6.970   2.571 131.578  0.00  0.00    +0.000 A 
ATOM     24  C   UNL     1      -7.653   2.702 130.366  0.00  0.00    +0.000 A 
ATOM     25  C   UNL     1      -9.049   2.655 130.353  0.00  0.00    +0.000 A 
ATOM     26  C   UNL     1      -9.753   2.407 131.532  0.00  0.00    +0.000 A 
ATOM     27  C   UNL     1      -9.068   2.248 132.735  0.00  0.00    +0.000 A 
ATOM     28  C   UNL     1      -7.676   2.337 132.763  0.00  0.00    +0.000 A 
ENDBRANCH  20  23
ENDBRANCH  19  20
ENDBRANCH  18  19
ENDBRANCH   7  18
TORSDOF 6
ENDMDL
MODEL 6
REMARK VINA RESULT:      -6.8      6.456      9.000
REMARK  Name = Eletriptan
REMARK  7 active torsions:
REMARK  status: ('A' for Active; 'I' for Inactive)
REMARK    1  A    between atoms: C_1  and  N_2
REMARK    2  A    between atoms: C_6  and  C_7
REMARK    3  A    between atoms: C_7  and  C_8
REMARK    4  A    between atoms: C_14  and  C_15
REMARK    5  A    between atoms: C_15  and  C_16
REMARK    6  A    between atoms: C_16  and  S_17
REMARK    7  A    between atoms: S_17  and  C_20
REMARK                            x       y       z     vdW  Elec       q    Type
REMARK                         _______ _______ _______ _____ _____    ______ ____
ROOT
ATOM      1  C   UNL     1      -5.212   1.729 126.963  0.00  0.00    +0.000 A 
ATOM      2  C   UNL     1      -5.451   2.003 128.297  0.00  0.00    +0.000 A 
ATOM      3  N   UNL     1      -5.848   0.842 128.910  0.00  0.00    +0.000 N 
ATOM      4  C   UNL     1      -5.857  -0.196 128.007  0.00  0.00    +0.000 A 
ATOM      5  C   UNL     1      -5.318   0.296 126.820  0.00  0.00    +0.000 A 
ATOM      6  C   UNL     1      -5.242  -0.578 125.702  0.00  0.00    +0.000 A 
ATOM      7  C   UNL     1      -5.844  -1.848 125.746  0.00  0.00    +0.000 A 
ATOM      8  C   UNL     1      -6.340  -2.304 126.973  0.00  0.00    +0.000 A 
ATOM      9  C   UNL     1      -6.330  -1.506 128.126  0.00  0.00    +0.000 A 
ATOM     10  H   UNL     1      -6.170   0.771 129.866  0.00  0.00    +0.000 HD
ENDROOT
BRANCH   1  11
ATOM     11  C   UNL     1      -4.980   2.738 125.859  0.00  0.00    +0.000 C 
BRANCH  11  17
ATOM     12  C   UNL     1      -1.750   3.015 126.555  0.00  0.00    +0.000 C 
ATOM     13  N   UNL     1      -2.932   3.611 127.168  0.00  0.00    +0.000 NA
ATOM     14  C   UNL     1      -2.506   4.872 127.762  0.00  0.00    +0.000 C 
ATOM     15  C   UNL     1      -3.763   5.696 127.864  0.00  0.00    +0.000 C 
ATOM     16  C   UNL     1      -4.744   5.074 126.873  0.00  0.00    +0.000 C 
ATOM     17  C   UNL     1      -3.999   3.910 126.194  0.00  0.00    +0.000 C 
ENDBRANCH  11  17
ENDBRANCH   1  11
BRANCH   7  18
ATOM     18  C   UNL     1      -6.022  -2.609 124.438  0.00  0.00    +0.000 C 
BRANCH  18  19
ATOM     19  C   UNL     1      -7.375  -3.287 124.339  0.00  0.00    +0.000 C 
BRANCH  19  20
ATOM     20  S   UNL     1      -8.543  -2.357 123.390  0.00  0.00    +0.000 S 
ATOM     21  O   UNL     1      -7.931  -2.100 122.092  0.00  0.00    +0.000 OA
ATOM     22  O   UNL     1      -9.837  -2.985 123.504  0.00  0.00    +0.000 OA
BRANCH  20  23
ATOM     23  C   UNL     1      -8.660  -0.780 124.220  0.00  0.00    +0.000 A 
ATOM     24  C   UNL     1      -8.138   0.351 123.587  0.00  0.00    +0.000 A 
ATOM     25  C   UNL     1      -8.093   1.565 124.276  0.00  0.00    +0.000 A 
ATOM     26  C   UNL     1      -8.630   1.664 125.560  0.00  0.00    +0.000 A 
ATOM     27  C   UNL     1      -9.176   0.540 126.177  0.00  0.00    +0.000 A 
ATOM     28  C   UNL     1      -9.186  -0.686 125.512  0.00  0.00    +0.000 A 
ENDBRANCH  20  23
ENDBRANCH  19  20
ENDBRANCH  18  19
ENDBRANCH   7  18
TORSDOF 6
ENDMDL
MODEL 7
REMARK VINA RESULT:      -6.8      1.968      3.767
REMARK  Name = Eletriptan
REMARK  7 active torsions:
REMARK  status: ('A' for Active; 'I' for Inactive)
REMARK    1  A    between atoms: C_1  and  N_2
REMARK    2  A    between atoms: C_6  and  C_7
REMARK    3  A    between atoms: C_7  and  C_8
REMARK    4  A    between atoms: C_14  and  C_15
REMARK    5  A    between atoms: C_15  and  C_16
REMARK    6  A    between atoms: C_16  and  S_17
REMARK    7  A    between atoms: S_17  and  C_20
REMARK                            x       y       z     vdW  Elec       q    Type
REMARK                         _______ _______ _______ _____ _____    ______ ____
ROOT
ATOM      1  C   UNL     1     -10.354   7.077 130.297  0.00  0.00    +0.000 A 
ATOM      2  C   UNL     1     -11.554   6.477 130.635  0.00  0.00    +0.000 A 
ATOM      3  N   UNL     1     -11.311   5.559 131.626  0.00  0.00    +0.000 N 
ATOM      4  C   UNL     1      -9.976   5.558 131.959  0.00  0.00    +0.000 A 
ATOM      5  C   UNL     1      -9.382   6.603 131.253  0.00  0.00    +0.000 A 
ATOM      6  C   UNL     1      -7.982   6.802 131.397  0.00  0.00    +0.000 A 
ATOM      7  C   UNL     1      -7.197   5.871 132.101  0.00  0.00    +0.000 A 
ATOM      8  C   UNL     1      -7.850   4.861 132.818  0.00  0.00    +0.000 A 
ATOM      9  C   UNL     1      -9.242   4.703 132.786  0.00  0.00    +0.000 A 
ATOM     10  H   UNL     1     -11.995   4.916 132.000  0.00  0.00    +0.000 HD
ENDROOT
BRANCH   1  11
ATOM     11  C   UNL     1     -10.095   7.975 129.107  0.00  0.00    +0.000 C 
BRANCH  11  17
ATOM     12  C   UNL     1     -12.915   9.684 129.455  0.00  0.00    +0.000 C 
ATOM     13  N   UNL     1     -12.638   8.368 128.890  0.00  0.00    +0.000 NA
ATOM     14  C   UNL     1     -13.675   8.111 127.898  0.00  0.00    +0.000 C 
ATOM     15  C   UNL     1     -13.077   7.085 126.970  0.00  0.00    +0.000 C 
ATOM     16  C   UNL     1     -11.567   7.178 127.173  0.00  0.00    +0.000 C 
ATOM     17  C   UNL     1     -11.333   8.297 128.205  0.00  0.00    +0.000 C 
ENDBRANCH  11  17
ENDBRANCH   1  11
BRANCH   7  18
ATOM     18  C   UNL     1      -5.682   5.946 131.953  0.00  0.00    +0.000 C 
BRANCH  18  19
ATOM     19  C   UNL     1      -5.225   5.713 130.526  0.00  0.00    +0.000 C 
BRANCH  19  20
ATOM     20  S   UNL     1      -4.173   7.001 129.922  0.00  0.00    +0.000 S 
ATOM     21  O   UNL     1      -3.558   6.511 128.695  0.00  0.00    +0.000 OA
ATOM     22  O   UNL     1      -4.900   8.247 129.958  0.00  0.00    +0.000 OA
BRANCH  20  23
ATOM     23  C   UNL     1      -2.865   7.134 131.131  0.00  0.00    +0.000 A 
ATOM     24  C   UNL     1      -2.856   8.234 131.991  0.00  0.00    +0.000 A 
ATOM     25  C   UNL     1      -1.769   8.430 132.846  0.00  0.00    +0.000 A 
ATOM     26  C   UNL     1      -0.734   7.496 132.891  0.00  0.00    +0.000 A 
ATOM     27  C   UNL     1      -0.760   6.384 132.051  0.00  0.00    +0.000 A 
ATOM     28  C   UNL     1      -1.821   6.203 131.164  0.00  0.00    +0.000 A 
ENDBRANCH  20  23
ENDBRANCH  19  20
ENDBRANCH  18  19
ENDBRANCH   7  18
TORSDOF 6
ENDMDL
MODEL 8
REMARK VINA RESULT:      -6.7      4.336      5.446
REMARK  Name = Eletriptan
REMARK  7 active torsions:
REMARK  status: ('A' for Active; 'I' for Inactive)
REMARK    1  A    between atoms: C_1  and  N_2
REMARK    2  A    between atoms: C_6  and  C_7
REMARK    3  A    between atoms: C_7  and  C_8
REMARK    4  A    between atoms: C_14  and  C_15
REMARK    5  A    between atoms: C_15  and  C_16
REMARK    6  A    between atoms: C_16  and  S_17
REMARK    7  A    between atoms: S_17  and  C_20
REMARK                            x       y       z     vdW  Elec       q    Type
REMARK                         _______ _______ _______ _____ _____    ______ ____
ROOT
ATOM      1  C   UNL     1      -9.973   6.632 130.189  0.00  0.00    +0.000 A 
ATOM      2  C   UNL     1     -10.824   6.558 131.276  0.00  0.00    +0.000 A 
ATOM      3  N   UNL     1     -10.919   5.244 131.660  0.00  0.00    +0.000 N 
ATOM      4  C   UNL     1     -10.129   4.454 130.856  0.00  0.00    +0.000 A 
ATOM      5  C   UNL     1      -9.410   5.312 130.027  0.00  0.00    +0.000 A 
ATOM      6  C   UNL     1      -8.532   4.741 129.066  0.00  0.00    +0.000 A 
ATOM      7  C   UNL     1      -8.516   3.351 128.851  0.00  0.00    +0.000 A 
ATOM      8  C   UNL     1      -9.232   2.535 129.735  0.00  0.00    +0.000 A 
ATOM      9  C   UNL     1     -10.023   3.063 130.765  0.00  0.00    +0.000 A 
ATOM     10  H   UNL     1     -11.541   4.892 132.375  0.00  0.00    +0.000 HD
ENDROOT
BRANCH   1  11
ATOM     11  C   UNL     1      -9.750   7.831 129.293  0.00  0.00    +0.000 C 
BRANCH  11  17
ATOM     12  C   UNL     1     -12.775   9.171 129.521  0.00  0.00    +0.000 C 
ATOM     13  N   UNL     1     -12.282   7.997 128.808  0.00  0.00    +0.000 NA
ATOM     14  C   UNL     1     -13.162   7.803 127.662  0.00  0.00    +0.000 C 
ATOM     15  C   UNL     1     -12.346   7.005 126.678  0.00  0.00    +0.000 C 
ATOM     16  C   UNL     1     -10.890   7.214 127.087  0.00  0.00    +0.000 C 
ATOM     17  C   UNL     1     -10.908   8.169 128.296  0.00  0.00    +0.000 C 
ENDBRANCH  11  17
ENDBRANCH   1  11
BRANCH   7  18
ATOM     18  C   UNL     1      -7.814   2.821 127.607  0.00  0.00    +0.000 C 
BRANCH  18  19
ATOM     19  C   UNL     1      -8.472   1.572 127.055  0.00  0.00    +0.000 C 
BRANCH  19  20
ATOM     20  S   UNL     1      -8.419   1.488 125.289  0.00  0.00    +0.000 S 
ATOM     21  O   UNL     1      -9.531   2.287 124.790  0.00  0.00    +0.000 OA
ATOM     22  O   UNL     1      -7.064   1.725 124.855  0.00  0.00    +0.000 OA
BRANCH  20  23
ATOM     23  C   UNL     1      -8.796  -0.212 124.896  0.00  0.00    +0.000 A 
ATOM     24  C   UNL     1      -9.004  -1.113 125.945  0.00  0.00    +0.000 A 
ATOM     25  C   UNL     1      -9.161  -2.472 125.663  0.00  0.00    +0.000 A 
ATOM     26  C   UNL     1      -9.181  -2.917 124.341  0.00  0.00    +0.000 A 
ATOM     27  C   UNL     1      -9.002  -2.012 123.296  0.00  0.00    +0.000 A 
ATOM     28  C   UNL     1      -8.802  -0.659 123.571  0.00  0.00    +0.000 A 
ENDBRANCH  20  23
ENDBRANCH  19  20
ENDBRANCH  18  19
ENDBRANCH   7  18
TORSDOF 6
ENDMDL
MODEL 9
REMARK VINA RESULT:      -6.6      6.191      8.875
REMARK  Name = Eletriptan
REMARK  7 active torsions:
REMARK  status: ('A' for Active; 'I' for Inactive)
REMARK    1  A    between atoms: C_1  and  N_2
REMARK    2  A    between atoms: C_6  and  C_7
REMARK    3  A    between atoms: C_7  and  C_8
REMARK    4  A    between atoms: C_14  and  C_15
REMARK    5  A    between atoms: C_15  and  C_16
REMARK    6  A    between atoms: C_16  and  S_17
REMARK    7  A    between atoms: S_17  and  C_20
REMARK                            x       y       z     vdW  Elec       q    Type
REMARK                         _______ _______ _______ _____ _____    ______ ____
ROOT
ATOM      1  C   UNL     1      -7.465   0.053 128.966  0.00  0.00    +0.000 A 
ATOM      2  C   UNL     1      -7.466  -0.068 130.344  0.00  0.00    +0.000 A 
ATOM      3  N   UNL     1      -7.788  -1.364 130.662  0.00  0.00    +0.000 N 
ATOM      4  C   UNL     1      -7.980  -2.102 129.517  0.00  0.00    +0.000 A 
ATOM      5  C   UNL     1      -7.635  -1.283 128.444  0.00  0.00    +0.000 A 
ATOM      6  C   UNL     1      -7.776  -1.801 127.128  0.00  0.00    +0.000 A 
ATOM      7  C   UNL     1      -8.399  -3.044 126.913  0.00  0.00    +0.000 A 
ATOM      8  C   UNL     1      -8.693  -3.839 128.027  0.00  0.00    +0.000 A 
ATOM      9  C   UNL     1      -8.464  -3.401 129.339  0.00  0.00    +0.000 A 
ATOM     10  H   UNL     1      -7.944  -1.709 131.599  0.00  0.00    +0.000 HD
ENDROOT
BRANCH   1  11
ATOM     11  C   UNL     1      -7.393   1.338 128.170  0.00  0.00    +0.000 C 
BRANCH  11  17
ATOM     12  C   UNL     1      -6.132   4.377 128.577  0.00  0.00    +0.000 C 
ATOM     13  N   UNL     1      -5.940   3.376 127.534  0.00  0.00    +0.000 NA
ATOM     14  C   UNL     1      -4.615   3.605 126.971  0.00  0.00    +0.000 C 
ATOM     15  C   UNL     1      -4.224   2.288 126.352  0.00  0.00    +0.000 C 
ATOM     16  C   UNL     1      -5.110   1.240 127.021  0.00  0.00    +0.000 C 
ATOM     17  C   UNL     1      -5.977   1.993 128.047  0.00  0.00    +0.000 C 
ENDBRANCH  11  17
ENDBRANCH   1  11
BRANCH   7  18
ATOM     18  C   UNL     1      -8.818  -3.405 125.494  0.00  0.00    +0.000 C 
BRANCH  18  19
ATOM     19  C   UNL     1      -7.812  -2.946 124.456  0.00  0.00    +0.000 C 
BRANCH  19  20
ATOM     20  S   UNL     1      -8.526  -1.898 123.223  0.00  0.00    +0.000 S 
ATOM     21  O   UNL     1      -7.707  -2.029 122.024  0.00  0.00    +0.000 OA
ATOM     22  O   UNL     1      -9.951  -2.122 123.193  0.00  0.00    +0.000 OA
BRANCH  20  23
ATOM     23  C   UNL     1      -8.278  -0.237 123.830  0.00  0.00    +0.000 A 
ATOM     24  C   UNL     1      -9.317   0.383 124.530  0.00  0.00    +0.000 A 
ATOM     25  C   UNL     1      -9.197   1.727 124.890  0.00  0.00    +0.000 A 
ATOM     26  C   UNL     1      -8.021   2.425 124.617  0.00  0.00    +0.000 A 
ATOM     27  C   UNL     1      -6.975   1.796 123.944  0.00  0.00    +0.000 A 
ATOM     28  C   UNL     1      -7.104   0.466 123.542  0.00  0.00    +0.000 A 
ENDBRANCH  20  23
ENDBRANCH  19  20
ENDBRANCH  18  19
ENDBRANCH   7  18
TORSDOF 6
ENDMDL
