MODEL 1
REMARK VINA RESULT:      -9.4      0.000      0.000
REMARK  Name = Elexacaftor
REMARK  15 active torsions:
REMARK  status: ('A' for Active; 'I' for Inactive)
REMARK    1  A    between atoms: C_1  and  C_2
REMARK    2  A    between atoms: C_7  and  N_24
REMARK    3  A    between atoms: C_10  and  C_11
REMARK    4  A    between atoms: N_13  and  S_14
REMARK    5  A    between atoms: S_14  and  C_17
REMARK    6  A    between atoms: N_19  and  C_20
REMARK    7  A    between atoms: C_22  and  C_23
REMARK    8  A    between atoms: C_27  and  O_28
REMARK    9  A    between atoms: O_28  and  C_29
REMARK   10  A    between atoms: C_29  and  C_30
REMARK   11  A    between atoms: C_30  and  C_31
REMARK   12  A    between atoms: C_30  and  C_32
REMARK   13  A    between atoms: C_30  and  C_33
REMARK   14  A    between atoms: C_38  and  C_39
REMARK   15  A    between atoms: C_38  and  C_40
REMARK                            x       y       z     vdW  Elec       q    Type
REMARK                         _______ _______ _______ _____ _____    ______ ____
ROOT
ATOM      1  C   UNL     1      -8.992  -4.043 128.076  0.00  0.00    +0.000 C 
ATOM      2  C   UNL     1      -7.913  -2.991 128.266  0.00  0.00    +0.000 C 
ATOM      3  C   UNL     1      -8.063  -2.247 129.604  0.00  0.00    +0.000 C 
ATOM      4  N   UNL     1      -7.626  -0.869 129.330  0.00  0.00    +0.000 N 
ATOM      5  C   UNL     1      -7.490   0.062 130.338  0.00  0.00    +0.000 A 
ATOM      6  N   UNL     1      -8.341   1.150 130.275  0.00  0.00    +0.000 NA
ATOM      7  C   UNL     1      -8.322   2.110 131.249  0.00  0.00    +0.000 A 
ATOM      8  C   UNL     1      -7.475   2.002 132.347  0.00  0.00    +0.000 A 
ATOM      9  C   UNL     1      -6.629   0.880 132.444  0.00  0.00    +0.000 A 
ATOM     10  C   UNL     1      -6.594  -0.097 131.429  0.00  0.00    +0.000 A 
ATOM     11  C   UNL     1      -7.221  -0.703 127.917  0.00  0.00    +0.000 C 
ATOM     12  C   UNL     1      -7.619   0.636 127.306  0.00  0.00    +0.000 C 
ATOM     13  C   UNL     1      -5.706  -0.888 127.715  0.00  0.00    +0.000 C 
ATOM     14  C   UNL     1      -7.971  -1.870 127.229  0.00  0.00    +0.000 C 
ENDROOT
BRANCH   7  15
ATOM     15  N   UNL     1      -9.168   3.284 131.145  0.00  0.00    +0.000 N 
ATOM     16  C   UNL     1      -9.291   4.285 132.103  0.00  0.00    +0.000 A 
ATOM     17  C   UNL     1     -10.186   5.208 131.618  0.00  0.00    +0.000 A 
ATOM     18  C   UNL     1     -10.629   4.661 130.407  0.00  0.00    +0.000 A 
ATOM     19  N   UNL     1     -10.022   3.514 130.087  0.00  0.00    +0.000 NA
BRANCH  18  20
ATOM     20  O   UNL     1     -11.564   5.261 129.637  0.00  0.00    +0.000 OA
BRANCH  20  21
ATOM     21  C   UNL     1     -12.091   6.507 130.095  0.00  0.00    +0.000 C 
BRANCH  21  22
ATOM     22  C   UNL     1     -12.036   7.523 128.922  0.00  0.00    +0.000 C 
ATOM     23  C   UNL     1     -12.751   6.958 127.682  0.00  0.00    +0.000 C 
ATOM     24  C   UNL     1     -12.722   8.843 129.322  0.00  0.00    +0.000 C 
BRANCH  22  25
ATOM     25  C   UNL     1     -10.579   7.803 128.574  0.00  0.00    +0.000 C 
ATOM     26  F   UNL     1     -10.070   6.857 127.755  0.00  0.00    +0.000 F 
ATOM     27  F   UNL     1     -10.435   8.997 127.959  0.00  0.00    +0.000 F 
ATOM     28  F   UNL     1      -9.805   7.829 129.685  0.00  0.00    +0.000 F 
ENDBRANCH  22  25
ENDBRANCH  21  22
ENDBRANCH  20  21
ENDBRANCH  18  20
ENDBRANCH   7  15
BRANCH  10  29
ATOM     29  C   UNL     1      -5.602  -1.243 131.463  0.00  0.00    +0.000 C 
ATOM     30  O   UNL     1      -4.597  -1.246 130.767  0.00  0.00    +0.000 OA
ATOM     31  N   UNL     1      -5.801  -2.336 132.337  0.00  0.00    +0.000 N 
ATOM     32  H   UNL     1      -6.515  -2.391 133.047  0.00  0.00    +0.000 HD
BRANCH  31  33
ATOM     33  S   UNL     1      -4.709  -3.633 132.267  0.00  0.00    +0.000 S 
ATOM     34  O   UNL     1      -5.021  -4.417 131.092  0.00  0.00    +0.000 OA
ATOM     35  O   UNL     1      -3.378  -3.150 132.558  0.00  0.00    +0.000 OA
BRANCH  33  36
ATOM     36  C   UNL     1      -5.048  -4.735 133.555  0.00  0.00    +0.000 A 
ATOM     37  C   UNL     1      -6.253  -4.865 134.217  0.00  0.00    +0.000 A 
ATOM     38  N   UNL     1      -6.097  -5.898 135.092  0.00  0.00    +0.000 N 
ATOM     39  C   UNL     1      -7.093  -6.443 135.987  0.00  0.00    +0.000 C 
ATOM     40  N   UNL     1      -4.859  -6.420 135.080  0.00  0.00    +0.000 NA
ATOM     41  C   UNL     1      -4.217  -5.743 134.111  0.00  0.00    +0.000 A 
ATOM     42  C   UNL     1      -2.818  -6.123 133.779  0.00  0.00    +0.000 C 
ENDBRANCH  33  36
ENDBRANCH  31  33
ENDBRANCH  10  29
TORSDOF 8
ENDMDL
MODEL 2
REMARK VINA RESULT:      -9.0      5.698     10.570
REMARK  Name = Elexacaftor
REMARK  15 active torsions:
REMARK  status: ('A' for Active; 'I' for Inactive)
REMARK    1  A    between atoms: C_1  and  C_2
REMARK    2  A    between atoms: C_7  and  N_24
REMARK    3  A    between atoms: C_10  and  C_11
REMARK    4  A    between atoms: N_13  and  S_14
REMARK    5  A    between atoms: S_14  and  C_17
REMARK    6  A    between atoms: N_19  and  C_20
REMARK    7  A    between atoms: C_22  and  C_23
REMARK    8  A    between atoms: C_27  and  O_28
REMARK    9  A    between atoms: O_28  and  C_29
REMARK   10  A    between atoms: C_29  and  C_30
REMARK   11  A    between atoms: C_30  and  C_31
REMARK   12  A    between atoms: C_30  and  C_32
REMARK   13  A    between atoms: C_30  and  C_33
REMARK   14  A    between atoms: C_38  and  C_39
REMARK   15  A    between atoms: C_38  and  C_40
REMARK                            x       y       z     vdW  Elec       q    Type
REMARK                         _______ _______ _______ _____ _____    ______ ____
ROOT
ATOM      1  C   UNL     1      -5.861  -2.542 123.117  0.00  0.00    +0.000 C 
ATOM      2  C   UNL     1      -7.034  -2.234 124.033  0.00  0.00    +0.000 C 
ATOM      3  C   UNL     1      -6.610  -1.398 125.252  0.00  0.00    +0.000 C 
ATOM      4  N   UNL     1      -7.464  -1.864 126.355  0.00  0.00    +0.000 N 
ATOM      5  C   UNL     1      -7.464  -1.239 127.585  0.00  0.00    +0.000 A 
ATOM      6  N   UNL     1      -7.016  -1.999 128.650  0.00  0.00    +0.000 NA
ATOM      7  C   UNL     1      -6.932  -1.463 129.905  0.00  0.00    +0.000 A 
ATOM      8  C   UNL     1      -7.260  -0.131 130.140  0.00  0.00    +0.000 A 
ATOM      9  C   UNL     1      -7.683   0.665 129.059  0.00  0.00    +0.000 A 
ATOM     10  C   UNL     1      -7.825   0.124 127.765  0.00  0.00    +0.000 A 
ATOM     11  C   UNL     1      -8.384  -2.933 125.910  0.00  0.00    +0.000 C 
ATOM     12  C   UNL     1      -8.606  -4.035 126.940  0.00  0.00    +0.000 C 
ATOM     13  C   UNL     1      -9.761  -2.386 125.493  0.00  0.00    +0.000 C 
ATOM     14  C   UNL     1      -7.657  -3.482 124.659  0.00  0.00    +0.000 C 
ENDROOT
BRANCH   7  15
ATOM     15  N   UNL     1      -6.525  -2.281 131.031  0.00  0.00    +0.000 N 
ATOM     16  C   UNL     1      -6.318  -3.656 131.004  0.00  0.00    +0.000 A 
ATOM     17  C   UNL     1      -5.942  -4.040 132.269  0.00  0.00    +0.000 A 
ATOM     18  C   UNL     1      -6.026  -2.865 133.027  0.00  0.00    +0.000 A 
ATOM     19  N   UNL     1      -6.355  -1.788 132.307  0.00  0.00    +0.000 NA
BRANCH  18  20
ATOM     20  O   UNL     1      -5.770  -2.837 134.354  0.00  0.00    +0.000 OA
BRANCH  20  21
ATOM     21  C   UNL     1      -6.864  -2.554 135.228  0.00  0.00    +0.000 C 
BRANCH  21  22
ATOM     22  C   UNL     1      -7.092  -3.787 136.144  0.00  0.00    +0.000 C 
ATOM     23  C   UNL     1      -5.755  -4.478 136.466  0.00  0.00    +0.000 C 
ATOM     24  C   UNL     1      -7.752  -3.359 137.467  0.00  0.00    +0.000 C 
BRANCH  22  25
ATOM     25  C   UNL     1      -8.005  -4.776 135.428  0.00  0.00    +0.000 C 
ATOM     26  F   UNL     1      -8.698  -4.185 134.431  0.00  0.00    +0.000 F 
ATOM     27  F   UNL     1      -7.305  -5.798 134.889  0.00  0.00    +0.000 F 
ATOM     28  F   UNL     1      -8.909  -5.315 136.280  0.00  0.00    +0.000 F 
ENDBRANCH  22  25
ENDBRANCH  21  22
ENDBRANCH  20  21
ENDBRANCH  18  20
ENDBRANCH   7  15
BRANCH  10  29
ATOM     29  C   UNL     1      -8.396   0.938 126.621  0.00  0.00    +0.000 C 
ATOM     30  O   UNL     1      -9.589   0.926 126.354  0.00  0.00    +0.000 OA
ATOM     31  N   UNL     1      -7.554   1.768 125.845  0.00  0.00    +0.000 N 
ATOM     32  H   UNL     1      -6.585   1.962 126.044  0.00  0.00    +0.000 HD
BRANCH  31  33
ATOM     33  S   UNL     1      -8.230   2.586 124.520  0.00  0.00    +0.000 S 
ATOM     34  O   UNL     1      -8.757   1.596 123.606  0.00  0.00    +0.000 OA
ATOM     35  O   UNL     1      -9.008   3.706 124.999  0.00  0.00    +0.000 OA
BRANCH  33  36
ATOM     36  C   UNL     1      -6.965   3.316 123.595  0.00  0.00    +0.000 A 
ATOM     37  C   UNL     1      -6.786   3.200 122.230  0.00  0.00    +0.000 A 
ATOM     38  N   UNL     1      -5.726   3.997 121.918  0.00  0.00    +0.000 N 
ATOM     39  C   UNL     1      -5.174   4.241 120.604  0.00  0.00    +0.000 C 
ATOM     40  N   UNL     1      -5.172   4.588 122.989  0.00  0.00    +0.000 NA
ATOM     41  C   UNL     1      -5.949   4.212 124.021  0.00  0.00    +0.000 A 
ATOM     42  C   UNL     1      -5.653   4.753 125.374  0.00  0.00    +0.000 C 
ENDBRANCH  33  36
ENDBRANCH  31  33
ENDBRANCH  10  29
TORSDOF 8
ENDMDL
MODEL 3
REMARK VINA RESULT:      -8.8      7.671     11.345
REMARK  Name = Elexacaftor
REMARK  15 active torsions:
REMARK  status: ('A' for Active; 'I' for Inactive)
REMARK    1  A    between atoms: C_1  and  C_2
REMARK    2  A    between atoms: C_7  and  N_24
REMARK    3  A    between atoms: C_10  and  C_11
REMARK    4  A    between atoms: N_13  and  S_14
REMARK    5  A    between atoms: S_14  and  C_17
REMARK    6  A    between atoms: N_19  and  C_20
REMARK    7  A    between atoms: C_22  and  C_23
REMARK    8  A    between atoms: C_27  and  O_28
REMARK    9  A    between atoms: O_28  and  C_29
REMARK   10  A    between atoms: C_29  and  C_30
REMARK   11  A    between atoms: C_30  and  C_31
REMARK   12  A    between atoms: C_30  and  C_32
REMARK   13  A    between atoms: C_30  and  C_33
REMARK   14  A    between atoms: C_38  and  C_39
REMARK   15  A    between atoms: C_38  and  C_40
REMARK                            x       y       z     vdW  Elec       q    Type
REMARK                         _______ _______ _______ _____ _____    ______ ____
ROOT
ATOM      1  C   UNL     1      -6.239   1.315 133.977  0.00  0.00    +0.000 C 
ATOM      2  C   UNL     1      -6.671   2.733 133.645  0.00  0.00    +0.000 C 
ATOM      3  C   UNL     1      -5.740   3.393 132.614  0.00  0.00    +0.000 C 
ATOM      4  N   UNL     1      -5.693   4.814 132.992  0.00  0.00    +0.000 N 
ATOM      5  C   UNL     1      -5.059   5.752 132.204  0.00  0.00    +0.000 A 
ATOM      6  N   UNL     1      -3.958   6.372 132.768  0.00  0.00    +0.000 NA
ATOM      7  C   UNL     1      -3.229   7.285 132.057  0.00  0.00    +0.000 A 
ATOM      8  C   UNL     1      -3.551   7.590 130.739  0.00  0.00    +0.000 A 
ATOM      9  C   UNL     1      -4.646   6.940 130.139  0.00  0.00    +0.000 A 
ATOM     10  C   UNL     1      -5.444   6.033 130.866  0.00  0.00    +0.000 A 
ATOM     11  C   UNL     1      -6.523   5.082 134.187  0.00  0.00    +0.000 C 
ATOM     12  C   UNL     1      -5.921   6.100 135.150  0.00  0.00    +0.000 C 
ATOM     13  C   UNL     1      -7.942   5.553 133.821  0.00  0.00    +0.000 C 
ATOM     14  C   UNL     1      -6.605   3.682 134.841  0.00  0.00    +0.000 C 
ENDROOT
BRANCH   7  15
ATOM     15  N   UNL     1      -2.116   7.981 132.674  0.00  0.00    +0.000 N 
ATOM     16  C   UNL     1      -0.811   7.507 132.764  0.00  0.00    +0.000 A 
ATOM     17  C   UNL     1      -0.071   8.465 133.415  0.00  0.00    +0.000 A 
ATOM     18  C   UNL     1      -1.006   9.448 133.765  0.00  0.00    +0.000 A 
ATOM     19  N   UNL     1      -2.240   9.194 133.317  0.00  0.00    +0.000 NA
BRANCH  18  20
ATOM     20  O   UNL     1      -0.671  10.553 134.467  0.00  0.00    +0.000 OA
BRANCH  20  21
ATOM     21  C   UNL     1       0.711  10.912 134.507  0.00  0.00    +0.000 C 
BRANCH  21  22
ATOM     22  C   UNL     1       0.858  12.361 133.969  0.00  0.00    +0.000 C 
ATOM     23  C   UNL     1      -0.380  13.201 134.330  0.00  0.00    +0.000 C 
ATOM     24  C   UNL     1       2.101  13.036 134.577  0.00  0.00    +0.000 C 
BRANCH  22  25
ATOM     25  C   UNL     1       1.005  12.316 132.453  0.00  0.00    +0.000 C 
ATOM     26  F   UNL     1      -0.176  12.074 131.843  0.00  0.00    +0.000 F 
ATOM     27  F   UNL     1       1.487  13.480 131.965  0.00  0.00    +0.000 F 
ATOM     28  F   UNL     1       1.860  11.337 132.072  0.00  0.00    +0.000 F 
ENDBRANCH  22  25
ENDBRANCH  21  22
ENDBRANCH  20  21
ENDBRANCH  18  20
ENDBRANCH   7  15
BRANCH  10  29
ATOM     29  C   UNL     1      -6.696   5.421 130.269  0.00  0.00    +0.000 C 
ATOM     30  O   UNL     1      -6.678   4.334 129.710  0.00  0.00    +0.000 OA
ATOM     31  N   UNL     1      -7.938   6.089 130.374  0.00  0.00    +0.000 N 
ATOM     32  H   UNL     1      -8.106   6.922 130.917  0.00  0.00    +0.000 HD
BRANCH  31  33
ATOM     33  S   UNL     1      -9.288   5.403 129.608  0.00  0.00    +0.000 S 
ATOM     34  O   UNL     1      -9.011   5.338 128.189  0.00  0.00    +0.000 OA
ATOM     35  O   UNL     1      -9.741   4.264 130.373  0.00  0.00    +0.000 OA
BRANCH  33  36
ATOM     36  C   UNL     1     -10.611   6.513 129.682  0.00  0.00    +0.000 A 
ATOM     37  C   UNL     1     -11.175   7.179 128.611  0.00  0.00    +0.000 A 
ATOM     38  N   UNL     1     -12.231   7.879 129.111  0.00  0.00    +0.000 N 
ATOM     39  C   UNL     1     -13.160   8.704 128.373  0.00  0.00    +0.000 C 
ATOM     40  N   UNL     1     -12.367   7.753 130.441  0.00  0.00    +0.000 NA
ATOM     41  C   UNL     1     -11.405   6.884 130.799  0.00  0.00    +0.000 A 
ATOM     42  C   UNL     1     -11.315   6.462 132.222  0.00  0.00    +0.000 C 
ENDBRANCH  33  36
ENDBRANCH  31  33
ENDBRANCH  10  29
TORSDOF 8
ENDMDL
MODEL 4
REMARK VINA RESULT:      -8.8      6.629      9.846
REMARK  Name = Elexacaftor
REMARK  15 active torsions:
REMARK  status: ('A' for Active; 'I' for Inactive)
REMARK    1  A    between atoms: C_1  and  C_2
REMARK    2  A    between atoms: C_7  and  N_24
REMARK    3  A    between atoms: C_10  and  C_11
REMARK    4  A    between atoms: N_13  and  S_14
REMARK    5  A    between atoms: S_14  and  C_17
REMARK    6  A    between atoms: N_19  and  C_20
REMARK    7  A    between atoms: C_22  and  C_23
REMARK    8  A    between atoms: C_27  and  O_28
REMARK    9  A    between atoms: O_28  and  C_29
REMARK   10  A    between atoms: C_29  and  C_30
REMARK   11  A    between atoms: C_30  and  C_31
REMARK   12  A    between atoms: C_30  and  C_32
REMARK   13  A    between atoms: C_30  and  C_33
REMARK   14  A    between atoms: C_38  and  C_39
REMARK   15  A    between atoms: C_38  and  C_40
REMARK                            x       y       z     vdW  Elec       q    Type
REMARK                         _______ _______ _______ _____ _____    ______ ____
ROOT
ATOM      1  C   UNL     1      -4.665   5.774 138.158  0.00  0.00    +0.000 C 
ATOM      2  C   UNL     1      -4.374   5.195 136.784  0.00  0.00    +0.000 C 
ATOM      3  C   UNL     1      -4.853   6.122 135.654  0.00  0.00    +0.000 C 
ATOM      4  N   UNL     1      -5.297   5.220 134.579  0.00  0.00    +0.000 N 
ATOM      5  C   UNL     1      -5.666   5.699 133.339  0.00  0.00    +0.000 A 
ATOM      6  N   UNL     1      -6.989   5.503 132.984  0.00  0.00    +0.000 NA
ATOM      7  C   UNL     1      -7.471   5.978 131.796  0.00  0.00    +0.000 A 
ATOM      8  C   UNL     1      -6.659   6.701 130.929  0.00  0.00    +0.000 A 
ATOM      9  C   UNL     1      -5.321   6.941 131.293  0.00  0.00    +0.000 A 
ATOM     10  C   UNL     1      -4.785   6.419 132.489  0.00  0.00    +0.000 A 
ATOM     11  C   UNL     1      -5.134   3.802 134.963  0.00  0.00    +0.000 C 
ATOM     12  C   UNL     1      -6.257   2.890 134.480  0.00  0.00    +0.000 C 
ATOM     13  C   UNL     1      -3.799   3.212 134.475  0.00  0.00    +0.000 C 
ATOM     14  C   UNL     1      -5.116   3.887 136.509  0.00  0.00    +0.000 C 
ENDROOT
BRANCH   7  15
ATOM     15  N   UNL     1      -8.841   5.714 131.398  0.00  0.00    +0.000 N 
ATOM     16  C   UNL     1      -9.348   4.482 130.997  0.00  0.00    +0.000 A 
ATOM     17  C   UNL     1     -10.679   4.660 130.709  0.00  0.00    +0.000 A 
ATOM     18  C   UNL     1     -10.889   6.036 130.873  0.00  0.00    +0.000 A 
ATOM     19  N   UNL     1      -9.807   6.692 131.304  0.00  0.00    +0.000 NA
BRANCH  18  20
ATOM     20  O   UNL     1     -12.084   6.622 130.636  0.00  0.00    +0.000 OA
BRANCH  20  21
ATOM     21  C   UNL     1     -12.073   7.977 130.187  0.00  0.00    +0.000 C 
BRANCH  21  22
ATOM     22  C   UNL     1     -12.508   8.003 128.696  0.00  0.00    +0.000 C 
ATOM     23  C   UNL     1     -13.356   6.765 128.357  0.00  0.00    +0.000 C 
ATOM     24  C   UNL     1     -13.343   9.263 128.402  0.00  0.00    +0.000 C 
BRANCH  22  25
ATOM     25  C   UNL     1     -11.264   8.012 127.815  0.00  0.00    +0.000 C 
ATOM     26  F   UNL     1     -10.564   6.863 127.928  0.00  0.00    +0.000 F 
ATOM     27  F   UNL     1     -11.578   8.174 126.512  0.00  0.00    +0.000 F 
ATOM     28  F   UNL     1     -10.429   9.024 128.155  0.00  0.00    +0.000 F 
ENDBRANCH  22  25
ENDBRANCH  21  22
ENDBRANCH  20  21
ENDBRANCH  18  20
ENDBRANCH   7  15
BRANCH  10  29
ATOM     29  C   UNL     1      -3.316   6.566 132.832  0.00  0.00    +0.000 C 
ATOM     30  O   UNL     1      -2.537   5.628 132.743  0.00  0.00    +0.000 OA
ATOM     31  N   UNL     1      -2.798   7.818 133.238  0.00  0.00    +0.000 N 
ATOM     32  H   UNL     1      -3.306   8.688 133.228  0.00  0.00    +0.000 HD
BRANCH  31  33
ATOM     33  S   UNL     1      -1.167   7.903 133.698  0.00  0.00    +0.000 S 
ATOM     34  O   UNL     1      -1.048   7.345 135.028  0.00  0.00    +0.000 OA
ATOM     35  O   UNL     1      -0.338   7.480 132.593  0.00  0.00    +0.000 OA
BRANCH  33  36
ATOM     36  C   UNL     1      -0.729   9.557 133.944  0.00  0.00    +0.000 A 
ATOM     37  C   UNL     1       0.379  10.192 133.415  0.00  0.00    +0.000 A 
ATOM     38  N   UNL     1       0.287  11.497 133.796  0.00  0.00    +0.000 N 
ATOM     39  C   UNL     1       1.192  12.571 133.457  0.00  0.00    +0.000 C 
ATOM     40  N   UNL     1      -0.778  11.747 134.576  0.00  0.00    +0.000 NA
ATOM     41  C   UNL     1      -1.433  10.574 134.640  0.00  0.00    +0.000 A 
ATOM     42  C   UNL     1      -2.720  10.513 135.383  0.00  0.00    +0.000 C 
ENDBRANCH  33  36
ENDBRANCH  31  33
ENDBRANCH  10  29
TORSDOF 8
ENDMDL
MODEL 5
REMARK VINA RESULT:      -8.8      5.524      9.335
REMARK  Name = Elexacaftor
REMARK  15 active torsions:
REMARK  status: ('A' for Active; 'I' for Inactive)
REMARK    1  A    between atoms: C_1  and  C_2
REMARK    2  A    between atoms: C_7  and  N_24
REMARK    3  A    between atoms: C_10  and  C_11
REMARK    4  A    between atoms: N_13  and  S_14
REMARK    5  A    between atoms: S_14  and  C_17
REMARK    6  A    between atoms: N_19  and  C_20
REMARK    7  A    between atoms: C_22  and  C_23
REMARK    8  A    between atoms: C_27  and  O_28
REMARK    9  A    between atoms: O_28  and  C_29
REMARK   10  A    between atoms: C_29  and  C_30
REMARK   11  A    between atoms: C_30  and  C_31
REMARK   12  A    between atoms: C_30  and  C_32
REMARK   13  A    between atoms: C_30  and  C_33
REMARK   14  A    between atoms: C_38  and  C_39
REMARK   15  A    between atoms: C_38  and  C_40
REMARK                            x       y       z     vdW  Elec       q    Type
REMARK                         _______ _______ _______ _____ _____    ______ ____
ROOT
ATOM      1  C   UNL     1      -1.893   3.826 126.800  0.00  0.00    +0.000 C 
ATOM      2  C   UNL     1      -3.400   4.007 126.864  0.00  0.00    +0.000 C 
ATOM      3  C   UNL     1      -4.015   3.300 128.083  0.00  0.00    +0.000 C 
ATOM      4  N   UNL     1      -5.332   2.825 127.629  0.00  0.00    +0.000 N 
ATOM      5  C   UNL     1      -6.238   2.259 128.501  0.00  0.00    +0.000 A 
ATOM      6  N   UNL     1      -6.550   0.931 128.271  0.00  0.00    +0.000 NA
ATOM      7  C   UNL     1      -7.404   0.260 129.104  0.00  0.00    +0.000 A 
ATOM      8  C   UNL     1      -7.951   0.880 130.222  0.00  0.00    +0.000 A 
ATOM      9  C   UNL     1      -7.613   2.220 130.489  0.00  0.00    +0.000 A 
ATOM     10  C   UNL     1      -6.776   2.950 129.620  0.00  0.00    +0.000 A 
ATOM     11  C   UNL     1      -5.575   3.183 126.214  0.00  0.00    +0.000 C 
ATOM     12  C   UNL     1      -6.311   2.111 125.417  0.00  0.00    +0.000 C 
ATOM     13  C   UNL     1      -6.353   4.503 126.069  0.00  0.00    +0.000 C 
ATOM     14  C   UNL     1      -4.135   3.380 125.680  0.00  0.00    +0.000 C 
ENDROOT
BRANCH   7  15
ATOM     15  N   UNL     1      -7.780  -1.112 128.822  0.00  0.00    +0.000 N 
ATOM     16  C   UNL     1      -7.788  -2.157 129.740  0.00  0.00    +0.000 A 
ATOM     17  C   UNL     1      -8.207  -3.284 129.074  0.00  0.00    +0.000 A 
ATOM     18  C   UNL     1      -8.351  -2.869 127.744  0.00  0.00    +0.000 A 
ATOM     19  N   UNL     1      -8.119  -1.564 127.565  0.00  0.00    +0.000 NA
BRANCH  18  20
ATOM     20  O   UNL     1      -8.713  -3.715 126.754  0.00  0.00    +0.000 OA
BRANCH  20  21
ATOM     21  C   UNL     1      -9.634  -3.226 125.777  0.00  0.00    +0.000 C 
BRANCH  21  22
ATOM     22  C   UNL     1      -8.890  -3.103 124.420  0.00  0.00    +0.000 C 
ATOM     23  C   UNL     1      -7.587  -3.924 124.439  0.00  0.00    +0.000 C 
ATOM     24  C   UNL     1      -9.776  -3.621 123.272  0.00  0.00    +0.000 C 
BRANCH  22  25
ATOM     25  C   UNL     1      -8.552  -1.638 124.169  0.00  0.00    +0.000 C 
ATOM     26  F   UNL     1      -9.377  -0.812 124.847  0.00  0.00    +0.000 F 
ATOM     27  F   UNL     1      -7.286  -1.349 124.541  0.00  0.00    +0.000 F 
ATOM     28  F   UNL     1      -8.664  -1.327 122.856  0.00  0.00    +0.000 F 
ENDBRANCH  22  25
ENDBRANCH  21  22
ENDBRANCH  20  21
ENDBRANCH  18  20
ENDBRANCH   7  15
BRANCH  10  29
ATOM     29  C   UNL     1      -6.505   4.425 129.831  0.00  0.00    +0.000 C 
ATOM     30  O   UNL     1      -7.175   5.289 129.283  0.00  0.00    +0.000 OA
ATOM     31  N   UNL     1      -5.476   4.846 130.705  0.00  0.00    +0.000 N 
ATOM     32  H   UNL     1      -4.942   4.240 131.309  0.00  0.00    +0.000 HD
BRANCH  31  33
ATOM     33  S   UNL     1      -5.156   6.507 130.833  0.00  0.00    +0.000 S 
ATOM     34  O   UNL     1      -4.588   6.950 129.578  0.00  0.00    +0.000 OA
ATOM     35  O   UNL     1      -6.282   7.162 131.459  0.00  0.00    +0.000 OA
BRANCH  33  36
ATOM     36  C   UNL     1      -3.854   6.754 131.942  0.00  0.00    +0.000 A 
ATOM     37  C   UNL     1      -2.621   7.299 131.640  0.00  0.00    +0.000 A 
ATOM     38  N   UNL     1      -1.942   7.381 132.819  0.00  0.00    +0.000 N 
ATOM     39  C   UNL     1      -0.618   7.920 133.029  0.00  0.00    +0.000 C 
ATOM     40  N   UNL     1      -2.629   6.884 133.862  0.00  0.00    +0.000 NA
ATOM     41  C   UNL     1      -3.821   6.535 133.345  0.00  0.00    +0.000 A 
ATOM     42  C   UNL     1      -4.868   6.002 134.257  0.00  0.00    +0.000 C 
ENDBRANCH  33  36
ENDBRANCH  31  33
ENDBRANCH  10  29
TORSDOF 8
ENDMDL
MODEL 6
REMARK VINA RESULT:      -8.7      5.357      9.720
REMARK  Name = Elexacaftor
REMARK  15 active torsions:
REMARK  status: ('A' for Active; 'I' for Inactive)
REMARK    1  A    between atoms: C_1  and  C_2
REMARK    2  A    between atoms: C_7  and  N_24
REMARK    3  A    between atoms: C_10  and  C_11
REMARK    4  A    between atoms: N_13  and  S_14
REMARK    5  A    between atoms: S_14  and  C_17
REMARK    6  A    between atoms: N_19  and  C_20
REMARK    7  A    between atoms: C_22  and  C_23
REMARK    8  A    between atoms: C_27  and  O_28
REMARK    9  A    between atoms: O_28  and  C_29
REMARK   10  A    between atoms: C_29  and  C_30
REMARK   11  A    between atoms: C_30  and  C_31
REMARK   12  A    between atoms: C_30  and  C_32
REMARK   13  A    between atoms: C_30  and  C_33
REMARK   14  A    between atoms: C_38  and  C_39
REMARK   15  A    between atoms: C_38  and  C_40
REMARK                            x       y       z     vdW  Elec       q    Type
REMARK                         _______ _______ _______ _____ _____    ______ ____
ROOT
ATOM      1  C   UNL     1      -8.680   6.915 130.738  0.00  0.00    +0.000 C 
ATOM      2  C   UNL     1      -8.534   5.727 131.673  0.00  0.00    +0.000 C 
ATOM      3  C   UNL     1      -7.393   4.791 131.242  0.00  0.00    +0.000 C 
ATOM      4  N   UNL     1      -7.851   3.437 131.592  0.00  0.00    +0.000 N 
ATOM      5  C   UNL     1      -7.023   2.340 131.477  0.00  0.00    +0.000 A 
ATOM      6  N   UNL     1      -7.409   1.385 130.554  0.00  0.00    +0.000 NA
ATOM      7  C   UNL     1      -6.637   0.279 130.328  0.00  0.00    +0.000 A 
ATOM      8  C   UNL     1      -5.427   0.100 130.992  0.00  0.00    +0.000 A 
ATOM      9  C   UNL     1      -5.004   1.082 131.908  0.00  0.00    +0.000 A 
ATOM     10  C   UNL     1      -5.805   2.206 132.195  0.00  0.00    +0.000 A 
ATOM     11  C   UNL     1      -9.197   3.466 132.204  0.00  0.00    +0.000 C 
ATOM     12  C   UNL     1     -10.096   2.305 131.792  0.00  0.00    +0.000 C 
ATOM     13  C   UNL     1      -9.141   3.503 133.742  0.00  0.00    +0.000 C 
ATOM     14  C   UNL     1      -9.758   4.812 131.684  0.00  0.00    +0.000 C 
ENDROOT
BRANCH   7  15
ATOM     15  N   UNL     1      -7.076  -0.752 129.408  0.00  0.00    +0.000 N 
ATOM     16  C   UNL     1      -7.675  -1.957 129.763  0.00  0.00    +0.000 A 
ATOM     17  C   UNL     1      -7.936  -2.643 128.600  0.00  0.00    +0.000 A 
ATOM     18  C   UNL     1      -7.394  -1.836 127.592  0.00  0.00    +0.000 A 
ATOM     19  N   UNL     1      -6.887  -0.685 128.045  0.00  0.00    +0.000 NA
BRANCH  18  20
ATOM     20  O   UNL     1      -7.412  -2.193 126.288  0.00  0.00    +0.000 OA
BRANCH  20  21
ATOM     21  C   UNL     1      -6.182  -2.109 125.567  0.00  0.00    +0.000 C 
BRANCH  21  22
ATOM     22  C   UNL     1      -6.335  -2.902 124.241  0.00  0.00    +0.000 C 
ATOM     23  C   UNL     1      -5.072  -3.735 123.958  0.00  0.00    +0.000 C 
ATOM     24  C   UNL     1      -7.541  -3.856 124.321  0.00  0.00    +0.000 C 
BRANCH  22  25
ATOM     25  C   UNL     1      -6.550  -1.919 123.096  0.00  0.00    +0.000 C 
ATOM     26  F   UNL     1      -7.803  -1.998 122.599  0.00  0.00    +0.000 F 
ATOM     27  F   UNL     1      -6.345  -0.644 123.490  0.00  0.00    +0.000 F 
ATOM     28  F   UNL     1      -5.698  -2.165 122.072  0.00  0.00    +0.000 F 
ENDBRANCH  22  25
ENDBRANCH  21  22
ENDBRANCH  20  21
ENDBRANCH  18  20
ENDBRANCH   7  15
BRANCH  10  29
ATOM     29  C   UNL     1      -5.417   3.205 133.267  0.00  0.00    +0.000 C 
ATOM     30  O   UNL     1      -5.820   3.104 134.417  0.00  0.00    +0.000 OA
ATOM     31  N   UNL     1      -4.541   4.274 132.966  0.00  0.00    +0.000 N 
ATOM     32  H   UNL     1      -4.045   4.391 132.097  0.00  0.00    +0.000 HD
BRANCH  31  33
ATOM     33  S   UNL     1      -4.215   5.414 134.181  0.00  0.00    +0.000 S 
ATOM     34  O   UNL     1      -5.443   6.122 134.470  0.00  0.00    +0.000 OA
ATOM     35  O   UNL     1      -3.404   4.797 135.206  0.00  0.00    +0.000 OA
BRANCH  33  36
ATOM     36  C   UNL     1      -3.205   6.660 133.537  0.00  0.00    +0.000 A 
ATOM     37  C   UNL     1      -2.033   7.128 134.100  0.00  0.00    +0.000 A 
ATOM     38  N   UNL     1      -1.530   8.043 133.224  0.00  0.00    +0.000 N 
ATOM     39  C   UNL     1      -0.295   8.784 133.349  0.00  0.00    +0.000 C 
ATOM     40  N   UNL     1      -2.314   8.237 132.151  0.00  0.00    +0.000 NA
ATOM     41  C   UNL     1      -3.325   7.364 132.310  0.00  0.00    +0.000 A 
ATOM     42  C   UNL     1      -4.359   7.265 131.245  0.00  0.00    +0.000 C 
ENDBRANCH  33  36
ENDBRANCH  31  33
ENDBRANCH  10  29
TORSDOF 8
ENDMDL
MODEL 7
REMARK VINA RESULT:      -8.6      4.794      9.993
REMARK  Name = Elexacaftor
REMARK  15 active torsions:
REMARK  status: ('A' for Active; 'I' for Inactive)
REMARK    1  A    between atoms: C_1  and  C_2
REMARK    2  A    between atoms: C_7  and  N_24
REMARK    3  A    between atoms: C_10  and  C_11
REMARK    4  A    between atoms: N_13  and  S_14
REMARK    5  A    between atoms: S_14  and  C_17
REMARK    6  A    between atoms: N_19  and  C_20
REMARK    7  A    between atoms: C_22  and  C_23
REMARK    8  A    between atoms: C_27  and  O_28
REMARK    9  A    between atoms: O_28  and  C_29
REMARK   10  A    between atoms: C_29  and  C_30
REMARK   11  A    between atoms: C_30  and  C_31
REMARK   12  A    between atoms: C_30  and  C_32
REMARK   13  A    between atoms: C_30  and  C_33
REMARK   14  A    between atoms: C_38  and  C_39
REMARK   15  A    between atoms: C_38  and  C_40
REMARK                            x       y       z     vdW  Elec       q    Type
REMARK                         _______ _______ _______ _____ _____    ______ ____
ROOT
ATOM      1  C   UNL     1      -3.025   4.860 128.075  0.00  0.00    +0.000 C 
ATOM      2  C   UNL     1      -4.537   4.707 128.087  0.00  0.00    +0.000 C 
ATOM      3  C   UNL     1      -5.008   3.724 129.171  0.00  0.00    +0.000 C 
ATOM      4  N   UNL     1      -6.181   3.049 128.594  0.00  0.00    +0.000 N 
ATOM      5  C   UNL     1      -6.960   2.188 129.339  0.00  0.00    +0.000 A 
ATOM      6  N   UNL     1      -6.973   0.869 128.923  0.00  0.00    +0.000 NA
ATOM      7  C   UNL     1      -7.677  -0.076 129.617  0.00  0.00    +0.000 A 
ATOM      8  C   UNL     1      -8.368   0.253 130.778  0.00  0.00    +0.000 A 
ATOM      9  C   UNL     1      -8.334   1.583 131.235  0.00  0.00    +0.000 A 
ATOM     10  C   UNL     1      -7.658   2.587 130.511  0.00  0.00    +0.000 A 
ATOM     11  C   UNL     1      -6.468   3.539 127.229  0.00  0.00    +0.000 C 
ATOM     12  C   UNL     1      -6.938   2.457 126.262  0.00  0.00    +0.000 C 
ATOM     13  C   UNL     1      -7.510   4.672 127.219  0.00  0.00    +0.000 C 
ATOM     14  C   UNL     1      -5.095   4.108 126.797  0.00  0.00    +0.000 C 
ENDROOT
BRANCH   7  15
ATOM     15  N   UNL     1      -7.742  -1.445 129.140  0.00  0.00    +0.000 N 
ATOM     16  C   UNL     1      -7.234  -2.560 129.798  0.00  0.00    +0.000 A 
ATOM     17  C   UNL     1      -7.503  -3.656 129.014  0.00  0.00    +0.000 A 
ATOM     18  C   UNL     1      -8.095  -3.123 127.862  0.00  0.00    +0.000 A 
ATOM     19  N   UNL     1      -8.269  -1.799 127.916  0.00  0.00    +0.000 NA
BRANCH  18  20
ATOM     20  O   UNL     1      -8.471  -3.892 126.816  0.00  0.00    +0.000 OA
BRANCH  20  21
ATOM     21  C   UNL     1      -9.423  -3.342 125.905  0.00  0.00    +0.000 C 
BRANCH  21  22
ATOM     22  C   UNL     1      -8.712  -3.084 124.549  0.00  0.00    +0.000 C 
ATOM     23  C   UNL     1      -7.413  -3.904 124.453  0.00  0.00    +0.000 C 
ATOM     24  C   UNL     1      -9.629  -3.482 123.377  0.00  0.00    +0.000 C 
BRANCH  22  25
ATOM     25  C   UNL     1      -8.375  -1.601 124.438  0.00  0.00    +0.000 C 
ATOM     26  F   UNL     1      -9.284  -0.833 125.077  0.00  0.00    +0.000 F 
ATOM     27  F   UNL     1      -7.163  -1.326 124.966  0.00  0.00    +0.000 F 
ATOM     28  F   UNL     1      -8.350  -1.200 123.145  0.00  0.00    +0.000 F 
ENDBRANCH  22  25
ENDBRANCH  21  22
ENDBRANCH  20  21
ENDBRANCH  18  20
ENDBRANCH   7  15
BRANCH  10  29
ATOM     29  C   UNL     1      -7.717   4.043 130.927  0.00  0.00    +0.000 C 
ATOM     30  O   UNL     1      -6.929   4.515 131.734  0.00  0.00    +0.000 OA
ATOM     31  N   UNL     1      -8.679   4.911 130.360  0.00  0.00    +0.000 N 
ATOM     32  H   UNL     1      -9.295   4.677 129.598  0.00  0.00    +0.000 HD
BRANCH  31  33
ATOM     33  S   UNL     1      -8.759   6.507 130.931  0.00  0.00    +0.000 S 
ATOM     34  O   UNL     1      -8.940   6.460 132.366  0.00  0.00    +0.000 OA
ATOM     35  O   UNL     1      -7.724   7.291 130.296  0.00  0.00    +0.000 OA
BRANCH  33  36
ATOM     36  C   UNL     1     -10.231   7.233 130.389  0.00  0.00    +0.000 A 
ATOM     37  C   UNL     1     -10.405   7.939 129.214  0.00  0.00    +0.000 A 
ATOM     38  N   UNL     1     -11.728   8.256 129.154  0.00  0.00    +0.000 N 
ATOM     39  C   UNL     1     -12.409   8.962 128.092  0.00  0.00    +0.000 C 
ATOM     40  N   UNL     1     -12.421   7.849 130.230  0.00  0.00    +0.000 NA
ATOM     41  C   UNL     1     -11.522   7.182 130.977  0.00  0.00    +0.000 A 
ATOM     42  C   UNL     1     -11.979   6.528 132.232  0.00  0.00    +0.000 C 
ENDBRANCH  33  36
ENDBRANCH  31  33
ENDBRANCH  10  29
TORSDOF 8
ENDMDL
MODEL 8
REMARK VINA RESULT:      -8.4      3.984      6.168
REMARK  Name = Elexacaftor
REMARK  15 active torsions:
REMARK  status: ('A' for Active; 'I' for Inactive)
REMARK    1  A    between atoms: C_1  and  C_2
REMARK    2  A    between atoms: C_7  and  N_24
REMARK    3  A    between atoms: C_10  and  C_11
REMARK    4  A    between atoms: N_13  and  S_14
REMARK    5  A    between atoms: S_14  and  C_17
REMARK    6  A    between atoms: N_19  and  C_20
REMARK    7  A    between atoms: C_22  and  C_23
REMARK    8  A    between atoms: C_27  and  O_28
REMARK    9  A    between atoms: O_28  and  C_29
REMARK   10  A    between atoms: C_29  and  C_30
REMARK   11  A    between atoms: C_30  and  C_31
REMARK   12  A    between atoms: C_30  and  C_32
REMARK   13  A    between atoms: C_30  and  C_33
REMARK   14  A    between atoms: C_38  and  C_39
REMARK   15  A    between atoms: C_38  and  C_40
REMARK                            x       y       z     vdW  Elec       q    Type
REMARK                         _______ _______ _______ _____ _____    ______ ____
ROOT
ATOM      1  C   UNL     1      -4.209   2.594 131.532  0.00  0.00    +0.000 C 
ATOM      2  C   UNL     1      -5.572   1.936 131.664  0.00  0.00    +0.000 C 
ATOM      3  C   UNL     1      -5.569   0.492 131.135  0.00  0.00    +0.000 C 
ATOM      4  N   UNL     1      -6.902   0.295 130.545  0.00  0.00    +0.000 N 
ATOM      5  C   UNL     1      -7.317  -0.940 130.090  0.00  0.00    +0.000 A 
ATOM      6  N   UNL     1      -7.562  -1.033 128.732  0.00  0.00    +0.000 NA
ATOM      7  C   UNL     1      -7.935  -2.222 128.169  0.00  0.00    +0.000 A 
ATOM      8  C   UNL     1      -8.044  -3.377 128.937  0.00  0.00    +0.000 A 
ATOM      9  C   UNL     1      -7.762  -3.306 130.315  0.00  0.00    +0.000 A 
ATOM     10  C   UNL     1      -7.425  -2.082 130.928  0.00  0.00    +0.000 A 
ATOM     11  C   UNL     1      -7.730   1.514 130.664  0.00  0.00    +0.000 C 
ATOM     12  C   UNL     1      -8.614   1.791 129.453  0.00  0.00    +0.000 C 
ATOM     13  C   UNL     1      -8.628   1.494 131.914  0.00  0.00    +0.000 C 
ATOM     14  C   UNL     1      -6.655   2.617 130.829  0.00  0.00    +0.000 C 
ENDROOT
BRANCH   7  15
ATOM     15  N   UNL     1      -8.254  -2.302 126.756  0.00  0.00    +0.000 N 
ATOM     16  C   UNL     1      -8.706  -3.435 126.088  0.00  0.00    +0.000 A 
ATOM     17  C   UNL     1      -8.890  -3.087 124.771  0.00  0.00    +0.000 A 
ATOM     18  C   UNL     1      -8.448  -1.760 124.697  0.00  0.00    +0.000 A 
ATOM     19  N   UNL     1      -8.078  -1.255 125.878  0.00  0.00    +0.000 NA
BRANCH  18  20
ATOM     20  O   UNL     1      -8.429  -1.064 123.538  0.00  0.00    +0.000 OA
BRANCH  20  21
ATOM     21  C   UNL     1      -7.893   0.259 123.575  0.00  0.00    +0.000 C 
BRANCH  21  22
ATOM     22  C   UNL     1      -9.051   1.265 123.329  0.00  0.00    +0.000 C 
ATOM     23  C   UNL     1     -10.101   0.660 122.381  0.00  0.00    +0.000 C 
ATOM     24  C   UNL     1      -9.742   1.624 124.658  0.00  0.00    +0.000 C 
BRANCH  22  25
ATOM     25  C   UNL     1      -8.484   2.533 122.702  0.00  0.00    +0.000 C 
ATOM     26  F   UNL     1      -9.186   2.908 121.611  0.00  0.00    +0.000 F 
ATOM     27  F   UNL     1      -8.495   3.566 123.571  0.00  0.00    +0.000 F 
ATOM     28  F   UNL     1      -7.200   2.353 122.309  0.00  0.00    +0.000 F 
ENDBRANCH  22  25
ENDBRANCH  21  22
ENDBRANCH  20  21
ENDBRANCH  18  20
ENDBRANCH   7  15
BRANCH  10  29
ATOM     29  C   UNL     1      -7.240  -1.970 132.428  0.00  0.00    +0.000 C 
ATOM     30  O   UNL     1      -8.139  -1.582 133.161  0.00  0.00    +0.000 OA
ATOM     31  N   UNL     1      -6.016  -2.346 133.029  0.00  0.00    +0.000 N 
ATOM     32  H   UNL     1      -5.250  -2.797 132.554  0.00  0.00    +0.000 HD
BRANCH  31  33
ATOM     33  S   UNL     1      -5.833  -2.112 134.700  0.00  0.00    +0.000 S 
ATOM     34  O   UNL     1      -4.496  -2.528 135.065  0.00  0.00    +0.000 OA
ATOM     35  O   UNL     1      -6.382  -0.826 135.062  0.00  0.00    +0.000 OA
BRANCH  33  36
ATOM     36  C   UNL     1      -6.824  -3.247 135.547  0.00  0.00    +0.000 A 
ATOM     37  C   UNL     1      -7.741  -2.946 136.535  0.00  0.00    +0.000 A 
ATOM     38  N   UNL     1      -8.348  -4.122 136.862  0.00  0.00    +0.000 N 
ATOM     39  C   UNL     1      -9.409  -4.319 137.823  0.00  0.00    +0.000 C 
ATOM     40  N   UNL     1      -7.858  -5.176 136.188  0.00  0.00    +0.000 NA
ATOM     41  C   UNL     1      -6.952  -4.647 135.346  0.00  0.00    +0.000 A 
ATOM     42  C   UNL     1      -6.256  -5.546 134.387  0.00  0.00    +0.000 C 
ENDBRANCH  33  36
ENDBRANCH  31  33
ENDBRANCH  10  29
TORSDOF 8
ENDMDL
MODEL 9
REMARK VINA RESULT:      -8.3      5.233     11.050
REMARK  Name = Elexacaftor
REMARK  15 active torsions:
REMARK  status: ('A' for Active; 'I' for Inactive)
REMARK    1  A    between atoms: C_1  and  C_2
REMARK    2  A    between atoms: C_7  and  N_24
REMARK    3  A    between atoms: C_10  and  C_11
REMARK    4  A    between atoms: N_13  and  S_14
REMARK    5  A    between atoms: S_14  and  C_17
REMARK    6  A    between atoms: N_19  and  C_20
REMARK    7  A    between atoms: C_22  and  C_23
REMARK    8  A    between atoms: C_27  and  O_28
REMARK    9  A    between atoms: O_28  and  C_29
REMARK   10  A    between atoms: C_29  and  C_30
REMARK   11  A    between atoms: C_30  and  C_31
REMARK   12  A    between atoms: C_30  and  C_32
REMARK   13  A    between atoms: C_30  and  C_33
REMARK   14  A    between atoms: C_38  and  C_39
REMARK   15  A    between atoms: C_38  and  C_40
REMARK                            x       y       z     vdW  Elec       q    Type
REMARK                         _______ _______ _______ _____ _____    ______ ____
ROOT
ATOM      1  C   UNL     1      -2.050   6.439 129.072  0.00  0.00    +0.000 C 
ATOM      2  C   UNL     1      -3.390   5.723 129.081  0.00  0.00    +0.000 C 
ATOM      3  C   UNL     1      -3.595   4.898 130.363  0.00  0.00    +0.000 C 
ATOM      4  N   UNL     1      -4.361   3.715 129.941  0.00  0.00    +0.000 N 
ATOM      5  C   UNL     1      -4.854   2.808 130.855  0.00  0.00    +0.000 A 
ATOM      6  N   UNL     1      -4.333   1.529 130.780  0.00  0.00    +0.000 NA
ATOM      7  C   UNL     1      -4.720   0.563 131.668  0.00  0.00    +0.000 A 
ATOM      8  C   UNL     1      -5.618   0.848 132.692  0.00  0.00    +0.000 A 
ATOM      9  C   UNL     1      -6.129   2.155 132.803  0.00  0.00    +0.000 A 
ATOM     10  C   UNL     1      -5.785   3.155 131.871  0.00  0.00    +0.000 A 
ATOM     11  C   UNL     1      -4.641   3.744 128.489  0.00  0.00    +0.000 C 
ATOM     12  C   UNL     1      -4.562   2.380 127.810  0.00  0.00    +0.000 C 
ATOM     13  C   UNL     1      -6.016   4.357 128.169  0.00  0.00    +0.000 C 
ATOM     14  C   UNL     1      -3.531   4.687 127.966  0.00  0.00    +0.000 C 
ENDROOT
BRANCH   7  15
ATOM     15  N   UNL     1      -4.221  -0.793 131.546  0.00  0.00    +0.000 N 
ATOM     16  C   UNL     1      -4.048  -1.492 130.356  0.00  0.00    +0.000 A 
ATOM     17  C   UNL     1      -3.557  -2.735 130.677  0.00  0.00    +0.000 A 
ATOM     18  C   UNL     1      -3.541  -2.750 132.078  0.00  0.00    +0.000 A 
ATOM     19  N   UNL     1      -3.917  -1.591 132.628  0.00  0.00    +0.000 NA
BRANCH  18  20
ATOM     20  O   UNL     1      -3.156  -3.834 132.788  0.00  0.00    +0.000 OA
BRANCH  20  21
ATOM     21  C   UNL     1      -3.560  -3.900 134.156  0.00  0.00    +0.000 C 
BRANCH  21  22
ATOM     22  C   UNL     1      -4.331  -5.230 134.375  0.00  0.00    +0.000 C 
ATOM     23  C   UNL     1      -3.553  -6.414 133.775  0.00  0.00    +0.000 C 
ATOM     24  C   UNL     1      -4.535  -5.492 135.879  0.00  0.00    +0.000 C 
BRANCH  22  25
ATOM     25  C   UNL     1      -5.693  -5.133 133.696  0.00  0.00    +0.000 C 
ATOM     26  F   UNL     1      -6.189  -3.878 133.748  0.00  0.00    +0.000 F 
ATOM     27  F   UNL     1      -5.627  -5.494 132.396  0.00  0.00    +0.000 F 
ATOM     28  F   UNL     1      -6.597  -5.947 134.292  0.00  0.00    +0.000 F 
ENDBRANCH  22  25
ENDBRANCH  21  22
ENDBRANCH  20  21
ENDBRANCH  18  20
ENDBRANCH   7  15
BRANCH  10  29
ATOM     29  C   UNL     1      -6.423   4.529 131.909  0.00  0.00    +0.000 C 
ATOM     30  O   UNL     1      -5.944   5.444 132.564  0.00  0.00    +0.000 OA
ATOM     31  N   UNL     1      -7.586   4.799 131.153  0.00  0.00    +0.000 N 
ATOM     32  H   UNL     1      -8.001   4.173 130.480  0.00  0.00    +0.000 HD
BRANCH  31  33
ATOM     33  S   UNL     1      -8.310   6.327 131.305  0.00  0.00    +0.000 S 
ATOM     34  O   UNL     1      -8.856   6.431 132.641  0.00  0.00    +0.000 OA
ATOM     35  O   UNL     1      -7.436   7.326 130.735  0.00  0.00    +0.000 OA
BRANCH  33  36
ATOM     36  C   UNL     1      -9.725   6.390 130.315  0.00  0.00    +0.000 A 
ATOM     37  C   UNL     1     -10.132   7.463 129.546  0.00  0.00    +0.000 A 
ATOM     38  N   UNL     1     -11.243   7.050 128.874  0.00  0.00    +0.000 N 
ATOM     39  C   UNL     1     -12.014   7.805 127.913  0.00  0.00    +0.000 C 
ATOM     40  N   UNL     1     -11.616   5.798 129.186  0.00  0.00    +0.000 NA
ATOM     41  C   UNL     1     -10.669   5.366 130.039  0.00  0.00    +0.000 A 
ATOM     42  C   UNL     1     -10.740   3.966 130.537  0.00  0.00    +0.000 C 
ENDBRANCH  33  36
ENDBRANCH  31  33
ENDBRANCH  10  29
TORSDOF 8
ENDMDL
