MODEL 1
REMARK VINA RESULT:      -7.4      0.000      0.000
REMARK  Name = Eliglustat
REMARK  13 active torsions:
REMARK  status: ('A' for Active; 'I' for Inactive)
REMARK    1  A    between atoms: C_1  and  C_2
REMARK    2  A    between atoms: C_2  and  C_3
REMARK    3  A    between atoms: C_3  and  C_4
REMARK    4  A    between atoms: C_4  and  C_5
REMARK    5  A    between atoms: C_5  and  C_6
REMARK    6  A    between atoms: C_6  and  C_7
REMARK    7  A    between atoms: C_7  and  C_8
REMARK    8  A    between atoms: N_10  and  C_11
REMARK    9  A    between atoms: C_11  and  C_12
REMARK   10  A    between atoms: C_11  and  C_18
REMARK   11  A    between atoms: C_12  and  N_13
REMARK   12  A    between atoms: C_18  and  O_19
REMARK   13  A    between atoms: C_18  and  C_20
REMARK                            x       y       z     vdW  Elec       q    Type
REMARK                         _______ _______ _______ _____ _____    ______ ____
ROOT
ATOM      1  C   UNL     1      -7.891   2.068 123.656  0.00  0.00    +0.000 C 
ENDROOT
BRANCH   1   4
ATOM      2  C   UNL     1      -9.765   0.508 123.093  0.00  0.00    +0.000 C 
ATOM      3  O   UNL     1     -10.857   0.377 122.578  0.00  0.00    +0.000 OA
ATOM      4  N   UNL     1      -9.171   1.725 123.085  0.00  0.00    +0.000 N 
ATOM      5  H   UNL     1      -9.734   2.468 122.683  0.00  0.00    +0.000 HD
BRANCH   2   6
ATOM      6  C   UNL     1      -8.995  -0.601 123.775  0.00  0.00    +0.000 C 
BRANCH   6   7
ATOM      7  C   UNL     1      -8.701  -1.700 122.811  0.00  0.00    +0.000 C 
BRANCH   7   8
ATOM      8  C   UNL     1      -9.070  -3.001 123.491  0.00  0.00    +0.000 C 
BRANCH   8   9
ATOM      9  C   UNL     1      -8.049  -3.257 124.566  0.00  0.00    +0.000 C 
BRANCH   9  10
ATOM     10  C   UNL     1      -6.684  -3.446 123.946  0.00  0.00    +0.000 C 
BRANCH  10  12
ATOM     11  C   UNL     1      -5.545  -1.436 124.859  0.00  0.00    +0.000 C 
ATOM     12  C   UNL     1      -5.625  -2.945 124.911  0.00  0.00    +0.000 C 
ENDBRANCH  10  12
ENDBRANCH   9  10
ENDBRANCH   8   9
ENDBRANCH   7   8
ENDBRANCH   6   7
ENDBRANCH   2   6
ENDBRANCH   1   4
BRANCH   1  13
ATOM     13  C   UNL     1      -6.708   2.114 122.561  0.00  0.00    +0.000 C 
BRANCH  13  14
ATOM     14  N   UNL     1      -6.539   3.490 122.123  0.00  0.00    +0.000 NA
ATOM     15  C   UNL     1      -7.289   3.747 120.919  0.00  0.00    +0.000 C 
ATOM     16  C   UNL     1      -6.273   4.022 119.867  0.00  0.00    +0.000 C 
ATOM     17  C   UNL     1      -5.325   4.886 120.649  0.00  0.00    +0.000 C 
ATOM     18  C   UNL     1      -5.263   4.199 122.029  0.00  0.00    +0.000 C 
ENDBRANCH  13  14
ENDBRANCH   1  13
BRANCH   1  19
ATOM     19  C   UNL     1      -7.906   3.135 124.831  0.00  0.00    +0.000 C 
BRANCH  19  20
ATOM     20  C   UNL     1      -6.649   3.190 125.678  0.00  0.00    +0.000 A 
ATOM     21  C   UNL     1      -5.841   2.047 125.846  0.00  0.00    +0.000 A 
ATOM     22  C   UNL     1      -4.559   2.124 126.378  0.00  0.00    +0.000 A 
ATOM     23  C   UNL     1      -4.136   3.319 126.919  0.00  0.00    +0.000 A 
ATOM     24  O   UNL     1      -2.909   3.308 127.523  0.00  0.00    +0.000 OA
ATOM     25  C   UNL     1      -2.803   4.400 128.436  0.00  0.00    +0.000 C 
ATOM     26  C   UNL     1      -3.244   5.693 127.771  0.00  0.00    +0.000 C 
ATOM     27  O   UNL     1      -4.625   5.653 127.407  0.00  0.00    +0.000 OA
ATOM     28  C   UNL     1      -4.961   4.446 126.861  0.00  0.00    +0.000 A 
ATOM     29  C   UNL     1      -6.199   4.388 126.230  0.00  0.00    +0.000 A 
ENDBRANCH  19  20
BRANCH  19  30
ATOM     30  O   UNL     1      -8.298   4.439 124.391  0.00  0.00    +0.000 OA
ATOM     31  H   UNL     1      -9.087   4.351 123.843  0.00  0.00    +0.000 HD
ENDBRANCH  19  30
ENDBRANCH   1  19
TORSDOF 12
ENDMDL
MODEL 2
REMARK VINA RESULT:      -7.3      2.993      4.122
REMARK  Name = Eliglustat
REMARK  13 active torsions:
REMARK  status: ('A' for Active; 'I' for Inactive)
REMARK    1  A    between atoms: C_1  and  C_2
REMARK    2  A    between atoms: C_2  and  C_3
REMARK    3  A    between atoms: C_3  and  C_4
REMARK    4  A    between atoms: C_4  and  C_5
REMARK    5  A    between atoms: C_5  and  C_6
REMARK    6  A    between atoms: C_6  and  C_7
REMARK    7  A    between atoms: C_7  and  C_8
REMARK    8  A    between atoms: N_10  and  C_11
REMARK    9  A    between atoms: C_11  and  C_12
REMARK   10  A    between atoms: C_11  and  C_18
REMARK   11  A    between atoms: C_12  and  N_13
REMARK   12  A    between atoms: C_18  and  O_19
REMARK   13  A    between atoms: C_18  and  C_20
REMARK                            x       y       z     vdW  Elec       q    Type
REMARK                         _______ _______ _______ _____ _____    ______ ____
ROOT
ATOM      1  C   UNL     1      -8.700   1.534 125.159  0.00  0.00    +0.000 C 
ENDROOT
BRANCH   1   4
ATOM      2  C   UNL     1      -9.879   0.375 123.281  0.00  0.00    +0.000 C 
ATOM      3  O   UNL     1     -10.884   0.303 122.602  0.00  0.00    +0.000 OA
ATOM      4  N   UNL     1      -9.803   1.314 124.254  0.00  0.00    +0.000 N 
ATOM      5  H   UNL     1     -10.646   1.865 124.377  0.00  0.00    +0.000 HD
BRANCH   2   6
ATOM      6  C   UNL     1      -8.676  -0.532 123.137  0.00  0.00    +0.000 C 
BRANCH   6   7
ATOM      7  C   UNL     1      -8.960  -1.873 123.722  0.00  0.00    +0.000 C 
BRANCH   7   8
ATOM      8  C   UNL     1      -7.724  -2.721 123.517  0.00  0.00    +0.000 C 
BRANCH   8   9
ATOM      9  C   UNL     1      -6.681  -1.853 122.866  0.00  0.00    +0.000 C 
BRANCH   9  10
ATOM     10  C   UNL     1      -5.324  -2.509 122.974  0.00  0.00    +0.000 C 
BRANCH  10  12
ATOM     11  C   UNL     1      -4.372  -4.703 123.647  0.00  0.00    +0.000 C 
ATOM     12  C   UNL     1      -5.397  -3.642 123.981  0.00  0.00    +0.000 C 
ENDBRANCH  10  12
ENDBRANCH   9  10
ENDBRANCH   8   9
ENDBRANCH   7   8
ENDBRANCH   6   7
ENDBRANCH   2   6
ENDBRANCH   1   4
BRANCH   1  13
ATOM     13  C   UNL     1      -7.984   2.962 124.938  0.00  0.00    +0.000 C 
BRANCH  13  14
ATOM     14  N   UNL     1      -6.887   2.787 124.000  0.00  0.00    +0.000 NA
ATOM     15  C   UNL     1      -5.690   3.434 124.476  0.00  0.00    +0.000 C 
ATOM     16  C   UNL     1      -5.419   4.532 123.509  0.00  0.00    +0.000 C 
ATOM     17  C   UNL     1      -5.717   3.817 122.221  0.00  0.00    +0.000 C 
ATOM     18  C   UNL     1      -6.970   2.981 122.553  0.00  0.00    +0.000 C 
ENDBRANCH  13  14
ENDBRANCH   1  13
BRANCH   1  19
ATOM     19  C   UNL     1      -8.874   0.970 126.632  0.00  0.00    +0.000 C 
BRANCH  19  20
ATOM     20  C   UNL     1      -7.822  -0.027 127.077  0.00  0.00    +0.000 A 
ATOM     21  C   UNL     1      -6.704  -0.306 126.266  0.00  0.00    +0.000 A 
ATOM     22  C   UNL     1      -5.597  -0.994 126.751  0.00  0.00    +0.000 A 
ATOM     23  C   UNL     1      -5.670  -1.573 128.000  0.00  0.00    +0.000 A 
ATOM     24  O   UNL     1      -4.593  -2.326 128.380  0.00  0.00    +0.000 OA
ATOM     25  C   UNL     1      -4.974  -3.236 129.414  0.00  0.00    +0.000 C 
ATOM     26  C   UNL     1      -5.740  -2.509 130.506  0.00  0.00    +0.000 C 
ATOM     27  O   UNL     1      -6.972  -1.975 130.017  0.00  0.00    +0.000 OA
ATOM     28  C   UNL     1      -6.813  -1.401 128.785  0.00  0.00    +0.000 A 
ATOM     29  C   UNL     1      -7.872  -0.620 128.337  0.00  0.00    +0.000 A 
ENDBRANCH  19  20
BRANCH  19  30
ATOM     30  O   UNL     1      -9.059   2.005 127.604  0.00  0.00    +0.000 OA
ATOM     31  H   UNL     1      -9.278   1.593 128.449  0.00  0.00    +0.000 HD
ENDBRANCH  19  30
ENDBRANCH   1  19
TORSDOF 12
ENDMDL
MODEL 3
REMARK VINA RESULT:      -7.1      2.418      6.265
REMARK  Name = Eliglustat
REMARK  13 active torsions:
REMARK  status: ('A' for Active; 'I' for Inactive)
REMARK    1  A    between atoms: C_1  and  C_2
REMARK    2  A    between atoms: C_2  and  C_3
REMARK    3  A    between atoms: C_3  and  C_4
REMARK    4  A    between atoms: C_4  and  C_5
REMARK    5  A    between atoms: C_5  and  C_6
REMARK    6  A    between atoms: C_6  and  C_7
REMARK    7  A    between atoms: C_7  and  C_8
REMARK    8  A    between atoms: N_10  and  C_11
REMARK    9  A    between atoms: C_11  and  C_12
REMARK   10  A    between atoms: C_11  and  C_18
REMARK   11  A    between atoms: C_12  and  N_13
REMARK   12  A    between atoms: C_18  and  O_19
REMARK   13  A    between atoms: C_18  and  C_20
REMARK                            x       y       z     vdW  Elec       q    Type
REMARK                         _______ _______ _______ _____ _____    ______ ____
ROOT
ATOM      1  C   UNL     1      -8.603   1.067 124.933  0.00  0.00    +0.000 C 
ENDROOT
BRANCH   1   4
ATOM      2  C   UNL     1      -8.318   2.055 127.214  0.00  0.00    +0.000 C 
ATOM      3  O   UNL     1      -8.808   2.237 128.311  0.00  0.00    +0.000 OA
ATOM      4  N   UNL     1      -9.018   1.366 126.283  0.00  0.00    +0.000 N 
ATOM      5  H   UNL     1      -9.954   1.097 126.570  0.00  0.00    +0.000 HD
BRANCH   2   6
ATOM      6  C   UNL     1      -6.958   2.559 126.785  0.00  0.00    +0.000 C 
BRANCH   6   7
ATOM      7  C   UNL     1      -5.885   1.650 127.280  0.00  0.00    +0.000 C 
BRANCH   7   8
ATOM      8  C   UNL     1      -4.789   1.642 126.237  0.00  0.00    +0.000 C 
BRANCH   8   9
ATOM      9  C   UNL     1      -4.219   3.033 126.166  0.00  0.00    +0.000 C 
BRANCH   9  10
ATOM     10  C   UNL     1      -2.774   3.021 126.608  0.00  0.00    +0.000 C 
BRANCH  10  12
ATOM     11  C   UNL     1      -3.718   5.065 127.660  0.00  0.00    +0.000 C 
ATOM     12  C   UNL     1      -2.572   4.078 127.679  0.00  0.00    +0.000 C 
ENDBRANCH  10  12
ENDBRANCH   9  10
ENDBRANCH   8   9
ENDBRANCH   7   8
ENDBRANCH   6   7
ENDBRANCH   2   6
ENDBRANCH   1   4
BRANCH   1  13
ATOM     13  C   UNL     1      -8.351  -0.507 124.689  0.00  0.00    +0.000 C 
BRANCH  13  14
ATOM     14  N   UNL     1      -6.933  -0.715 124.441  0.00  0.00    +0.000 NA
ATOM     15  C   UNL     1      -6.661  -0.803 123.028  0.00  0.00    +0.000 C 
ATOM     16  C   UNL     1      -6.192  -2.197 122.800  0.00  0.00    +0.000 C 
ATOM     17  C   UNL     1      -5.297  -2.363 123.995  0.00  0.00    +0.000 C 
ATOM     18  C   UNL     1      -6.084  -1.683 125.134  0.00  0.00    +0.000 C 
ENDBRANCH  13  14
ENDBRANCH   1  13
BRANCH   1  19
ATOM     19  C   UNL     1      -9.264   1.937 123.782  0.00  0.00    +0.000 C 
BRANCH  19  20
ATOM     20  C   UNL     1      -8.293   2.711 122.912  0.00  0.00    +0.000 A 
ATOM     21  C   UNL     1      -6.947   2.871 123.296  0.00  0.00    +0.000 A 
ATOM     22  C   UNL     1      -5.978   3.329 122.411  0.00  0.00    +0.000 A 
ATOM     23  C   UNL     1      -6.376   3.808 121.181  0.00  0.00    +0.000 A 
ATOM     24  O   UNL     1      -5.394   4.344 120.395  0.00  0.00    +0.000 OA
ATOM     25  C   UNL     1      -5.968   5.215 119.420  0.00  0.00    +0.000 C 
ATOM     26  C   UNL     1      -7.132   4.535 118.720  0.00  0.00    +0.000 C 
ATOM     27  O   UNL     1      -8.198   4.249 119.628  0.00  0.00    +0.000 OA
ATOM     28  C   UNL     1      -7.724   3.760 120.814  0.00  0.00    +0.000 A 
ATOM     29  C   UNL     1      -8.672   3.200 121.662  0.00  0.00    +0.000 A 
ENDBRANCH  19  20
BRANCH  19  30
ATOM     30  O   UNL     1     -10.198   1.194 122.993  0.00  0.00    +0.000 OA
ATOM     31  H   UNL     1     -10.620   0.537 123.559  0.00  0.00    +0.000 HD
ENDBRANCH  19  30
ENDBRANCH   1  19
TORSDOF 12
ENDMDL
MODEL 4
REMARK VINA RESULT:      -7.1      5.709      7.916
REMARK  Name = Eliglustat
REMARK  13 active torsions:
REMARK  status: ('A' for Active; 'I' for Inactive)
REMARK    1  A    between atoms: C_1  and  C_2
REMARK    2  A    between atoms: C_2  and  C_3
REMARK    3  A    between atoms: C_3  and  C_4
REMARK    4  A    between atoms: C_4  and  C_5
REMARK    5  A    between atoms: C_5  and  C_6
REMARK    6  A    between atoms: C_6  and  C_7
REMARK    7  A    between atoms: C_7  and  C_8
REMARK    8  A    between atoms: N_10  and  C_11
REMARK    9  A    between atoms: C_11  and  C_12
REMARK   10  A    between atoms: C_11  and  C_18
REMARK   11  A    between atoms: C_12  and  N_13
REMARK   12  A    between atoms: C_18  and  O_19
REMARK   13  A    between atoms: C_18  and  C_20
REMARK                            x       y       z     vdW  Elec       q    Type
REMARK                         _______ _______ _______ _____ _____    ______ ____
ROOT
ATOM      1  C   UNL     1      -9.868   5.020 130.922  0.00  0.00    +0.000 C 
ENDROOT
BRANCH   1   4
ATOM      2  C   UNL     1      -8.838   3.124 129.654  0.00  0.00    +0.000 C 
ATOM      3  O   UNL     1      -8.777   1.921 129.498  0.00  0.00    +0.000 OA
ATOM      4  N   UNL     1      -9.676   3.628 130.591  0.00  0.00    +0.000 N 
ATOM      5  H   UNL     1     -10.160   2.929 131.146  0.00  0.00    +0.000 HD
BRANCH   2   6
ATOM      6  C   UNL     1      -8.025   4.136 128.877  0.00  0.00    +0.000 C 
BRANCH   6   7
ATOM      7  C   UNL     1      -6.568   3.869 129.037  0.00  0.00    +0.000 C 
BRANCH   7   8
ATOM      8  C   UNL     1      -5.997   3.657 127.652  0.00  0.00    +0.000 C 
BRANCH   8   9
ATOM      9  C   UNL     1      -4.906   4.674 127.451  0.00  0.00    +0.000 C 
BRANCH   9  10
ATOM     10  C   UNL     1      -3.834   4.108 126.549  0.00  0.00    +0.000 C 
BRANCH  10  12
ATOM     11  C   UNL     1      -1.610   3.003 126.631  0.00  0.00    +0.000 C 
ATOM     12  C   UNL     1      -2.914   3.219 127.366  0.00  0.00    +0.000 C 
ENDBRANCH  10  12
ENDBRANCH   9  10
ENDBRANCH   8   9
ENDBRANCH   7   8
ENDBRANCH   6   7
ENDBRANCH   2   6
ENDBRANCH   1   4
BRANCH   1  13
ATOM     13  C   UNL     1     -11.292   5.591 130.424  0.00  0.00    +0.000 C 
BRANCH  13  14
ATOM     14  N   UNL     1     -11.135   7.000 130.101  0.00  0.00    +0.000 NA
ATOM     15  C   UNL     1     -12.394   7.697 130.195  0.00  0.00    +0.000 C 
ATOM     16  C   UNL     1     -12.713   8.132 128.809  0.00  0.00    +0.000 C 
ATOM     17  C   UNL     1     -11.354   8.594 128.367  0.00  0.00    +0.000 C 
ATOM     18  C   UNL     1     -10.402   7.530 128.951  0.00  0.00    +0.000 C 
ENDBRANCH  13  14
ENDBRANCH   1  13
BRANCH   1  19
ATOM     19  C   UNL     1      -9.281   5.501 132.316  0.00  0.00    +0.000 C 
BRANCH  19  20
ATOM     20  C   UNL     1      -7.831   5.946 132.293  0.00  0.00    +0.000 A 
ATOM     21  C   UNL     1      -6.923   5.497 133.273  0.00  0.00    +0.000 A 
ATOM     22  C   UNL     1      -5.550   5.658 133.132  0.00  0.00    +0.000 A 
ATOM     23  C   UNL     1      -5.075   6.435 132.096  0.00  0.00    +0.000 A 
ATOM     24  O   UNL     1      -3.725   6.646 132.069  0.00  0.00    +0.000 OA
ATOM     25  C   UNL     1      -3.427   7.810 131.296  0.00  0.00    +0.000 C 
ATOM     26  C   UNL     1      -4.155   7.762 129.963  0.00  0.00    +0.000 C 
ATOM     27  O   UNL     1      -5.573   7.791 130.137  0.00  0.00    +0.000 OA
ATOM     28  C   UNL     1      -5.965   6.983 131.167  0.00  0.00    +0.000 A 
ATOM     29  C   UNL     1      -7.329   6.726 131.253  0.00  0.00    +0.000 A 
ENDBRANCH  19  20
BRANCH  19  30
ATOM     30  O   UNL     1     -10.115   6.467 132.965  0.00  0.00    +0.000 OA
ATOM     31  H   UNL     1     -10.406   6.100 133.808  0.00  0.00    +0.000 HD
ENDBRANCH  19  30
ENDBRANCH   1  19
TORSDOF 12
ENDMDL
MODEL 5
REMARK VINA RESULT:      -6.9      6.942     10.358
REMARK  Name = Eliglustat
REMARK  13 active torsions:
REMARK  status: ('A' for Active; 'I' for Inactive)
REMARK    1  A    between atoms: C_1  and  C_2
REMARK    2  A    between atoms: C_2  and  C_3
REMARK    3  A    between atoms: C_3  and  C_4
REMARK    4  A    between atoms: C_4  and  C_5
REMARK    5  A    between atoms: C_5  and  C_6
REMARK    6  A    between atoms: C_6  and  C_7
REMARK    7  A    between atoms: C_7  and  C_8
REMARK    8  A    between atoms: N_10  and  C_11
REMARK    9  A    between atoms: C_11  and  C_12
REMARK   10  A    between atoms: C_11  and  C_18
REMARK   11  A    between atoms: C_12  and  N_13
REMARK   12  A    between atoms: C_18  and  O_19
REMARK   13  A    between atoms: C_18  and  C_20
REMARK                            x       y       z     vdW  Elec       q    Type
REMARK                         _______ _______ _______ _____ _____    ______ ____
ROOT
ATOM      1  C   UNL     1      -7.197   5.202 132.269  0.00  0.00    +0.000 C 
ENDROOT
BRANCH   1   4
ATOM      2  C   UNL     1      -4.868   5.908 132.851  0.00  0.00    +0.000 C 
ATOM      3  O   UNL     1      -3.949   5.825 133.641  0.00  0.00    +0.000 OA
ATOM      4  N   UNL     1      -6.006   5.214 133.086  0.00  0.00    +0.000 N 
ATOM      5  H   UNL     1      -6.020   4.707 133.965  0.00  0.00    +0.000 HD
BRANCH   2   6
ATOM      6  C   UNL     1      -4.852   6.755 131.598  0.00  0.00    +0.000 C 
BRANCH   6   7
ATOM      7  C   UNL     1      -3.569   7.506 131.492  0.00  0.00    +0.000 C 
BRANCH   7   8
ATOM      8  C   UNL     1      -2.700   6.769 130.495  0.00  0.00    +0.000 C 
BRANCH   8   9
ATOM      9  C   UNL     1      -3.315   6.952 129.134  0.00  0.00    +0.000 C 
BRANCH   9  10
ATOM     10  C   UNL     1      -2.559   6.135 128.113  0.00  0.00    +0.000 C 
BRANCH  10  12
ATOM     11  C   UNL     1      -2.380   3.803 127.275  0.00  0.00    +0.000 C 
ATOM     12  C   UNL     1      -2.643   4.667 128.488  0.00  0.00    +0.000 C 
ENDBRANCH  10  12
ENDBRANCH   9  10
ENDBRANCH   8   9
ENDBRANCH   7   8
ENDBRANCH   6   7
ENDBRANCH   2   6
ENDBRANCH   1   4
BRANCH   1  13
ATOM     13  C   UNL     1      -7.381   3.826 131.450  0.00  0.00    +0.000 C 
BRANCH  13  14
ATOM     14  N   UNL     1      -8.405   3.030 132.109  0.00  0.00    +0.000 NA
ATOM     15  C   UNL     1      -7.817   1.954 132.867  0.00  0.00    +0.000 C 
ATOM     16  C   UNL     1      -8.265   0.704 132.196  0.00  0.00    +0.000 C 
ATOM     17  C   UNL     1      -9.700   1.060 131.926  0.00  0.00    +0.000 C 
ATOM     18  C   UNL     1      -9.628   2.535 131.480  0.00  0.00    +0.000 C 
ENDBRANCH  13  14
ENDBRANCH   1  13
BRANCH   1  19
ATOM     19  C   UNL     1      -8.474   5.925 132.873  0.00  0.00    +0.000 C 
BRANCH  19  20
ATOM     20  C   UNL     1      -9.549   6.296 131.870  0.00  0.00    +0.000 A 
ATOM     21  C   UNL     1     -10.914   6.191 132.203  0.00  0.00    +0.000 A 
ATOM     22  C   UNL     1     -11.908   6.771 131.423  0.00  0.00    +0.000 A 
ATOM     23  C   UNL     1     -11.564   7.306 130.199  0.00  0.00    +0.000 A 
ATOM     24  O   UNL     1     -12.597   7.765 129.429  0.00  0.00    +0.000 OA
ATOM     25  C   UNL     1     -12.196   7.825 128.059  0.00  0.00    +0.000 C 
ATOM     26  C   UNL     1     -10.857   8.530 127.928  0.00  0.00    +0.000 C 
ATOM     27  O   UNL     1      -9.814   7.806 128.582  0.00  0.00    +0.000 OA
ATOM     28  C   UNL     1     -10.226   7.326 129.795  0.00  0.00    +0.000 A 
ATOM     29  C   UNL     1      -9.224   6.843 130.629  0.00  0.00    +0.000 A 
ENDBRANCH  19  20
BRANCH  19  30
ATOM     30  O   UNL     1      -9.024   5.231 133.998  0.00  0.00    +0.000 OA
ATOM     31  H   UNL     1      -8.807   5.727 134.797  0.00  0.00    +0.000 HD
ENDBRANCH  19  30
ENDBRANCH   1  19
TORSDOF 12
ENDMDL
MODEL 6
REMARK VINA RESULT:      -6.8      3.583      6.173
REMARK  Name = Eliglustat
REMARK  13 active torsions:
REMARK  status: ('A' for Active; 'I' for Inactive)
REMARK    1  A    between atoms: C_1  and  C_2
REMARK    2  A    between atoms: C_2  and  C_3
REMARK    3  A    between atoms: C_3  and  C_4
REMARK    4  A    between atoms: C_4  and  C_5
REMARK    5  A    between atoms: C_5  and  C_6
REMARK    6  A    between atoms: C_6  and  C_7
REMARK    7  A    between atoms: C_7  and  C_8
REMARK    8  A    between atoms: N_10  and  C_11
REMARK    9  A    between atoms: C_11  and  C_12
REMARK   10  A    between atoms: C_11  and  C_18
REMARK   11  A    between atoms: C_12  and  N_13
REMARK   12  A    between atoms: C_18  and  O_19
REMARK   13  A    between atoms: C_18  and  C_20
REMARK                            x       y       z     vdW  Elec       q    Type
REMARK                         _______ _______ _______ _____ _____    ______ ____
ROOT
ATOM      1  C   UNL     1      -8.204  -2.283 124.554  0.00  0.00    +0.000 C 
ENDROOT
BRANCH   1   4
ATOM      2  C   UNL     1      -5.733  -2.082 124.218  0.00  0.00    +0.000 C 
ATOM      3  O   UNL     1      -4.701  -2.642 123.906  0.00  0.00    +0.000 OA
ATOM      4  N   UNL     1      -6.895  -2.778 124.203  0.00  0.00    +0.000 N 
ATOM      5  H   UNL     1      -6.796  -3.763 123.980  0.00  0.00    +0.000 HD
BRANCH   2   6
ATOM      6  C   UNL     1      -5.831  -0.634 124.645  0.00  0.00    +0.000 C 
BRANCH   6   7
ATOM      7  C   UNL     1      -5.177  -0.435 125.969  0.00  0.00    +0.000 C 
BRANCH   7   8
ATOM      8  C   UNL     1      -5.007   1.056 126.165  0.00  0.00    +0.000 C 
BRANCH   8   9
ATOM      9  C   UNL     1      -6.077   1.744 125.360  0.00  0.00    +0.000 C 
BRANCH   9  10
ATOM     10  C   UNL     1      -5.664   3.167 125.064  0.00  0.00    +0.000 C 
BRANCH  10  12
ATOM     11  C   UNL     1      -5.452   4.234 122.830  0.00  0.00    +0.000 C 
ATOM     12  C   UNL     1      -6.418   3.660 123.842  0.00  0.00    +0.000 C 
ENDBRANCH  10  12
ENDBRANCH   9  10
ENDBRANCH   8   9
ENDBRANCH   7   8
ENDBRANCH   6   7
ENDBRANCH   2   6
ENDBRANCH   1   4
BRANCH   1  13
ATOM     13  C   UNL     1      -9.020  -1.714 123.283  0.00  0.00    +0.000 C 
BRANCH  13  14
ATOM     14  N   UNL     1      -9.774  -0.545 123.705  0.00  0.00    +0.000 NA
ATOM     15  C   UNL     1     -10.164   0.257 122.573  0.00  0.00    +0.000 C 
ATOM     16  C   UNL     1      -9.429   1.542 122.722  0.00  0.00    +0.000 C 
ATOM     17  C   UNL     1      -9.598   1.762 124.199  0.00  0.00    +0.000 C 
ATOM     18  C   UNL     1      -9.404   0.353 124.799  0.00  0.00    +0.000 C 
ENDBRANCH  13  14
ENDBRANCH   1  13
BRANCH   1  19
ATOM     19  C   UNL     1      -8.982  -3.081 125.683  0.00  0.00    +0.000 C 
BRANCH  19  20
ATOM     20  C   UNL     1      -8.562  -2.772 127.107  0.00  0.00    +0.000 A 
ATOM     21  C   UNL     1      -8.577  -3.773 128.098  0.00  0.00    +0.000 A 
ATOM     22  C   UNL     1      -7.950  -3.602 129.327  0.00  0.00    +0.000 A 
ATOM     23  C   UNL     1      -7.455  -2.357 129.652  0.00  0.00    +0.000 A 
ATOM     24  O   UNL     1      -6.945  -2.219 130.914  0.00  0.00    +0.000 OA
ATOM     25  C   UNL     1      -6.931  -0.841 131.288  0.00  0.00    +0.000 C 
ATOM     26  C   UNL     1      -6.310   0.002 130.187  0.00  0.00    +0.000 C 
ATOM     27  O   UNL     1      -7.087  -0.043 128.988  0.00  0.00    +0.000 OA
ATOM     28  C   UNL     1      -7.523  -1.313 128.725  0.00  0.00    +0.000 A 
ATOM     29  C   UNL     1      -8.054  -1.522 127.457  0.00  0.00    +0.000 A 
ENDBRANCH  19  20
BRANCH  19  30
ATOM     30  O   UNL     1     -10.404  -3.015 125.531  0.00  0.00    +0.000 OA
ATOM     31  H   UNL     1     -10.638  -2.121 125.254  0.00  0.00    +0.000 HD
ENDBRANCH  19  30
ENDBRANCH   1  19
TORSDOF 12
ENDMDL
MODEL 7
REMARK VINA RESULT:      -6.7      7.085      8.103
REMARK  Name = Eliglustat
REMARK  13 active torsions:
REMARK  status: ('A' for Active; 'I' for Inactive)
REMARK    1  A    between atoms: C_1  and  C_2
REMARK    2  A    between atoms: C_2  and  C_3
REMARK    3  A    between atoms: C_3  and  C_4
REMARK    4  A    between atoms: C_4  and  C_5
REMARK    5  A    between atoms: C_5  and  C_6
REMARK    6  A    between atoms: C_6  and  C_7
REMARK    7  A    between atoms: C_7  and  C_8
REMARK    8  A    between atoms: N_10  and  C_11
REMARK    9  A    between atoms: C_11  and  C_12
REMARK   10  A    between atoms: C_11  and  C_18
REMARK   11  A    between atoms: C_12  and  N_13
REMARK   12  A    between atoms: C_18  and  O_19
REMARK   13  A    between atoms: C_18  and  C_20
REMARK                            x       y       z     vdW  Elec       q    Type
REMARK                         _______ _______ _______ _____ _____    ______ ____
ROOT
ATOM      1  C   UNL     1     -10.017   5.657 130.771  0.00  0.00    +0.000 C 
ENDROOT
BRANCH   1   4
ATOM      2  C   UNL     1      -9.688   3.310 129.968  0.00  0.00    +0.000 C 
ATOM      3  O   UNL     1      -9.225   2.585 129.111  0.00  0.00    +0.000 OA
ATOM      4  N   UNL     1      -9.526   4.650 129.861  0.00  0.00    +0.000 N 
ATOM      5  H   UNL     1      -9.063   4.954 129.010  0.00  0.00    +0.000 HD
BRANCH   2   6
ATOM      6  C   UNL     1     -10.464   2.830 131.175  0.00  0.00    +0.000 C 
BRANCH   6   7
ATOM      7  C   UNL     1      -9.538   2.284 132.208  0.00  0.00    +0.000 C 
BRANCH   7   8
ATOM      8  C   UNL     1      -9.349   0.813 131.907  0.00  0.00    +0.000 C 
BRANCH   8   9
ATOM      9  C   UNL     1      -7.929   0.457 132.255  0.00  0.00    +0.000 C 
BRANCH   9  10
ATOM     10  C   UNL     1      -7.141   1.712 132.549  0.00  0.00    +0.000 C 
BRANCH  10  12
ATOM     11  C   UNL     1      -6.059   2.937 130.678  0.00  0.00    +0.000 C 
ATOM     12  C   UNL     1      -5.934   1.768 131.630  0.00  0.00    +0.000 C 
ENDBRANCH  10  12
ENDBRANCH   9  10
ENDBRANCH   8   9
ENDBRANCH   7   8
ENDBRANCH   6   7
ENDBRANCH   2   6
ENDBRANCH   1   4
BRANCH   1  13
ATOM     13  C   UNL     1     -11.606   5.899 130.641  0.00  0.00    +0.000 C 
BRANCH  13  14
ATOM     14  N   UNL     1     -11.826   7.162 129.955  0.00  0.00    +0.000 NA
ATOM     15  C   UNL     1     -13.004   7.104 129.126  0.00  0.00    +0.000 C 
ATOM     16  C   UNL     1     -12.513   7.230 127.727  0.00  0.00    +0.000 C 
ATOM     17  C   UNL     1     -11.484   8.308 127.914  0.00  0.00    +0.000 C 
ATOM     18  C   UNL     1     -10.803   7.930 129.246  0.00  0.00    +0.000 C 
ENDBRANCH  13  14
ENDBRANCH   1  13
BRANCH   1  19
ATOM     19  C   UNL     1      -9.337   5.704 132.205  0.00  0.00    +0.000 C 
BRANCH  19  20
ATOM     20  C   UNL     1      -7.866   6.070 132.217  0.00  0.00    +0.000 A 
ATOM     21  C   UNL     1      -7.006   5.571 133.215  0.00  0.00    +0.000 A 
ATOM     22  C   UNL     1      -5.623   5.659 133.106  0.00  0.00    +0.000 A 
ATOM     23  C   UNL     1      -5.084   6.412 132.085  0.00  0.00    +0.000 A 
ATOM     24  O   UNL     1      -3.724   6.551 132.089  0.00  0.00    +0.000 OA
ATOM     25  C   UNL     1      -3.347   7.699 131.328  0.00  0.00    +0.000 C 
ATOM     26  C   UNL     1      -4.046   7.695 129.979  0.00  0.00    +0.000 C 
ATOM     27  O   UNL     1      -5.464   7.799 130.120  0.00  0.00    +0.000 OA
ATOM     28  C   UNL     1      -5.922   7.009 131.138  0.00  0.00    +0.000 A 
ATOM     29  C   UNL     1      -7.299   6.826 131.192  0.00  0.00    +0.000 A 
ENDBRANCH  19  20
BRANCH  19  30
ATOM     30  O   UNL     1     -10.080   6.486 133.145  0.00  0.00    +0.000 OA
ATOM     31  H   UNL     1     -10.194   5.967 133.950  0.00  0.00    +0.000 HD
ENDBRANCH  19  30
ENDBRANCH   1  19
TORSDOF 12
ENDMDL
MODEL 8
REMARK VINA RESULT:      -6.7      3.681      5.655
REMARK  Name = Eliglustat
REMARK  13 active torsions:
REMARK  status: ('A' for Active; 'I' for Inactive)
REMARK    1  A    between atoms: C_1  and  C_2
REMARK    2  A    between atoms: C_2  and  C_3
REMARK    3  A    between atoms: C_3  and  C_4
REMARK    4  A    between atoms: C_4  and  C_5
REMARK    5  A    between atoms: C_5  and  C_6
REMARK    6  A    between atoms: C_6  and  C_7
REMARK    7  A    between atoms: C_7  and  C_8
REMARK    8  A    between atoms: N_10  and  C_11
REMARK    9  A    between atoms: C_11  and  C_12
REMARK   10  A    between atoms: C_11  and  C_18
REMARK   11  A    between atoms: C_12  and  N_13
REMARK   12  A    between atoms: C_18  and  O_19
REMARK   13  A    between atoms: C_18  and  C_20
REMARK                            x       y       z     vdW  Elec       q    Type
REMARK                         _______ _______ _______ _____ _____    ______ ____
ROOT
ATOM      1  C   UNL     1      -8.400  -0.087 126.427  0.00  0.00    +0.000 C 
ENDROOT
BRANCH   1   4
ATOM      2  C   UNL     1      -9.672   0.803 124.464  0.00  0.00    +0.000 C 
ATOM      3  O   UNL     1     -10.751   1.138 124.020  0.00  0.00    +0.000 OA
ATOM      4  N   UNL     1      -9.589   0.362 125.741  0.00  0.00    +0.000 N 
ATOM      5  H   UNL     1     -10.479   0.292 126.224  0.00  0.00    +0.000 HD
BRANCH   2   6
ATOM      6  C   UNL     1      -8.376   0.825 123.683  0.00  0.00    +0.000 C 
BRANCH   6   7
ATOM      7  C   UNL     1      -8.095  -0.518 123.100  0.00  0.00    +0.000 C 
BRANCH   7   8
ATOM      8  C   UNL     1      -6.602  -0.744 123.196  0.00  0.00    +0.000 C 
BRANCH   8   9
ATOM      9  C   UNL     1      -6.320  -2.134 122.693  0.00  0.00    +0.000 C 
BRANCH   9  10
ATOM     10  C   UNL     1      -6.311  -3.108 123.848  0.00  0.00    +0.000 C 
BRANCH  10  12
ATOM     11  C   UNL     1      -4.393  -4.652 123.520  0.00  0.00    +0.000 C 
ATOM     12  C   UNL     1      -4.875  -3.409 124.235  0.00  0.00    +0.000 C 
ENDBRANCH  10  12
ENDBRANCH   9  10
ENDBRANCH   8   9
ENDBRANCH   7   8
ENDBRANCH   6   7
ENDBRANCH   2   6
ENDBRANCH   1   4
BRANCH   1  13
ATOM     13  C   UNL     1      -8.053   0.802 127.726  0.00  0.00    +0.000 C 
BRANCH  13  14
ATOM     14  N   UNL     1      -6.893   1.626 127.425  0.00  0.00    +0.000 NA
ATOM     15  C   UNL     1      -7.261   3.015 127.303  0.00  0.00    +0.000 C 
ATOM     16  C   UNL     1      -7.012   3.369 125.880  0.00  0.00    +0.000 C 
ATOM     17  C   UNL     1      -5.700   2.668 125.668  0.00  0.00    +0.000 C 
ATOM     18  C   UNL     1      -5.883   1.328 126.410  0.00  0.00    +0.000 C 
ENDBRANCH  13  14
ENDBRANCH   1  13
BRANCH   1  19
ATOM     19  C   UNL     1      -8.161  -1.655 126.470  0.00  0.00    +0.000 C 
BRANCH  19  20
ATOM     20  C   UNL     1      -7.422  -2.168 127.691  0.00  0.00    +0.000 A 
ATOM     21  C   UNL     1      -8.119  -2.771 128.756  0.00  0.00    +0.000 A 
ATOM     22  C   UNL     1      -7.465  -3.489 129.751  0.00  0.00    +0.000 A 
ATOM     23  C   UNL     1      -6.087  -3.458 129.795  0.00  0.00    +0.000 A 
ATOM     24  O   UNL     1      -5.502  -4.093 130.855  0.00  0.00    +0.000 OA
ATOM     25  C   UNL     1      -4.180  -3.591 131.057  0.00  0.00    +0.000 C 
ATOM     26  C   UNL     1      -3.414  -3.570 129.745  0.00  0.00    +0.000 C 
ATOM     27  O   UNL     1      -4.007  -2.672 128.805  0.00  0.00    +0.000 OA
ATOM     28  C   UNL     1      -5.370  -2.776 128.807  0.00  0.00    +0.000 A 
ATOM     29  C   UNL     1      -6.029  -2.152 127.754  0.00  0.00    +0.000 A 
ENDBRANCH  19  20
BRANCH  19  30
ATOM     30  O   UNL     1      -9.356  -2.405 126.228  0.00  0.00    +0.000 OA
ATOM     31  H   UNL     1      -9.295  -3.239 126.710  0.00  0.00    +0.000 HD
ENDBRANCH  19  30
ENDBRANCH   1  19
TORSDOF 12
ENDMDL
MODEL 9
REMARK VINA RESULT:      -6.6      1.944      2.302
REMARK  Name = Eliglustat
REMARK  13 active torsions:
REMARK  status: ('A' for Active; 'I' for Inactive)
REMARK    1  A    between atoms: C_1  and  C_2
REMARK    2  A    between atoms: C_2  and  C_3
REMARK    3  A    between atoms: C_3  and  C_4
REMARK    4  A    between atoms: C_4  and  C_5
REMARK    5  A    between atoms: C_5  and  C_6
REMARK    6  A    between atoms: C_6  and  C_7
REMARK    7  A    between atoms: C_7  and  C_8
REMARK    8  A    between atoms: N_10  and  C_11
REMARK    9  A    between atoms: C_11  and  C_12
REMARK   10  A    between atoms: C_11  and  C_18
REMARK   11  A    between atoms: C_12  and  N_13
REMARK   12  A    between atoms: C_18  and  O_19
REMARK   13  A    between atoms: C_18  and  C_20
REMARK                            x       y       z     vdW  Elec       q    Type
REMARK                         _______ _______ _______ _____ _____    ______ ____
ROOT
ATOM      1  C   UNL     1      -7.979   2.687 124.803  0.00  0.00    +0.000 C 
ENDROOT
BRANCH   1   4
ATOM      2  C   UNL     1     -10.067   1.333 124.548  0.00  0.00    +0.000 C 
ATOM      3  O   UNL     1     -11.111   1.179 123.946  0.00  0.00    +0.000 OA
ATOM      4  N   UNL     1      -9.243   2.348 124.195  0.00  0.00    +0.000 N 
ATOM      5  H   UNL     1      -9.606   2.954 123.467  0.00  0.00    +0.000 HD
BRANCH   2   6
ATOM      6  C   UNL     1      -9.602   0.469 125.700  0.00  0.00    +0.000 C 
BRANCH   6   7
ATOM      7  C   UNL     1      -8.708  -0.618 125.208  0.00  0.00    +0.000 C 
BRANCH   7   8
ATOM      8  C   UNL     1      -7.539  -0.703 126.165  0.00  0.00    +0.000 C 
BRANCH   8   9
ATOM      9  C   UNL     1      -8.047  -1.298 127.451  0.00  0.00    +0.000 C 
BRANCH   9  10
ATOM     10  C   UNL     1      -7.200  -2.488 127.837  0.00  0.00    +0.000 C 
BRANCH  10  12
ATOM     11  C   UNL     1      -9.045  -4.145 127.990  0.00  0.00    +0.000 C 
ATOM     12  C   UNL     1      -7.995  -3.384 128.769  0.00  0.00    +0.000 C 
ENDBRANCH  10  12
ENDBRANCH   9  10
ENDBRANCH   8   9
ENDBRANCH   7   8
ENDBRANCH   6   7
ENDBRANCH   2   6
ENDBRANCH   1   4
BRANCH   1  13
ATOM     13  C   UNL     1      -6.720   2.381 123.842  0.00  0.00    +0.000 C 
BRANCH  13  14
ATOM     14  N   UNL     1      -6.468   3.556 123.023  0.00  0.00    +0.000 NA
ATOM     15  C   UNL     1      -6.847   3.324 121.652  0.00  0.00    +0.000 C 
ATOM     16  C   UNL     1      -5.579   3.371 120.875  0.00  0.00    +0.000 C 
ATOM     17  C   UNL     1      -4.919   4.548 121.536  0.00  0.00    +0.000 C 
ATOM     18  C   UNL     1      -5.239   4.348 123.032  0.00  0.00    +0.000 C 
ENDBRANCH  13  14
ENDBRANCH   1  13
BRANCH   1  19
ATOM     19  C   UNL     1      -7.961   3.983 125.719  0.00  0.00    +0.000 C 
BRANCH  19  20
ATOM     20  C   UNL     1      -6.890   4.008 126.792  0.00  0.00    +0.000 A 
ATOM     21  C   UNL     1      -6.956   3.139 127.899  0.00  0.00    +0.000 A 
ATOM     22  C   UNL     1      -5.872   2.942 128.746  0.00  0.00    +0.000 A 
ATOM     23  C   UNL     1      -4.764   3.752 128.606  0.00  0.00    +0.000 A 
ATOM     24  O   UNL     1      -3.773   3.586 129.533  0.00  0.00    +0.000 OA
ATOM     25  C   UNL     1      -2.955   4.755 129.588  0.00  0.00    +0.000 C 
ATOM     26  C   UNL     1      -2.540   5.180 128.190  0.00  0.00    +0.000 C 
ATOM     27  O   UNL     1      -3.669   5.561 127.400  0.00  0.00    +0.000 OA
ATOM     28  C   UNL     1      -4.716   4.699 127.579  0.00  0.00    +0.000 A 
ATOM     29  C   UNL     1      -5.760   4.815 126.668  0.00  0.00    +0.000 A 
ENDBRANCH  19  20
BRANCH  19  30
ATOM     30  O   UNL     1      -7.972   5.198 124.961  0.00  0.00    +0.000 OA
ATOM     31  H   UNL     1      -7.059   5.465 124.802  0.00  0.00    +0.000 HD
ENDBRANCH  19  30
ENDBRANCH   1  19
TORSDOF 12
ENDMDL
