MODEL 1
REMARK VINA RESULT:     -10.2      0.000      0.000
REMARK  Name = Eltrombopag
REMARK  10 active torsions:
REMARK  status: ('A' for Active; 'I' for Inactive)
REMARK    1  A    between atoms: C_1  and  C_2
REMARK    2  A    between atoms: N_4  and  C_26
REMARK    3  A    between atoms: N_8  and  N_9
REMARK    4  A    between atoms: N_9  and  C_10
REMARK    5  A    between atoms: C_14  and  C_15
REMARK    6  A    between atoms: C_19  and  C_21
REMARK    7  A    between atoms: C_21  and  O_22
REMARK    8  A    between atoms: C_24  and  O_25
REMARK    9  A    between atoms: C_29  and  C_30
REMARK   10  A    between atoms: C_31  and  C_32
REMARK                            x       y       z     vdW  Elec       q    Type
REMARK                         _______ _______ _______ _____ _____    ______ ____
ROOT
ATOM      1  N   UNL     1      -7.078  -0.663 126.105  0.00  0.00    +0.000 N 
ATOM      2  H   UNL     1      -6.793  -0.905 125.151  0.00  0.00    +0.000 HD
ENDROOT
BRANCH   1  10
ATOM      3  C   UNL     1      -7.304   3.557 127.337  0.00  0.00    +0.000 C 
ATOM      4  C   UNL     1      -7.170   3.021 125.958  0.00  0.00    +0.000 C 
ATOM      5  N   UNL     1      -7.010   3.718 124.867  0.00  0.00    +0.000 NA
ATOM      6  N   UNL     1      -6.946   2.803 123.806  0.00  0.00    +0.000 N 
ATOM      7  C   UNL     1      -7.048   1.472 124.163  0.00  0.00    +0.000 C 
ATOM      8  O   UNL     1      -6.999   0.435 123.525  0.00  0.00    +0.000 OA
ATOM      9  C   UNL     1      -7.164   1.558 125.652  0.00  0.00    +0.000 C 
ATOM     10  N   UNL     1      -7.190   0.621 126.545  0.00  0.00    +0.000 NA
BRANCH   6  11
ATOM     11  C   UNL     1      -6.903   3.300 122.494  0.00  0.00    +0.000 A 
ATOM     12  C   UNL     1      -5.696   3.730 121.945  0.00  0.00    +0.000 A 
ATOM     13  C   UNL     1      -5.662   4.262 120.653  0.00  0.00    +0.000 A 
ATOM     14  C   UNL     1      -6.824   4.333 119.872  0.00  0.00    +0.000 A 
ATOM     15  C   UNL     1      -6.728   4.781 118.439  0.00  0.00    +0.000 C 
ATOM     16  C   UNL     1      -8.051   3.930 120.432  0.00  0.00    +0.000 A 
ATOM     17  C   UNL     1      -9.357   4.100 119.705  0.00  0.00    +0.000 C 
ATOM     18  C   UNL     1      -8.073   3.388 121.732  0.00  0.00    +0.000 A 
ENDBRANCH   6  11
ENDBRANCH   1  10
BRANCH   1  19
ATOM     19  C   UNL     1      -7.569  -1.722 126.900  0.00  0.00    +0.000 A 
ATOM     20  C   UNL     1      -8.661  -2.469 126.428  0.00  0.00    +0.000 A 
ATOM     21  C   UNL     1      -9.143  -3.573 127.137  0.00  0.00    +0.000 A 
ATOM     22  C   UNL     1      -8.553  -3.937 128.348  0.00  0.00    +0.000 A 
ATOM     23  C   UNL     1      -7.466  -3.207 128.870  0.00  0.00    +0.000 A 
ATOM     24  C   UNL     1      -6.982  -2.108 128.121  0.00  0.00    +0.000 A 
BRANCH  23  25
ATOM     25  C   UNL     1      -6.931  -3.556 130.198  0.00  0.00    +0.000 A 
ATOM     26  C   UNL     1      -5.907  -4.497 130.362  0.00  0.00    +0.000 A 
ATOM     27  C   UNL     1      -5.462  -4.844 131.640  0.00  0.00    +0.000 A 
ATOM     28  C   UNL     1      -5.972  -4.197 132.769  0.00  0.00    +0.000 A 
ATOM     29  C   UNL     1      -6.993  -3.253 132.637  0.00  0.00    +0.000 A 
ATOM     30  C   UNL     1      -7.467  -2.952 131.350  0.00  0.00    +0.000 A 
BRANCH  29  31
ATOM     31  C   UNL     1      -7.649  -2.553 133.781  0.00  0.00    +0.000 C 
ATOM     32  O   UNL     1      -7.225  -1.495 134.217  0.00  0.00    +0.000 OA
BRANCH  31  33
ATOM     33  O   UNL     1      -8.743  -3.140 134.307  0.00  0.00    +0.000 OA
ATOM     34  H   UNL     1      -8.820  -3.197 135.272  0.00  0.00    +0.000 HD
ENDBRANCH  31  33
ENDBRANCH  29  31
ENDBRANCH  23  25
BRANCH  24  35
ATOM     35  O   UNL     1      -5.951  -1.328 128.602  0.00  0.00    +0.000 OA
ATOM     36  H   UNL     1      -5.717  -0.655 127.950  0.00  0.00    +0.000 HD
ENDBRANCH  24  35
ENDBRANCH   1  19
TORSDOF 7
ENDMDL
MODEL 2
REMARK VINA RESULT:      -9.8      5.004      7.938
REMARK  Name = Eltrombopag
REMARK  10 active torsions:
REMARK  status: ('A' for Active; 'I' for Inactive)
REMARK    1  A    between atoms: C_1  and  C_2
REMARK    2  A    between atoms: N_4  and  C_26
REMARK    3  A    between atoms: N_8  and  N_9
REMARK    4  A    between atoms: N_9  and  C_10
REMARK    5  A    between atoms: C_14  and  C_15
REMARK    6  A    between atoms: C_19  and  C_21
REMARK    7  A    between atoms: C_21  and  O_22
REMARK    8  A    between atoms: C_24  and  O_25
REMARK    9  A    between atoms: C_29  and  C_30
REMARK   10  A    between atoms: C_31  and  C_32
REMARK                            x       y       z     vdW  Elec       q    Type
REMARK                         _______ _______ _______ _____ _____    ______ ____
ROOT
ATOM      1  N   UNL     1      -7.541   1.882 129.940  0.00  0.00    +0.000 N 
ATOM      2  H   UNL     1      -7.425   2.541 129.164  0.00  0.00    +0.000 HD
ENDROOT
BRANCH   1  10
ATOM      3  C   UNL     1      -8.527   3.378 133.961  0.00  0.00    +0.000 C 
ATOM      4  C   UNL     1      -8.954   3.941 132.654  0.00  0.00    +0.000 C 
ATOM      5  N   UNL     1      -9.636   5.038 132.467  0.00  0.00    +0.000 NA
ATOM      6  N   UNL     1      -9.822   5.169 131.084  0.00  0.00    +0.000 N 
ATOM      7  C   UNL     1      -9.259   4.172 130.311  0.00  0.00    +0.000 C 
ATOM      8  O   UNL     1      -9.197   3.988 129.108  0.00  0.00    +0.000 OA
ATOM      9  C   UNL     1      -8.606   3.310 131.345  0.00  0.00    +0.000 C 
ATOM     10  N   UNL     1      -7.841   2.275 131.209  0.00  0.00    +0.000 NA
BRANCH   6  11
ATOM     11  C   UNL     1     -10.641   6.209 130.614  0.00  0.00    +0.000 A 
ATOM     12  C   UNL     1     -11.745   6.624 131.355  0.00  0.00    +0.000 A 
ATOM     13  C   UNL     1     -12.581   7.631 130.867  0.00  0.00    +0.000 A 
ATOM     14  C   UNL     1     -12.304   8.270 129.650  0.00  0.00    +0.000 A 
ATOM     15  C   UNL     1     -13.143   9.443 129.221  0.00  0.00    +0.000 C 
ATOM     16  C   UNL     1     -11.208   7.834 128.882  0.00  0.00    +0.000 A 
ATOM     17  C   UNL     1     -10.926   8.380 127.509  0.00  0.00    +0.000 C 
ATOM     18  C   UNL     1     -10.367   6.824 129.387  0.00  0.00    +0.000 A 
ENDBRANCH   6  11
ENDBRANCH   1  10
BRANCH   1  19
ATOM     19  C   UNL     1      -7.592   0.513 129.598  0.00  0.00    +0.000 A 
ATOM     20  C   UNL     1      -7.848  -0.425 130.611  0.00  0.00    +0.000 A 
ATOM     21  C   UNL     1      -7.981  -1.786 130.320  0.00  0.00    +0.000 A 
ATOM     22  C   UNL     1      -7.837  -2.236 129.007  0.00  0.00    +0.000 A 
ATOM     23  C   UNL     1      -7.563  -1.335 127.960  0.00  0.00    +0.000 A 
ATOM     24  C   UNL     1      -7.456   0.040 128.277  0.00  0.00    +0.000 A 
BRANCH  23  25
ATOM     25  C   UNL     1      -7.319  -1.854 126.603  0.00  0.00    +0.000 A 
ATOM     26  C   UNL     1      -6.049  -2.269 126.183  0.00  0.00    +0.000 A 
ATOM     27  C   UNL     1      -5.843  -2.703 124.872  0.00  0.00    +0.000 A 
ATOM     28  C   UNL     1      -6.917  -2.810 123.982  0.00  0.00    +0.000 A 
ATOM     29  C   UNL     1      -8.195  -2.405 124.373  0.00  0.00    +0.000 A 
ATOM     30  C   UNL     1      -8.377  -1.921 125.678  0.00  0.00    +0.000 A 
BRANCH  29  31
ATOM     31  C   UNL     1      -9.393  -2.418 123.482  0.00  0.00    +0.000 C 
ATOM     32  O   UNL     1      -9.701  -1.451 122.803  0.00  0.00    +0.000 OA
BRANCH  31  33
ATOM     33  O   UNL     1     -10.119  -3.554 123.452  0.00  0.00    +0.000 OA
ATOM     34  H   UNL     1      -9.903  -4.259 124.082  0.00  0.00    +0.000 HD
ENDBRANCH  31  33
ENDBRANCH  29  31
ENDBRANCH  23  25
BRANCH  24  35
ATOM     35  O   UNL     1      -7.143   0.966 127.304  0.00  0.00    +0.000 OA
ATOM     36  H   UNL     1      -7.859   1.608 127.219  0.00  0.00    +0.000 HD
ENDBRANCH  24  35
ENDBRANCH   1  19
TORSDOF 7
ENDMDL
MODEL 3
REMARK VINA RESULT:      -9.7      5.151      7.937
REMARK  Name = Eltrombopag
REMARK  10 active torsions:
REMARK  status: ('A' for Active; 'I' for Inactive)
REMARK    1  A    between atoms: C_1  and  C_2
REMARK    2  A    between atoms: N_4  and  C_26
REMARK    3  A    between atoms: N_8  and  N_9
REMARK    4  A    between atoms: N_9  and  C_10
REMARK    5  A    between atoms: C_14  and  C_15
REMARK    6  A    between atoms: C_19  and  C_21
REMARK    7  A    between atoms: C_21  and  O_22
REMARK    8  A    between atoms: C_24  and  O_25
REMARK    9  A    between atoms: C_29  and  C_30
REMARK   10  A    between atoms: C_31  and  C_32
REMARK                            x       y       z     vdW  Elec       q    Type
REMARK                         _______ _______ _______ _____ _____    ______ ____
ROOT
ATOM      1  N   UNL     1      -7.563   1.483 129.742  0.00  0.00    +0.000 N 
ATOM      2  H   UNL     1      -7.602   2.114 128.936  0.00  0.00    +0.000 HD
ENDROOT
BRANCH   1  10
ATOM      3  C   UNL     1      -7.917   3.105 133.820  0.00  0.00    +0.000 C 
ATOM      4  C   UNL     1      -8.504   3.655 132.570  0.00  0.00    +0.000 C 
ATOM      5  N   UNL     1      -9.166   4.773 132.451  0.00  0.00    +0.000 NA
ATOM      6  N   UNL     1      -9.541   4.881 131.105  0.00  0.00    +0.000 N 
ATOM      7  C   UNL     1      -9.129   3.845 130.288  0.00  0.00    +0.000 C 
ATOM      8  O   UNL     1      -9.244   3.633 129.094  0.00  0.00    +0.000 OA
ATOM      9  C   UNL     1      -8.367   2.982 131.243  0.00  0.00    +0.000 C 
ATOM     10  N   UNL     1      -7.666   1.915 131.030  0.00  0.00    +0.000 NA
BRANCH   6  11
ATOM     11  C   UNL     1     -10.381   5.941 130.726  0.00  0.00    +0.000 A 
ATOM     12  C   UNL     1     -11.515   6.243 131.477  0.00  0.00    +0.000 A 
ATOM     13  C   UNL     1     -12.370   7.272 131.076  0.00  0.00    +0.000 A 
ATOM     14  C   UNL     1     -12.084   8.045 129.942  0.00  0.00    +0.000 A 
ATOM     15  C   UNL     1     -12.949   9.232 129.617  0.00  0.00    +0.000 C 
ATOM     16  C   UNL     1     -10.958   7.724 129.161  0.00  0.00    +0.000 A 
ATOM     17  C   UNL     1     -10.661   8.421 127.861  0.00  0.00    +0.000 C 
ATOM     18  C   UNL     1     -10.098   6.691 129.579  0.00  0.00    +0.000 A 
ENDBRANCH   6  11
ENDBRANCH   1  10
BRANCH   1  19
ATOM     19  C   UNL     1      -7.614   0.100 129.460  0.00  0.00    +0.000 A 
ATOM     20  C   UNL     1      -7.512  -0.809 130.525  0.00  0.00    +0.000 A 
ATOM     21  C   UNL     1      -7.628  -2.187 130.314  0.00  0.00    +0.000 A 
ATOM     22  C   UNL     1      -7.827  -2.681 129.024  0.00  0.00    +0.000 A 
ATOM     23  C   UNL     1      -7.919  -1.808 127.923  0.00  0.00    +0.000 A 
ATOM     24  C   UNL     1      -7.821  -0.417 128.166  0.00  0.00    +0.000 A 
BRANCH  23  25
ATOM     25  C   UNL     1      -8.029  -2.366 126.563  0.00  0.00    +0.000 A 
ATOM     26  C   UNL     1      -9.253  -2.788 126.030  0.00  0.00    +0.000 A 
ATOM     27  C   UNL     1      -9.311  -3.364 124.759  0.00  0.00    +0.000 A 
ATOM     28  C   UNL     1      -8.163  -3.451 123.965  0.00  0.00    +0.000 A 
ATOM     29  C   UNL     1      -6.929  -3.037 124.470  0.00  0.00    +0.000 A 
ATOM     30  C   UNL     1      -6.876  -2.509 125.769  0.00  0.00    +0.000 A 
BRANCH  29  31
ATOM     31  C   UNL     1      -5.636  -3.147 123.730  0.00  0.00    +0.000 C 
ATOM     32  O   UNL     1      -4.706  -3.813 124.156  0.00  0.00    +0.000 OA
BRANCH  31  33
ATOM     33  O   UNL     1      -5.544  -2.482 122.561  0.00  0.00    +0.000 OA
ATOM     34  H   UNL     1      -5.661  -1.520 122.564  0.00  0.00    +0.000 HD
ENDBRANCH  31  33
ENDBRANCH  29  31
ENDBRANCH  23  25
BRANCH  24  35
ATOM     35  O   UNL     1      -7.857   0.484 127.122  0.00  0.00    +0.000 OA
ATOM     36  H   UNL     1      -6.981   0.560 126.723  0.00  0.00    +0.000 HD
ENDBRANCH  24  35
ENDBRANCH   1  19
TORSDOF 7
ENDMDL
MODEL 4
REMARK VINA RESULT:      -9.6      5.127      8.971
REMARK  Name = Eltrombopag
REMARK  10 active torsions:
REMARK  status: ('A' for Active; 'I' for Inactive)
REMARK    1  A    between atoms: C_1  and  C_2
REMARK    2  A    between atoms: N_4  and  C_26
REMARK    3  A    between atoms: N_8  and  N_9
REMARK    4  A    between atoms: N_9  and  C_10
REMARK    5  A    between atoms: C_14  and  C_15
REMARK    6  A    between atoms: C_19  and  C_21
REMARK    7  A    between atoms: C_21  and  O_22
REMARK    8  A    between atoms: C_24  and  O_25
REMARK    9  A    between atoms: C_29  and  C_30
REMARK   10  A    between atoms: C_31  and  C_32
REMARK                            x       y       z     vdW  Elec       q    Type
REMARK                         _______ _______ _______ _____ _____    ______ ____
ROOT
ATOM      1  N   UNL     1      -8.723   1.443 130.828  0.00  0.00    +0.000 N 
ATOM      2  H   UNL     1      -9.517   0.824 130.639  0.00  0.00    +0.000 HD
ENDROOT
BRANCH   1  10
ATOM      3  C   UNL     1      -8.369   4.034 134.370  0.00  0.00    +0.000 C 
ATOM      4  C   UNL     1      -9.043   4.344 133.082  0.00  0.00    +0.000 C 
ATOM      5  N   UNL     1      -9.582   5.483 132.744  0.00  0.00    +0.000 NA
ATOM      6  N   UNL     1     -10.111   5.315 131.457  0.00  0.00    +0.000 N 
ATOM      7  C   UNL     1      -9.927   4.066 130.897  0.00  0.00    +0.000 C 
ATOM      8  O   UNL     1     -10.216   3.590 129.813  0.00  0.00    +0.000 OA
ATOM      9  C   UNL     1      -9.153   3.358 131.965  0.00  0.00    +0.000 C 
ATOM     10  N   UNL     1      -8.612   2.183 131.966  0.00  0.00    +0.000 NA
BRANCH   6  11
ATOM     11  C   UNL     1     -10.865   6.361 130.901  0.00  0.00    +0.000 A 
ATOM     12  C   UNL     1     -12.060   6.761 131.497  0.00  0.00    +0.000 A 
ATOM     13  C   UNL     1     -12.828   7.775 130.920  0.00  0.00    +0.000 A 
ATOM     14  C   UNL     1     -12.396   8.436 129.761  0.00  0.00    +0.000 A 
ATOM     15  C   UNL     1     -13.176   9.614 129.245  0.00  0.00    +0.000 C 
ATOM     16  C   UNL     1     -11.206   8.015 129.137  0.00  0.00    +0.000 A 
ATOM     17  C   UNL     1     -10.748   8.585 127.822  0.00  0.00    +0.000 C 
ATOM     18  C   UNL     1     -10.435   6.998 129.731  0.00  0.00    +0.000 A 
ENDBRANCH   6  11
ENDBRANCH   1  10
BRANCH   1  19
ATOM     19  C   UNL     1      -7.623   1.338 129.949  0.00  0.00    +0.000 A 
ATOM     20  C   UNL     1      -6.365   1.013 130.481  0.00  0.00    +0.000 A 
ATOM     21  C   UNL     1      -5.255   0.825 129.652  0.00  0.00    +0.000 A 
ATOM     22  C   UNL     1      -5.381   0.981 128.271  0.00  0.00    +0.000 A 
ATOM     23  C   UNL     1      -6.620   1.322 127.694  0.00  0.00    +0.000 A 
ATOM     24  C   UNL     1      -7.733   1.484 128.552  0.00  0.00    +0.000 A 
BRANCH  23  25
ATOM     25  C   UNL     1      -6.697   1.576 126.244  0.00  0.00    +0.000 A 
ATOM     26  C   UNL     1      -7.100   0.589 125.336  0.00  0.00    +0.000 A 
ATOM     27  C   UNL     1      -7.108   0.849 123.964  0.00  0.00    +0.000 A 
ATOM     28  C   UNL     1      -6.796   2.123 123.480  0.00  0.00    +0.000 A 
ATOM     29  C   UNL     1      -6.392   3.129 124.362  0.00  0.00    +0.000 A 
ATOM     30  C   UNL     1      -6.338   2.838 125.734  0.00  0.00    +0.000 A 
BRANCH  29  31
ATOM     31  C   UNL     1      -5.976   4.501 123.943  0.00  0.00    +0.000 C 
ATOM     32  O   UNL     1      -5.303   4.691 122.943  0.00  0.00    +0.000 OA
BRANCH  31  33
ATOM     33  O   UNL     1      -6.387   5.525 124.718  0.00  0.00    +0.000 OA
ATOM     34  H   UNL     1      -7.336   5.715 124.771  0.00  0.00    +0.000 HD
ENDBRANCH  31  33
ENDBRANCH  29  31
ENDBRANCH  23  25
BRANCH  24  35
ATOM     35  O   UNL     1      -8.960   1.864 128.051  0.00  0.00    +0.000 OA
ATOM     36  H   UNL     1      -8.839   2.453 127.295  0.00  0.00    +0.000 HD
ENDBRANCH  24  35
ENDBRANCH   1  19
TORSDOF 7
ENDMDL
MODEL 5
REMARK VINA RESULT:      -9.5      4.826      8.757
REMARK  Name = Eltrombopag
REMARK  10 active torsions:
REMARK  status: ('A' for Active; 'I' for Inactive)
REMARK    1  A    between atoms: C_1  and  C_2
REMARK    2  A    between atoms: N_4  and  C_26
REMARK    3  A    between atoms: N_8  and  N_9
REMARK    4  A    between atoms: N_9  and  C_10
REMARK    5  A    between atoms: C_14  and  C_15
REMARK    6  A    between atoms: C_19  and  C_21
REMARK    7  A    between atoms: C_21  and  O_22
REMARK    8  A    between atoms: C_24  and  O_25
REMARK    9  A    between atoms: C_29  and  C_30
REMARK   10  A    between atoms: C_31  and  C_32
REMARK                            x       y       z     vdW  Elec       q    Type
REMARK                         _______ _______ _______ _____ _____    ______ ____
ROOT
ATOM      1  N   UNL     1      -6.233   3.610 128.744  0.00  0.00    +0.000 N 
ATOM      2  H   UNL     1      -6.244   2.641 129.075  0.00  0.00    +0.000 HD
ENDROOT
BRANCH   1  10
ATOM      3  C   UNL     1      -5.511   4.467 124.486  0.00  0.00    +0.000 C 
ATOM      4  C   UNL     1      -6.154   3.263 125.073  0.00  0.00    +0.000 C 
ATOM      5  N   UNL     1      -6.548   2.200 124.426  0.00  0.00    +0.000 NA
ATOM      6  N   UNL     1      -7.108   1.332 125.373  0.00  0.00    +0.000 N 
ATOM      7  C   UNL     1      -7.091   1.786 126.678  0.00  0.00    +0.000 C 
ATOM      8  O   UNL     1      -7.451   1.294 127.733  0.00  0.00    +0.000 OA
ATOM      9  C   UNL     1      -6.402   3.107 126.538  0.00  0.00    +0.000 C 
ATOM     10  N   UNL     1      -6.016   3.948 127.442  0.00  0.00    +0.000 NA
BRANCH   6  11
ATOM     11  C   UNL     1      -7.728   0.157 124.920  0.00  0.00    +0.000 A 
ATOM     12  C   UNL     1      -8.071   0.015 123.577  0.00  0.00    +0.000 A 
ATOM     13  C   UNL     1      -8.724  -1.139 123.136  0.00  0.00    +0.000 A 
ATOM     14  C   UNL     1      -9.008  -2.189 124.021  0.00  0.00    +0.000 A 
ATOM     15  C   UNL     1      -9.585  -3.471 123.488  0.00  0.00    +0.000 C 
ATOM     16  C   UNL     1      -8.693  -2.039 125.385  0.00  0.00    +0.000 A 
ATOM     17  C   UNL     1      -9.084  -3.063 126.414  0.00  0.00    +0.000 C 
ATOM     18  C   UNL     1      -8.027  -0.876 125.817  0.00  0.00    +0.000 A 
ENDBRANCH   6  11
ENDBRANCH   1  10
BRANCH   1  19
ATOM     19  C   UNL     1      -6.674   4.591 129.659  0.00  0.00    +0.000 A 
ATOM     20  C   UNL     1      -5.746   5.132 130.564  0.00  0.00    +0.000 A 
ATOM     21  C   UNL     1      -6.108   6.157 131.444  0.00  0.00    +0.000 A 
ATOM     22  C   UNL     1      -7.416   6.643 131.450  0.00  0.00    +0.000 A 
ATOM     23  C   UNL     1      -8.385   6.119 130.572  0.00  0.00    +0.000 A 
ATOM     24  C   UNL     1      -7.988   5.099 129.675  0.00  0.00    +0.000 A 
BRANCH  23  25
ATOM     25  C   UNL     1      -9.780   6.584 130.672  0.00  0.00    +0.000 A 
ATOM     26  C   UNL     1     -10.620   6.195 131.722  0.00  0.00    +0.000 A 
ATOM     27  C   UNL     1     -11.953   6.611 131.754  0.00  0.00    +0.000 A 
ATOM     28  C   UNL     1     -12.446   7.491 130.785  0.00  0.00    +0.000 A 
ATOM     29  C   UNL     1     -11.631   7.898 129.727  0.00  0.00    +0.000 A 
ATOM     30  C   UNL     1     -10.308   7.429 129.679  0.00  0.00    +0.000 A 
BRANCH  29  31
ATOM     31  C   UNL     1     -12.078   8.781 128.608  0.00  0.00    +0.000 C 
ATOM     32  O   UNL     1     -13.133   9.393 128.655  0.00  0.00    +0.000 OA
BRANCH  31  33
ATOM     33  O   UNL     1     -11.256   8.879 127.544  0.00  0.00    +0.000 OA
ATOM     34  H   UNL     1     -11.300   8.195 126.859  0.00  0.00    +0.000 HD
ENDBRANCH  31  33
ENDBRANCH  29  31
ENDBRANCH  23  25
BRANCH  24  35
ATOM     35  O   UNL     1      -8.902   4.514 128.824  0.00  0.00    +0.000 OA
ATOM     36  H   UNL     1      -8.447   4.145 128.056  0.00  0.00    +0.000 HD
ENDBRANCH  24  35
ENDBRANCH   1  19
TORSDOF 7
ENDMDL
MODEL 6
REMARK VINA RESULT:      -9.4      4.997      9.940
REMARK  Name = Eltrombopag
REMARK  10 active torsions:
REMARK  status: ('A' for Active; 'I' for Inactive)
REMARK    1  A    between atoms: C_1  and  C_2
REMARK    2  A    between atoms: N_4  and  C_26
REMARK    3  A    between atoms: N_8  and  N_9
REMARK    4  A    between atoms: N_9  and  C_10
REMARK    5  A    between atoms: C_14  and  C_15
REMARK    6  A    between atoms: C_19  and  C_21
REMARK    7  A    between atoms: C_21  and  O_22
REMARK    8  A    between atoms: C_24  and  O_25
REMARK    9  A    between atoms: C_29  and  C_30
REMARK   10  A    between atoms: C_31  and  C_32
REMARK                            x       y       z     vdW  Elec       q    Type
REMARK                         _______ _______ _______ _____ _____    ______ ____
ROOT
ATOM      1  N   UNL     1      -8.626   2.421 133.252  0.00  0.00    +0.000 N 
ATOM      2  H   UNL     1      -9.572   2.032 133.298  0.00  0.00    +0.000 HD
ENDROOT
BRANCH   1  10
ATOM      3  C   UNL     1      -5.113  -0.214 133.570  0.00  0.00    +0.000 C 
ATOM      4  C   UNL     1      -6.173  -0.236 132.529  0.00  0.00    +0.000 C 
ATOM      5  N   UNL     1      -6.292  -1.104 131.562  0.00  0.00    +0.000 NA
ATOM      6  N   UNL     1      -7.419  -0.730 130.817  0.00  0.00    +0.000 N 
ATOM      7  C   UNL     1      -8.089   0.388 131.275  0.00  0.00    +0.000 C 
ATOM      8  O   UNL     1      -9.099   0.961 130.904  0.00  0.00    +0.000 OA
ATOM      9  C   UNL     1      -7.293   0.752 132.488  0.00  0.00    +0.000 C 
ATOM     10  N   UNL     1      -7.502   1.662 133.384  0.00  0.00    +0.000 NA
BRANCH   6  11
ATOM     11  C   UNL     1      -7.703  -1.430 129.634  0.00  0.00    +0.000 A 
ATOM     12  C   UNL     1      -8.124  -2.758 129.686  0.00  0.00    +0.000 A 
ATOM     13  C   UNL     1      -8.368  -3.465 128.506  0.00  0.00    +0.000 A 
ATOM     14  C   UNL     1      -8.236  -2.846 127.255  0.00  0.00    +0.000 A 
ATOM     15  C   UNL     1      -8.639  -3.592 126.013  0.00  0.00    +0.000 C 
ATOM     16  C   UNL     1      -7.780  -1.516 127.194  0.00  0.00    +0.000 A 
ATOM     17  C   UNL     1      -7.488  -0.829 125.888  0.00  0.00    +0.000 C 
ATOM     18  C   UNL     1      -7.546  -0.809 128.390  0.00  0.00    +0.000 A 
ENDBRANCH   6  11
ENDBRANCH   1  10
BRANCH   1  19
ATOM     19  C   UNL     1      -8.520   3.763 132.824  0.00  0.00    +0.000 A 
ATOM     20  C   UNL     1      -7.441   4.534 133.287  0.00  0.00    +0.000 A 
ATOM     21  C   UNL     1      -7.246   5.845 132.841  0.00  0.00    +0.000 A 
ATOM     22  C   UNL     1      -8.143   6.416 131.938  0.00  0.00    +0.000 A 
ATOM     23  C   UNL     1      -9.249   5.687 131.461  0.00  0.00    +0.000 A 
ATOM     24  C   UNL     1      -9.412   4.355 131.908  0.00  0.00    +0.000 A 
BRANCH  23  25
ATOM     25  C   UNL     1     -10.232   6.352 130.586  0.00  0.00    +0.000 A 
ATOM     26  C   UNL     1     -11.444   6.854 131.078  0.00  0.00    +0.000 A 
ATOM     27  C   UNL     1     -12.376   7.428 130.210  0.00  0.00    +0.000 A 
ATOM     28  C   UNL     1     -12.079   7.589 128.853  0.00  0.00    +0.000 A 
ATOM     29  C   UNL     1     -10.878   7.100 128.335  0.00  0.00    +0.000 A 
ATOM     30  C   UNL     1      -9.973   6.478 129.209  0.00  0.00    +0.000 A 
BRANCH  29  31
ATOM     31  C   UNL     1     -10.494   7.163 126.893  0.00  0.00    +0.000 C 
ATOM     32  O   UNL     1      -9.774   6.319 126.383  0.00  0.00    +0.000 OA
BRANCH  31  33
ATOM     33  O   UNL     1     -10.987   8.191 126.175  0.00  0.00    +0.000 OA
ATOM     34  H   UNL     1     -11.945   8.244 126.037  0.00  0.00    +0.000 HD
ENDBRANCH  31  33
ENDBRANCH  29  31
ENDBRANCH  23  25
BRANCH  24  35
ATOM     35  O   UNL     1     -10.501   3.606 131.512  0.00  0.00    +0.000 OA
ATOM     36  H   UNL     1     -10.798   3.048 132.242  0.00  0.00    +0.000 HD
ENDBRANCH  24  35
ENDBRANCH   1  19
TORSDOF 7
ENDMDL
MODEL 7
REMARK VINA RESULT:      -9.1      4.404      7.958
REMARK  Name = Eltrombopag
REMARK  10 active torsions:
REMARK  status: ('A' for Active; 'I' for Inactive)
REMARK    1  A    between atoms: C_1  and  C_2
REMARK    2  A    between atoms: N_4  and  C_26
REMARK    3  A    between atoms: N_8  and  N_9
REMARK    4  A    between atoms: N_9  and  C_10
REMARK    5  A    between atoms: C_14  and  C_15
REMARK    6  A    between atoms: C_19  and  C_21
REMARK    7  A    between atoms: C_21  and  O_22
REMARK    8  A    between atoms: C_24  and  O_25
REMARK    9  A    between atoms: C_29  and  C_30
REMARK   10  A    between atoms: C_31  and  C_32
REMARK                            x       y       z     vdW  Elec       q    Type
REMARK                         _______ _______ _______ _____ _____    ______ ____
ROOT
ATOM      1  N   UNL     1      -6.733   3.324 126.664  0.00  0.00    +0.000 N 
ATOM      2  H   UNL     1      -6.276   4.205 126.410  0.00  0.00    +0.000 HD
ENDROOT
BRANCH   1  10
ATOM      3  C   UNL     1      -7.902   2.545 130.837  0.00  0.00    +0.000 C 
ATOM      4  C   UNL     1      -8.375   3.641 129.951  0.00  0.00    +0.000 C 
ATOM      5  N   UNL     1      -9.166   4.623 130.288  0.00  0.00    +0.000 NA
ATOM      6  N   UNL     1      -9.354   5.404 129.139  0.00  0.00    +0.000 N 
ATOM      7  C   UNL     1      -8.684   4.972 128.010  0.00  0.00    +0.000 C 
ATOM      8  O   UNL     1      -8.593   5.413 126.878  0.00  0.00    +0.000 OA
ATOM      9  C   UNL     1      -7.952   3.772 128.524  0.00  0.00    +0.000 C 
ATOM     10  N   UNL     1      -7.083   3.010 127.943  0.00  0.00    +0.000 NA
BRANCH   6  11
ATOM     11  C   UNL     1     -10.273   6.464 129.192  0.00  0.00    +0.000 A 
ATOM     12  C   UNL     1     -10.239   7.473 128.232  0.00  0.00    +0.000 A 
ATOM     13  C   UNL     1     -11.128   8.549 128.309  0.00  0.00    +0.000 A 
ATOM     14  C   UNL     1     -12.094   8.612 129.324  0.00  0.00    +0.000 A 
ATOM     15  C   UNL     1     -13.123   9.709 129.298  0.00  0.00    +0.000 C 
ATOM     16  C   UNL     1     -12.113   7.613 130.315  0.00  0.00    +0.000 A 
ATOM     17  C   UNL     1     -13.031   7.683 131.504  0.00  0.00    +0.000 C 
ATOM     18  C   UNL     1     -11.218   6.529 130.222  0.00  0.00    +0.000 A 
ENDBRANCH   6  11
ENDBRANCH   1  10
BRANCH   1  19
ATOM     19  C   UNL     1      -7.193   2.524 125.595  0.00  0.00    +0.000 A 
ATOM     20  C   UNL     1      -7.742   3.157 124.468  0.00  0.00    +0.000 A 
ATOM     21  C   UNL     1      -8.147   2.421 123.350  0.00  0.00    +0.000 A 
ATOM     22  C   UNL     1      -8.028   1.031 123.349  0.00  0.00    +0.000 A 
ATOM     23  C   UNL     1      -7.499   0.351 124.464  0.00  0.00    +0.000 A 
ATOM     24  C   UNL     1      -7.075   1.120 125.573  0.00  0.00    +0.000 A 
BRANCH  23  25
ATOM     25  C   UNL     1      -7.480  -1.123 124.471  0.00  0.00    +0.000 A 
ATOM     26  C   UNL     1      -8.596  -1.878 124.852  0.00  0.00    +0.000 A 
ATOM     27  C   UNL     1      -8.523  -3.272 124.900  0.00  0.00    +0.000 A 
ATOM     28  C   UNL     1      -7.366  -3.939 124.487  0.00  0.00    +0.000 A 
ATOM     29  C   UNL     1      -6.238  -3.212 124.100  0.00  0.00    +0.000 A 
ATOM     30  C   UNL     1      -6.307  -1.809 124.107  0.00  0.00    +0.000 A 
BRANCH  29  31
ATOM     31  C   UNL     1      -4.934  -3.823 123.704  0.00  0.00    +0.000 C 
ATOM     32  O   UNL     1      -3.996  -3.144 123.319  0.00  0.00    +0.000 OA
BRANCH  31  33
ATOM     33  O   UNL     1      -4.836  -5.165 123.800  0.00  0.00    +0.000 OA
ATOM     34  H   UNL     1      -4.125  -5.614 123.319  0.00  0.00    +0.000 HD
ENDBRANCH  31  33
ENDBRANCH  29  31
ENDBRANCH  23  25
BRANCH  24  35
ATOM     35  O   UNL     1      -6.592   0.509 126.711  0.00  0.00    +0.000 OA
ATOM     36  H   UNL     1      -6.467  -0.435 126.549  0.00  0.00    +0.000 HD
ENDBRANCH  24  35
ENDBRANCH   1  19
TORSDOF 7
ENDMDL
MODEL 8
REMARK VINA RESULT:      -9.0      5.465      8.970
REMARK  Name = Eltrombopag
REMARK  10 active torsions:
REMARK  status: ('A' for Active; 'I' for Inactive)
REMARK    1  A    between atoms: C_1  and  C_2
REMARK    2  A    between atoms: N_4  and  C_26
REMARK    3  A    between atoms: N_8  and  N_9
REMARK    4  A    between atoms: N_9  and  C_10
REMARK    5  A    between atoms: C_14  and  C_15
REMARK    6  A    between atoms: C_19  and  C_21
REMARK    7  A    between atoms: C_21  and  O_22
REMARK    8  A    between atoms: C_24  and  O_25
REMARK    9  A    between atoms: C_29  and  C_30
REMARK   10  A    between atoms: C_31  and  C_32
REMARK                            x       y       z     vdW  Elec       q    Type
REMARK                         _______ _______ _______ _____ _____    ______ ____
ROOT
ATOM      1  N   UNL     1      -8.148   1.806 131.932  0.00  0.00    +0.000 N 
ATOM      2  H   UNL     1      -9.001   1.267 131.755  0.00  0.00    +0.000 HD
ENDROOT
BRANCH   1  10
ATOM      3  C   UNL     1      -7.867   5.022 134.925  0.00  0.00    +0.000 C 
ATOM      4  C   UNL     1      -8.602   5.046 133.634  0.00  0.00    +0.000 C 
ATOM      5  N   UNL     1      -9.232   6.066 133.119  0.00  0.00    +0.000 NA
ATOM      6  N   UNL     1      -9.787   5.630 131.908  0.00  0.00    +0.000 N 
ATOM      7  C   UNL     1      -9.532   4.314 131.577  0.00  0.00    +0.000 C 
ATOM      8  O   UNL     1      -9.821   3.629 130.611  0.00  0.00    +0.000 OA
ATOM      9  C   UNL     1      -8.677   3.866 132.720  0.00  0.00    +0.000 C 
ATOM     10  N   UNL     1      -8.054   2.748 132.911  0.00  0.00    +0.000 NA
BRANCH   6  11
ATOM     11  C   UNL     1     -10.631   6.505 131.205  0.00  0.00    +0.000 A 
ATOM     12  C   UNL     1     -11.928   6.746 131.656  0.00  0.00    +0.000 A 
ATOM     13  C   UNL     1     -12.779   7.586 130.933  0.00  0.00    +0.000 A 
ATOM     14  C   UNL     1     -12.336   8.233 129.771  0.00  0.00    +0.000 A 
ATOM     15  C   UNL     1     -13.230   9.236 129.095  0.00  0.00    +0.000 C 
ATOM     16  C   UNL     1     -11.038   7.969 129.293  0.00  0.00    +0.000 A 
ATOM     17  C   UNL     1     -10.540   8.522 127.986  0.00  0.00    +0.000 C 
ATOM     18  C   UNL     1     -10.186   7.128 130.034  0.00  0.00    +0.000 A 
ENDBRANCH   6  11
ENDBRANCH   1  10
BRANCH   1  19
ATOM     19  C   UNL     1      -6.984   1.378 131.255  0.00  0.00    +0.000 A 
ATOM     20  C   UNL     1      -6.360   0.191 131.673  0.00  0.00    +0.000 A 
ATOM     21  C   UNL     1      -5.249  -0.318 130.995  0.00  0.00    +0.000 A 
ATOM     22  C   UNL     1      -4.726   0.366 129.897  0.00  0.00    +0.000 A 
ATOM     23  C   UNL     1      -5.308   1.569 129.453  0.00  0.00    +0.000 A 
ATOM     24  C   UNL     1      -6.446   2.052 130.141  0.00  0.00    +0.000 A 
BRANCH  23  25
ATOM     25  C   UNL     1      -4.673   2.318 128.354  0.00  0.00    +0.000 A 
ATOM     26  C   UNL     1      -3.403   2.894 128.483  0.00  0.00    +0.000 A 
ATOM     27  C   UNL     1      -2.856   3.645 127.440  0.00  0.00    +0.000 A 
ATOM     28  C   UNL     1      -3.529   3.761 126.220  0.00  0.00    +0.000 A 
ATOM     29  C   UNL     1      -4.796   3.196 126.060  0.00  0.00    +0.000 A 
ATOM     30  C   UNL     1      -5.357   2.489 127.136  0.00  0.00    +0.000 A 
BRANCH  29  31
ATOM     31  C   UNL     1      -5.625   3.318 124.824  0.00  0.00    +0.000 C 
ATOM     32  O   UNL     1      -6.601   2.610 124.632  0.00  0.00    +0.000 OA
BRANCH  31  33
ATOM     33  O   UNL     1      -5.251   4.255 123.929  0.00  0.00    +0.000 OA
ATOM     34  H   UNL     1      -4.520   4.848 124.157  0.00  0.00    +0.000 HD
ENDBRANCH  31  33
ENDBRANCH  29  31
ENDBRANCH  23  25
BRANCH  24  35
ATOM     35  O   UNL     1      -7.032   3.248 129.782  0.00  0.00    +0.000 OA
ATOM     36  H   UNL     1      -6.681   3.544 128.932  0.00  0.00    +0.000 HD
ENDBRANCH  24  35
ENDBRANCH   1  19
TORSDOF 7
ENDMDL
MODEL 9
REMARK VINA RESULT:      -9.0      8.267     11.033
REMARK  Name = Eltrombopag
REMARK  10 active torsions:
REMARK  status: ('A' for Active; 'I' for Inactive)
REMARK    1  A    between atoms: C_1  and  C_2
REMARK    2  A    between atoms: N_4  and  C_26
REMARK    3  A    between atoms: N_8  and  N_9
REMARK    4  A    between atoms: N_9  and  C_10
REMARK    5  A    between atoms: C_14  and  C_15
REMARK    6  A    between atoms: C_19  and  C_21
REMARK    7  A    between atoms: C_21  and  O_22
REMARK    8  A    between atoms: C_24  and  O_25
REMARK    9  A    between atoms: C_29  and  C_30
REMARK   10  A    between atoms: C_31  and  C_32
REMARK                            x       y       z     vdW  Elec       q    Type
REMARK                         _______ _______ _______ _____ _____    ______ ____
ROOT
ATOM      1  N   UNL     1      -5.419   3.884 131.832  0.00  0.00    +0.000 N 
ATOM      2  H   UNL     1      -5.525   2.942 131.443  0.00  0.00    +0.000 HD
ENDROOT
BRANCH   1  10
ATOM      3  C   UNL     1      -7.627   5.427 135.314  0.00  0.00    +0.000 C 
ATOM      4  C   UNL     1      -7.995   5.550 133.880  0.00  0.00    +0.000 C 
ATOM      5  N   UNL     1      -9.006   6.215 133.392  0.00  0.00    +0.000 NA
ATOM      6  N   UNL     1      -8.974   6.041 132.002  0.00  0.00    +0.000 N 
ATOM      7  C   UNL     1      -7.934   5.267 131.524  0.00  0.00    +0.000 C 
ATOM      8  O   UNL     1      -7.587   4.943 130.401  0.00  0.00    +0.000 OA
ATOM      9  C   UNL     1      -7.195   4.930 132.780  0.00  0.00    +0.000 C 
ATOM     10  N   UNL     1      -6.075   4.305 132.949  0.00  0.00    +0.000 NA
BRANCH   6  11
ATOM     11  C   UNL     1     -10.034   6.554 131.237  0.00  0.00    +0.000 A 
ATOM     12  C   UNL     1     -11.354   6.327 131.624  0.00  0.00    +0.000 A 
ATOM     13  C   UNL     1     -12.408   6.804 130.841  0.00  0.00    +0.000 A 
ATOM     14  C   UNL     1     -12.161   7.553 129.681  0.00  0.00    +0.000 A 
ATOM     15  C   UNL     1     -13.315   8.169 128.938  0.00  0.00    +0.000 C 
ATOM     16  C   UNL     1     -10.832   7.759 129.269  0.00  0.00    +0.000 A 
ATOM     17  C   UNL     1     -10.493   8.437 127.969  0.00  0.00    +0.000 C 
ATOM     18  C   UNL     1      -9.777   7.281 130.070  0.00  0.00    +0.000 A 
ENDBRANCH   6  11
ENDBRANCH   1  10
BRANCH   1  19
ATOM     19  C   UNL     1      -4.386   4.676 131.284  0.00  0.00    +0.000 A 
ATOM     20  C   UNL     1      -4.086   4.541 129.919  0.00  0.00    +0.000 A 
ATOM     21  C   UNL     1      -3.123   5.349 129.307  0.00  0.00    +0.000 A 
ATOM     22  C   UNL     1      -2.425   6.295 130.059  0.00  0.00    +0.000 A 
ATOM     23  C   UNL     1      -2.680   6.454 131.435  0.00  0.00    +0.000 A 
ATOM     24  C   UNL     1      -3.675   5.640 132.026  0.00  0.00    +0.000 A 
BRANCH  23  25
ATOM     25  C   UNL     1      -1.856   7.391 132.220  0.00  0.00    +0.000 A 
ATOM     26  C   UNL     1      -0.595   7.037 132.715  0.00  0.00    +0.000 A 
ATOM     27  C   UNL     1       0.133   7.931 133.503  0.00  0.00    +0.000 A 
ATOM     28  C   UNL     1      -0.347   9.223 133.739  0.00  0.00    +0.000 A 
ATOM     29  C   UNL     1      -1.600   9.606 133.256  0.00  0.00    +0.000 A 
ATOM     30  C   UNL     1      -2.345   8.678 132.510  0.00  0.00    +0.000 A 
BRANCH  29  31
ATOM     31  C   UNL     1      -2.231  10.936 133.506  0.00  0.00    +0.000 C 
ATOM     32  O   UNL     1      -2.110  11.863 132.721  0.00  0.00    +0.000 OA
BRANCH  31  33
ATOM     33  O   UNL     1      -2.952  11.066 134.638  0.00  0.00    +0.000 OA
ATOM     34  H   UNL     1      -2.642  11.684 135.317  0.00  0.00    +0.000 HD
ENDBRANCH  31  33
ENDBRANCH  29  31
ENDBRANCH  23  25
BRANCH  24  35
ATOM     35  O   UNL     1      -3.937   5.718 133.378  0.00  0.00    +0.000 OA
ATOM     36  H   UNL     1      -4.451   4.949 133.657  0.00  0.00    +0.000 HD
ENDBRANCH  24  35
ENDBRANCH   1  19
TORSDOF 7
ENDMDL
