MODEL 1
REMARK VINA RESULT:      -9.4      0.000      0.000
REMARK  Name = Eluxadoline
REMARK  17 active torsions:
REMARK  status: ('A' for Active; 'I' for Inactive)
REMARK    1  A    between atoms: C_1  and  O_2
REMARK    2  A    between atoms: O_2  and  C_3
REMARK    3  A    between atoms: C_6  and  C_7
REMARK    4  A    between atoms: C_7  and  N_8
REMARK    5  A    between atoms: N_8  and  C_9
REMARK    6  A    between atoms: C_9  and  C_10
REMARK    7  A    between atoms: C_9  and  C_11
REMARK    8  A    between atoms: C_13  and  C_16
REMARK    9  A    between atoms: C_22  and  C_24
REMARK   10  A    between atoms: C_24  and  N_25
REMARK   11  A    between atoms: C_24  and  C_26
REMARK   12  A    between atoms: C_26  and  C_27
REMARK   13  A    between atoms: C_28  and  C_29
REMARK   14  A    between atoms: C_31  and  C_35
REMARK   15  A    between atoms: C_33  and  C_34
REMARK   16  A    between atoms: C_39  and  C_40
REMARK   17  A    between atoms: C_40  and  O_41
REMARK                            x       y       z     vdW  Elec       q    Type
REMARK                         _______ _______ _______ _____ _____    ______ ____
ROOT
ATOM      1  N   UNL     1      -7.641   4.164 130.802  0.00  0.00    +0.000 N 
ATOM      2  C   UNL     1      -7.444   2.968 131.556  0.00  0.00    +0.000 C 
ATOM      3  O   UNL     1      -7.359   1.852 131.039  0.00  0.00    +0.000 OA
ENDROOT
BRANCH   1   4
ATOM      4  C   UNL     1      -7.784   5.533 131.498  0.00  0.00    +0.000 C 
ATOM      5  C   UNL     1      -6.893   6.601 130.922  0.00  0.00    +0.000 C 
BRANCH   4   6
ATOM      6  C   UNL     1      -9.091   6.253 131.501  0.00  0.00    +0.000 A 
ATOM      7  N   UNL     1      -9.483   7.219 130.364  0.00  0.00    +0.000 NA
ATOM      8  C   UNL     1     -11.267   7.598 130.245  0.00  0.00    +0.000 A 
ATOM      9  C   UNL     1     -12.068   6.710 131.772  0.00  0.00    +0.000 A 
ATOM     10  N   UNL     1     -10.579   5.833 132.553  0.00  0.00    +0.000 N 
ATOM     11  H   UNL     1     -10.536   5.158 133.306  0.00  0.00    +0.000 HD
BRANCH   8  12
ATOM     12  C   UNL     1     -11.542   8.039 128.802  0.00  0.00    +0.000 A 
ATOM     13  C   UNL     1     -12.854   7.846 128.607  0.00  0.00    +0.000 A 
ATOM     14  C   UNL     1     -13.173   7.151 127.451  0.00  0.00    +0.000 A 
ATOM     15  C   UNL     1     -12.321   7.103 126.355  0.00  0.00    +0.000 A 
ATOM     16  C   UNL     1     -11.066   7.656 126.442  0.00  0.00    +0.000 A 
ATOM     17  C   UNL     1     -10.717   8.248 127.656  0.00  0.00    +0.000 A 
ENDBRANCH   8  12
ENDBRANCH   4   6
ENDBRANCH   1   4
BRANCH   1  18
ATOM     18  C   UNL     1      -7.807   3.882 129.324  0.00  0.00    +0.000 C 
BRANCH  18  22
ATOM     19  C   UNL     1      -3.916   3.597 127.498  0.00  0.00    +0.000 A 
ATOM     20  C   UNL     1      -4.574   2.377 127.614  0.00  0.00    +0.000 A 
ATOM     21  C   UNL     1      -5.871   2.416 128.281  0.00  0.00    +0.000 A 
ATOM     22  C   UNL     1      -6.583   3.588 128.516  0.00  0.00    +0.000 A 
ATOM     23  C   UNL     1      -6.149   4.579 127.738  0.00  0.00    +0.000 A 
ATOM     24  C   UNL     1      -4.800   4.861 128.068  0.00  0.00    +0.000 A 
BRANCH  19  26
ATOM     25  C   UNL     1      -1.167   2.788 126.409  0.00  0.00    +0.000 C 
ATOM     26  O   UNL     1      -2.271   3.564 127.408  0.00  0.00    +0.000 OA
ENDBRANCH  19  26
BRANCH  24  27
ATOM     27  C   UNL     1      -3.797   6.705 128.866  0.00  0.00    +0.000 C 
ATOM     28  O   UNL     1      -2.547   6.977 128.938  0.00  0.00    +0.000 OA
BRANCH  27  29
ATOM     29  O   UNL     1      -4.250   8.046 129.014  0.00  0.00    +0.000 OA
ATOM     30  H   UNL     1      -3.736   8.653 129.532  0.00  0.00    +0.000 HD
ENDBRANCH  27  29
ENDBRANCH  24  27
ENDBRANCH  18  22
ENDBRANCH   1  18
BRANCH   2  31
ATOM     31  C   UNL     1      -7.500   3.105 133.079  0.00  0.00    +0.000 C 
BRANCH  31  32
ATOM     32  N   UNL     1      -8.497   2.154 133.484  0.00  0.00    +0.000 NA
ATOM     33  H   UNL     1      -8.148   1.405 134.066  0.00  0.00    +0.000 HD
ATOM     34  H   UNL     1      -9.322   1.943 132.964  0.00  0.00    +0.000 HD
ENDBRANCH  31  32
BRANCH  31  35
ATOM     35  C   UNL     1      -6.158   2.861 133.764  0.00  0.00    +0.000 C 
BRANCH  35  36
ATOM     36  C   UNL     1      -5.126   3.958 133.512  0.00  0.00    +0.000 A 
ATOM     37  C   UNL     1      -5.169   5.180 134.205  0.00  0.00    +0.000 A 
ATOM     38  C   UNL     1      -5.947   5.386 135.479  0.00  0.00    +0.000 C 
ATOM     39  C   UNL     1      -4.412   6.258 133.711  0.00  0.00    +0.000 A 
ATOM     40  C   UNL     1      -3.440   6.084 132.721  0.00  0.00    +0.000 A 
ATOM     41  C   UNL     1      -3.328   4.845 132.112  0.00  0.00    +0.000 A 
ATOM     42  C   UNL     1      -4.169   3.799 132.480  0.00  0.00    +0.000 A 
ATOM     43  C   UNL     1      -3.925   2.507 131.775  0.00  0.00    +0.000 C 
BRANCH  40  44
ATOM     44  C   UNL     1      -2.473   7.149 132.336  0.00  0.00    +0.000 C 
ATOM     45  N   UNL     1      -2.974   8.328 131.853  0.00  0.00    +0.000 N 
ATOM     46  O   UNL     1      -1.265   6.995 132.479  0.00  0.00    +0.000 OA
ATOM     47  H   UNL     1      -3.951   8.536 131.740  0.00  0.00    +0.000 HD
ATOM     48  H   UNL     1      -2.318   9.060 131.617  0.00  0.00    +0.000 HD
ENDBRANCH  40  44
ENDBRANCH  35  36
ENDBRANCH  31  35
ENDBRANCH   2  31
TORSDOF 13
ENDMDL
MODEL 2
REMARK VINA RESULT:      -9.3      2.068      2.698
REMARK  Name = Eluxadoline
REMARK  17 active torsions:
REMARK  status: ('A' for Active; 'I' for Inactive)
REMARK    1  A    between atoms: C_1  and  O_2
REMARK    2  A    between atoms: O_2  and  C_3
REMARK    3  A    between atoms: C_6  and  C_7
REMARK    4  A    between atoms: C_7  and  N_8
REMARK    5  A    between atoms: N_8  and  C_9
REMARK    6  A    between atoms: C_9  and  C_10
REMARK    7  A    between atoms: C_9  and  C_11
REMARK    8  A    between atoms: C_13  and  C_16
REMARK    9  A    between atoms: C_22  and  C_24
REMARK   10  A    between atoms: C_24  and  N_25
REMARK   11  A    between atoms: C_24  and  C_26
REMARK   12  A    between atoms: C_26  and  C_27
REMARK   13  A    between atoms: C_28  and  C_29
REMARK   14  A    between atoms: C_31  and  C_35
REMARK   15  A    between atoms: C_33  and  C_34
REMARK   16  A    between atoms: C_39  and  C_40
REMARK   17  A    between atoms: C_40  and  O_41
REMARK                            x       y       z     vdW  Elec       q    Type
REMARK                         _______ _______ _______ _____ _____    ______ ____
ROOT
ATOM      1  N   UNL     1      -7.752   4.341 130.974  0.00  0.00    +0.000 N 
ATOM      2  C   UNL     1      -7.345   3.207 131.739  0.00  0.00    +0.000 C 
ATOM      3  O   UNL     1      -7.212   2.081 131.255  0.00  0.00    +0.000 OA
ENDROOT
BRANCH   1   4
ATOM      4  C   UNL     1      -7.947   5.722 131.633  0.00  0.00    +0.000 C 
ATOM      5  C   UNL     1      -7.047   6.792 131.074  0.00  0.00    +0.000 C 
BRANCH   4   6
ATOM      6  C   UNL     1      -9.264   6.420 131.561  0.00  0.00    +0.000 A 
ATOM      7  N   UNL     1      -9.623   7.348 130.382  0.00  0.00    +0.000 NA
ATOM      8  C   UNL     1     -11.406   7.694 130.180  0.00  0.00    +0.000 A 
ATOM      9  C   UNL     1     -12.256   6.837 131.697  0.00  0.00    +0.000 A 
ATOM     10  N   UNL     1     -10.788   6.007 132.564  0.00  0.00    +0.000 N 
ATOM     11  H   UNL     1     -10.766   5.354 133.337  0.00  0.00    +0.000 HD
BRANCH   8  12
ATOM     12  C   UNL     1     -11.628   8.089 128.714  0.00  0.00    +0.000 A 
ATOM     13  C   UNL     1     -12.937   7.913 128.485  0.00  0.00    +0.000 A 
ATOM     14  C   UNL     1     -13.232   7.185 127.343  0.00  0.00    +0.000 A 
ATOM     15  C   UNL     1     -12.348   7.083 126.277  0.00  0.00    +0.000 A 
ATOM     16  C   UNL     1     -11.086   7.616 126.384  0.00  0.00    +0.000 A 
ATOM     17  C   UNL     1     -10.764   8.244 127.588  0.00  0.00    +0.000 A 
ENDBRANCH   8  12
ENDBRANCH   4   6
ENDBRANCH   1   4
BRANCH   1  18
ATOM     18  C   UNL     1      -8.067   3.975 129.539  0.00  0.00    +0.000 C 
BRANCH  18  22
ATOM     19  C   UNL     1      -5.362   3.619 126.205  0.00  0.00    +0.000 A 
ATOM     20  C   UNL     1      -4.814   4.267 127.307  0.00  0.00    +0.000 A 
ATOM     21  C   UNL     1      -5.714   4.464 128.440  0.00  0.00    +0.000 A 
ATOM     22  C   UNL     1      -6.928   3.800 128.586  0.00  0.00    +0.000 A 
ATOM     23  C   UNL     1      -6.980   2.718 127.810  0.00  0.00    +0.000 A 
ATOM     24  C   UNL     1      -6.910   3.123 126.454  0.00  0.00    +0.000 A 
BRANCH  19  26
ATOM     25  C   UNL     1      -5.333   4.445 123.253  0.00  0.00    +0.000 C 
ATOM     26  O   UNL     1      -4.706   3.949 124.730  0.00  0.00    +0.000 OA
ENDBRANCH  19  26
BRANCH  24  27
ATOM     27  C   UNL     1      -8.343   2.905 124.739  0.00  0.00    +0.000 C 
ATOM     28  O   UNL     1      -9.511   2.379 124.724  0.00  0.00    +0.000 OA
BRANCH  27  29
ATOM     29  O   UNL     1      -8.493   3.636 123.526  0.00  0.00    +0.000 OA
ATOM     30  H   UNL     1      -7.976   3.388 122.771  0.00  0.00    +0.000 HD
ENDBRANCH  27  29
ENDBRANCH  24  27
ENDBRANCH  18  22
ENDBRANCH   1  18
BRANCH   2  31
ATOM     31  C   UNL     1      -7.230   3.411 133.251  0.00  0.00    +0.000 C 
BRANCH  31  32
ATOM     32  N   UNL     1      -8.240   2.553 133.802  0.00  0.00    +0.000 NA
ATOM     33  H   UNL     1      -7.885   1.812 134.391  0.00  0.00    +0.000 HD
ATOM     34  H   UNL     1      -9.125   2.372 133.376  0.00  0.00    +0.000 HD
ENDBRANCH  31  32
BRANCH  31  35
ATOM     35  C   UNL     1      -5.843   3.098 133.806  0.00  0.00    +0.000 C 
BRANCH  35  36
ATOM     36  C   UNL     1      -4.725   3.928 133.179  0.00  0.00    +0.000 A 
ATOM     37  C   UNL     1      -4.581   5.298 133.460  0.00  0.00    +0.000 A 
ATOM     38  C   UNL     1      -5.223   5.976 134.642  0.00  0.00    +0.000 C 
ATOM     39  C   UNL     1      -3.757   6.072 132.622  0.00  0.00    +0.000 A 
ATOM     40  C   UNL     1      -2.894   5.485 131.691  0.00  0.00    +0.000 A 
ATOM     41  C   UNL     1      -2.964   4.116 131.492  0.00  0.00    +0.000 A 
ATOM     42  C   UNL     1      -3.878   3.346 132.204  0.00  0.00    +0.000 A 
ATOM     43  C   UNL     1      -3.832   1.881 131.923  0.00  0.00    +0.000 C 
BRANCH  40  44
ATOM     44  C   UNL     1      -1.855   6.253 130.951  0.00  0.00    +0.000 C 
ATOM     45  N   UNL     1      -0.687   6.545 131.602  0.00  0.00    +0.000 N 
ATOM     46  O   UNL     1      -2.018   6.582 129.781  0.00  0.00    +0.000 OA
ATOM     47  H   UNL     1      -0.470   6.279 132.547  0.00  0.00    +0.000 HD
ATOM     48  H   UNL     1       0.030   7.043 131.090  0.00  0.00    +0.000 HD
ENDBRANCH  40  44
ENDBRANCH  35  36
ENDBRANCH  31  35
ENDBRANCH   2  31
TORSDOF 13
ENDMDL
MODEL 3
REMARK VINA RESULT:      -9.2      2.116      2.982
REMARK  Name = Eluxadoline
REMARK  17 active torsions:
REMARK  status: ('A' for Active; 'I' for Inactive)
REMARK    1  A    between atoms: C_1  and  O_2
REMARK    2  A    between atoms: O_2  and  C_3
REMARK    3  A    between atoms: C_6  and  C_7
REMARK    4  A    between atoms: C_7  and  N_8
REMARK    5  A    between atoms: N_8  and  C_9
REMARK    6  A    between atoms: C_9  and  C_10
REMARK    7  A    between atoms: C_9  and  C_11
REMARK    8  A    between atoms: C_13  and  C_16
REMARK    9  A    between atoms: C_22  and  C_24
REMARK   10  A    between atoms: C_24  and  N_25
REMARK   11  A    between atoms: C_24  and  C_26
REMARK   12  A    between atoms: C_26  and  C_27
REMARK   13  A    between atoms: C_28  and  C_29
REMARK   14  A    between atoms: C_31  and  C_35
REMARK   15  A    between atoms: C_33  and  C_34
REMARK   16  A    between atoms: C_39  and  C_40
REMARK   17  A    between atoms: C_40  and  O_41
REMARK                            x       y       z     vdW  Elec       q    Type
REMARK                         _______ _______ _______ _____ _____    ______ ____
ROOT
ATOM      1  N   UNL     1      -7.888   3.930 132.048  0.00  0.00    +0.000 N 
ATOM      2  C   UNL     1      -6.990   3.428 133.037  0.00  0.00    +0.000 C 
ATOM      3  O   UNL     1      -6.980   2.250 133.402  0.00  0.00    +0.000 OA
ENDROOT
BRANCH   1   4
ATOM      4  C   UNL     1      -7.892   5.422 131.654  0.00  0.00    +0.000 C 
ATOM      5  C   UNL     1      -7.367   5.684 130.268  0.00  0.00    +0.000 C 
BRANCH   4   6
ATOM      6  C   UNL     1      -9.169   6.192 131.603  0.00  0.00    +0.000 A 
ATOM      7  N   UNL     1      -9.486   7.153 130.439  0.00  0.00    +0.000 NA
ATOM      8  C   UNL     1     -11.249   7.600 130.256  0.00  0.00    +0.000 A 
ATOM      9  C   UNL     1     -12.133   6.771 131.769  0.00  0.00    +0.000 A 
ATOM     10  N   UNL     1     -10.706   5.849 132.613  0.00  0.00    +0.000 N 
ATOM     11  H   UNL     1     -10.714   5.186 133.377  0.00  0.00    +0.000 HD
BRANCH   8  12
ATOM     12  C   UNL     1     -11.459   8.027 128.797  0.00  0.00    +0.000 A 
ATOM     13  C   UNL     1     -12.784   7.985 128.595  0.00  0.00    +0.000 A 
ATOM     14  C   UNL     1     -13.175   7.299 127.456  0.00  0.00    +0.000 A 
ATOM     15  C   UNL     1     -12.328   7.117 126.371  0.00  0.00    +0.000 A 
ATOM     16  C   UNL     1     -11.016   7.519 126.454  0.00  0.00    +0.000 A 
ATOM     17  C   UNL     1     -10.607   8.101 127.655  0.00  0.00    +0.000 A 
ENDBRANCH   8  12
ENDBRANCH   4   6
ENDBRANCH   1   4
BRANCH   1  18
ATOM     18  C   UNL     1      -8.859   2.870 131.572  0.00  0.00    +0.000 C 
BRANCH  18  22
ATOM     19  C   UNL     1      -7.391   1.065 127.946  0.00  0.00    +0.000 A 
ATOM     20  C   UNL     1      -7.187   0.290 129.083  0.00  0.00    +0.000 A 
ATOM     21  C   UNL     1      -7.615   0.888 130.344  0.00  0.00    +0.000 A 
ATOM     22  C   UNL     1      -8.451   1.997 130.428  0.00  0.00    +0.000 A 
ATOM     23  C   UNL     1      -9.107   2.192 129.286  0.00  0.00    +0.000 A 
ATOM     24  C   UNL     1      -8.169   2.479 128.263  0.00  0.00    +0.000 A 
BRANCH  19  26
ATOM     25  C   UNL     1      -5.004   1.577 126.092  0.00  0.00    +0.000 C 
ATOM     26  O   UNL     1      -6.384   0.812 126.667  0.00  0.00    +0.000 OA
ENDBRANCH  19  26
BRANCH  24  27
ATOM     27  C   UNL     1      -7.863   4.282 126.960  0.00  0.00    +0.000 C 
ATOM     28  O   UNL     1      -6.768   4.834 126.589  0.00  0.00    +0.000 OA
BRANCH  27  29
ATOM     29  O   UNL     1      -8.679   4.881 125.958  0.00  0.00    +0.000 OA
ATOM     30  H   UNL     1      -8.586   4.598 125.057  0.00  0.00    +0.000 HD
ENDBRANCH  27  29
ENDBRANCH  24  27
ENDBRANCH  18  22
ENDBRANCH   1  18
BRANCH   2  31
ATOM     31  C   UNL     1      -6.124   4.462 133.759  0.00  0.00    +0.000 C 
BRANCH  31  32
ATOM     32  N   UNL     1      -6.615   4.456 135.108  0.00  0.00    +0.000 NA
ATOM     33  H   UNL     1      -5.900   4.562 135.814  0.00  0.00    +0.000 HD
ATOM     34  H   UNL     1      -7.444   3.987 135.406  0.00  0.00    +0.000 HD
ENDBRANCH  31  32
BRANCH  31  35
ATOM     35  C   UNL     1      -4.629   4.162 133.688  0.00  0.00    +0.000 C 
BRANCH  35  36
ATOM     36  C   UNL     1      -3.968   4.617 132.389  0.00  0.00    +0.000 A 
ATOM     37  C   UNL     1      -3.602   5.958 132.181  0.00  0.00    +0.000 A 
ATOM     38  C   UNL     1      -3.464   6.964 133.293  0.00  0.00    +0.000 C 
ATOM     39  C   UNL     1      -3.306   6.377 130.870  0.00  0.00    +0.000 A 
ATOM     40  C   UNL     1      -3.119   5.463 129.829  0.00  0.00    +0.000 A 
ATOM     41  C   UNL     1      -3.379   4.123 130.067  0.00  0.00    +0.000 A 
ATOM     42  C   UNL     1      -3.818   3.702 131.318  0.00  0.00    +0.000 A 
ATOM     43  C   UNL     1      -4.029   2.231 131.457  0.00  0.00    +0.000 C 
BRANCH  40  44
ATOM     44  C   UNL     1      -2.590   5.851 128.492  0.00  0.00    +0.000 C 
ATOM     45  N   UNL     1      -2.290   4.853 127.605  0.00  0.00    +0.000 N 
ATOM     46  O   UNL     1      -2.459   7.029 128.175  0.00  0.00    +0.000 OA
ATOM     47  H   UNL     1      -2.403   3.869 127.783  0.00  0.00    +0.000 HD
ATOM     48  H   UNL     1      -1.956   5.117 126.688  0.00  0.00    +0.000 HD
ENDBRANCH  40  44
ENDBRANCH  35  36
ENDBRANCH  31  35
ENDBRANCH   2  31
TORSDOF 13
ENDMDL
MODEL 4
REMARK VINA RESULT:      -9.1      3.666      6.944
REMARK  Name = Eluxadoline
REMARK  17 active torsions:
REMARK  status: ('A' for Active; 'I' for Inactive)
REMARK    1  A    between atoms: C_1  and  O_2
REMARK    2  A    between atoms: O_2  and  C_3
REMARK    3  A    between atoms: C_6  and  C_7
REMARK    4  A    between atoms: C_7  and  N_8
REMARK    5  A    between atoms: N_8  and  C_9
REMARK    6  A    between atoms: C_9  and  C_10
REMARK    7  A    between atoms: C_9  and  C_11
REMARK    8  A    between atoms: C_13  and  C_16
REMARK    9  A    between atoms: C_22  and  C_24
REMARK   10  A    between atoms: C_24  and  N_25
REMARK   11  A    between atoms: C_24  and  C_26
REMARK   12  A    between atoms: C_26  and  C_27
REMARK   13  A    between atoms: C_28  and  C_29
REMARK   14  A    between atoms: C_31  and  C_35
REMARK   15  A    between atoms: C_33  and  C_34
REMARK   16  A    between atoms: C_39  and  C_40
REMARK   17  A    between atoms: C_40  and  O_41
REMARK                            x       y       z     vdW  Elec       q    Type
REMARK                         _______ _______ _______ _____ _____    ______ ____
ROOT
ATOM      1  N   UNL     1      -5.676   1.791 130.677  0.00  0.00    +0.000 N 
ATOM      2  C   UNL     1      -5.164   2.776 131.575  0.00  0.00    +0.000 C 
ATOM      3  O   UNL     1      -3.986   3.141 131.573  0.00  0.00    +0.000 OA
ENDROOT
BRANCH   1   4
ATOM      4  C   UNL     1      -7.148   1.335 130.746  0.00  0.00    +0.000 C 
ATOM      5  C   UNL     1      -8.092   2.217 129.973  0.00  0.00    +0.000 C 
BRANCH   4   6
ATOM      6  C   UNL     1      -7.555  -0.005 130.229  0.00  0.00    +0.000 A 
ATOM      7  N   UNL     1      -7.906  -0.224 128.743  0.00  0.00    +0.000 NA
ATOM      8  C   UNL     1      -7.870  -1.964 128.184  0.00  0.00    +0.000 A 
ATOM      9  C   UNL     1      -7.521  -2.996 129.787  0.00  0.00    +0.000 A 
ATOM     10  N   UNL     1      -7.313  -1.642 131.100  0.00  0.00    +0.000 N 
ATOM     11  H   UNL     1      -7.008  -1.704 132.063  0.00  0.00    +0.000 HD
BRANCH   8  12
ATOM     12  C   UNL     1      -7.650  -1.947 126.666  0.00  0.00    +0.000 A 
ATOM     13  C   UNL     1      -8.781  -2.427 126.130  0.00  0.00    +0.000 A 
ATOM     14  C   UNL     1      -8.597  -3.428 125.190  0.00  0.00    +0.000 A 
ATOM     15  C   UNL     1      -7.409  -3.579 124.487  0.00  0.00    +0.000 A 
ATOM     16  C   UNL     1      -6.327  -2.794 124.802  0.00  0.00    +0.000 A 
ATOM     17  C   UNL     1      -6.492  -1.870 125.834  0.00  0.00    +0.000 A 
ENDBRANCH   8  12
ENDBRANCH   4   6
ENDBRANCH   1   4
BRANCH   1  18
ATOM     18  C   UNL     1      -4.592   1.209 129.794  0.00  0.00    +0.000 C 
BRANCH  18  22
ATOM     19  C   UNL     1      -4.752   3.202 125.978  0.00  0.00    +0.000 A 
ATOM     20  C   UNL     1      -3.562   3.407 126.671  0.00  0.00    +0.000 A 
ATOM     21  C   UNL     1      -3.487   2.799 127.996  0.00  0.00    +0.000 A 
ATOM     22  C   UNL     1      -4.369   1.823 128.449  0.00  0.00    +0.000 A 
ATOM     23  C   UNL     1      -5.011   1.247 127.434  0.00  0.00    +0.000 A 
ATOM     24  C   UNL     1      -5.802   2.223 126.780  0.00  0.00    +0.000 A 
BRANCH  19  26
ATOM     25  C   UNL     1      -5.671   4.283 123.260  0.00  0.00    +0.000 C 
ATOM     26  O   UNL     1      -5.185   4.339 124.868  0.00  0.00    +0.000 OA
ENDBRANCH  19  26
BRANCH  24  27
ATOM     27  C   UNL     1      -8.018   2.403 126.463  0.00  0.00    +0.000 C 
ATOM     28  O   UNL     1      -8.667   3.256 125.759  0.00  0.00    +0.000 OA
BRANCH  27  29
ATOM     29  O   UNL     1      -9.072   1.450 126.552  0.00  0.00    +0.000 OA
ATOM     30  H   UNL     1      -9.137   0.905 127.326  0.00  0.00    +0.000 HD
ENDBRANCH  27  29
ENDBRANCH  24  27
ENDBRANCH  18  22
ENDBRANCH   1  18
BRANCH   2  31
ATOM     31  C   UNL     1      -6.116   3.260 132.671  0.00  0.00    +0.000 C 
BRANCH  31  32
ATOM     32  N   UNL     1      -5.634   2.624 133.864  0.00  0.00    +0.000 NA
ATOM     33  H   UNL     1      -6.334   2.496 134.582  0.00  0.00    +0.000 HD
ATOM     34  H   UNL     1      -4.692   2.671 134.190  0.00  0.00    +0.000 HD
ENDBRANCH  31  32
BRANCH  31  35
ATOM     35  C   UNL     1      -6.167   4.779 132.808  0.00  0.00    +0.000 C 
BRANCH  35  36
ATOM     36  C   UNL     1      -7.528   5.385 132.473  0.00  0.00    +0.000 A 
ATOM     37  C   UNL     1      -8.711   4.901 133.058  0.00  0.00    +0.000 A 
ATOM     38  C   UNL     1      -8.736   4.050 134.300  0.00  0.00    +0.000 C 
ATOM     39  C   UNL     1      -9.942   5.264 132.480  0.00  0.00    +0.000 A 
ATOM     40  C   UNL     1     -10.035   6.276 131.520  0.00  0.00    +0.000 A 
ATOM     41  C   UNL     1      -8.866   6.828 131.021  0.00  0.00    +0.000 A 
ATOM     42  C   UNL     1      -7.628   6.379 131.469  0.00  0.00    +0.000 A 
ATOM     43  C   UNL     1      -6.447   7.076 130.881  0.00  0.00    +0.000 C 
BRANCH  40  44
ATOM     44  C   UNL     1     -11.334   6.837 131.054  0.00  0.00    +0.000 C 
ATOM     45  N   UNL     1     -11.330   7.619 129.931  0.00  0.00    +0.000 N 
ATOM     46  O   UNL     1     -12.384   6.579 131.633  0.00  0.00    +0.000 OA
ATOM     47  H   UNL     1     -10.514   7.844 129.387  0.00  0.00    +0.000 HD
ATOM     48  H   UNL     1     -12.215   7.977 129.599  0.00  0.00    +0.000 HD
ENDBRANCH  40  44
ENDBRANCH  35  36
ENDBRANCH  31  35
ENDBRANCH   2  31
TORSDOF 13
ENDMDL
MODEL 5
REMARK VINA RESULT:      -9.1      4.034      7.648
REMARK  Name = Eluxadoline
REMARK  17 active torsions:
REMARK  status: ('A' for Active; 'I' for Inactive)
REMARK    1  A    between atoms: C_1  and  O_2
REMARK    2  A    between atoms: O_2  and  C_3
REMARK    3  A    between atoms: C_6  and  C_7
REMARK    4  A    between atoms: C_7  and  N_8
REMARK    5  A    between atoms: N_8  and  C_9
REMARK    6  A    between atoms: C_9  and  C_10
REMARK    7  A    between atoms: C_9  and  C_11
REMARK    8  A    between atoms: C_13  and  C_16
REMARK    9  A    between atoms: C_22  and  C_24
REMARK   10  A    between atoms: C_24  and  N_25
REMARK   11  A    between atoms: C_24  and  C_26
REMARK   12  A    between atoms: C_26  and  C_27
REMARK   13  A    between atoms: C_28  and  C_29
REMARK   14  A    between atoms: C_31  and  C_35
REMARK   15  A    between atoms: C_33  and  C_34
REMARK   16  A    between atoms: C_39  and  C_40
REMARK   17  A    between atoms: C_40  and  O_41
REMARK                            x       y       z     vdW  Elec       q    Type
REMARK                         _______ _______ _______ _____ _____    ______ ____
ROOT
ATOM      1  N   UNL     1      -8.194   1.233 130.203  0.00  0.00    +0.000 N 
ATOM      2  C   UNL     1      -7.690  -0.102 130.168  0.00  0.00    +0.000 C 
ATOM      3  O   UNL     1      -8.065  -0.984 130.944  0.00  0.00    +0.000 OA
ENDROOT
BRANCH   1   4
ATOM      4  C   UNL     1      -7.662   2.314 129.239  0.00  0.00    +0.000 C 
ATOM      5  C   UNL     1      -8.286   2.263 127.870  0.00  0.00    +0.000 C 
BRANCH   4   6
ATOM      6  C   UNL     1      -7.830   3.763 129.553  0.00  0.00    +0.000 A 
ATOM      7  N   UNL     1      -9.125   4.521 129.195  0.00  0.00    +0.000 NA
ATOM      8  C   UNL     1      -9.376   6.096 130.088  0.00  0.00    +0.000 A 
ATOM      9  C   UNL     1      -7.759   6.343 131.129  0.00  0.00    +0.000 A 
ATOM     10  N   UNL     1      -6.785   4.763 130.738  0.00  0.00    +0.000 N 
ATOM     11  H   UNL     1      -5.930   4.402 131.143  0.00  0.00    +0.000 HD
BRANCH   8  12
ATOM     12  C   UNL     1     -10.882   6.388 130.077  0.00  0.00    +0.000 A 
ATOM     13  C   UNL     1     -11.092   7.175 129.013  0.00  0.00    +0.000 A 
ATOM     14  C   UNL     1     -11.837   8.315 129.273  0.00  0.00    +0.000 A 
ATOM     15  C   UNL     1     -12.708   8.404 130.351  0.00  0.00    +0.000 A 
ATOM     16  C   UNL     1     -12.761   7.384 131.270  0.00  0.00    +0.000 A 
ATOM     17  C   UNL     1     -11.916   6.294 131.057  0.00  0.00    +0.000 A 
ENDBRANCH   8  12
ENDBRANCH   4   6
ENDBRANCH   1   4
BRANCH   1  18
ATOM     18  C   UNL     1      -9.169   1.442 131.343  0.00  0.00    +0.000 C 
BRANCH  18  22
ATOM     19  C   UNL     1      -7.132   3.754 134.353  0.00  0.00    +0.000 A 
ATOM     20  C   UNL     1      -8.490   4.040 134.247  0.00  0.00    +0.000 A 
ATOM     21  C   UNL     1      -9.209   3.323 133.198  0.00  0.00    +0.000 A 
ATOM     22  C   UNL     1      -8.705   2.205 132.542  0.00  0.00    +0.000 A 
ATOM     23  C   UNL     1      -7.708   1.651 133.231  0.00  0.00    +0.000 A 
ATOM     24  C   UNL     1      -6.639   2.578 133.314  0.00  0.00    +0.000 A 
BRANCH  19  26
ATOM     25  C   UNL     1      -5.086   6.036 134.312  0.00  0.00    +0.000 C 
ATOM     26  O   UNL     1      -6.158   4.927 134.976  0.00  0.00    +0.000 OA
ENDBRANCH  19  26
BRANCH  24  27
ATOM     27  C   UNL     1      -4.521   2.507 132.573  0.00  0.00    +0.000 C 
ATOM     28  O   UNL     1      -4.088   2.447 131.368  0.00  0.00    +0.000 OA
BRANCH  27  29
ATOM     29  O   UNL     1      -3.296   2.948 133.150  0.00  0.00    +0.000 OA
ATOM     30  H   UNL     1      -2.558   3.131 132.582  0.00  0.00    +0.000 HD
ENDBRANCH  27  29
ENDBRANCH  24  27
ENDBRANCH  18  22
ENDBRANCH   1  18
BRANCH   2  31
ATOM     31  C   UNL     1      -6.526  -0.366 129.212  0.00  0.00    +0.000 C 
BRANCH  31  32
ATOM     32  N   UNL     1      -5.359   0.003 129.963  0.00  0.00    +0.000 NA
ATOM     33  H   UNL     1      -5.473  -0.050 130.966  0.00  0.00    +0.000 HD
ATOM     34  H   UNL     1      -4.659   0.640 129.645  0.00  0.00    +0.000 HD
ENDBRANCH  31  32
BRANCH  31  35
ATOM     35  C   UNL     1      -6.459  -1.808 128.715  0.00  0.00    +0.000 C 
BRANCH  35  36
ATOM     36  C   UNL     1      -7.131  -2.028 127.362  0.00  0.00    +0.000 A 
ATOM     37  C   UNL     1      -6.686  -1.368 126.204  0.00  0.00    +0.000 A 
ATOM     38  C   UNL     1      -5.333  -0.716 126.088  0.00  0.00    +0.000 C 
ATOM     39  C   UNL     1      -7.527  -1.352 125.076  0.00  0.00    +0.000 A 
ATOM     40  C   UNL     1      -8.656  -2.171 124.986  0.00  0.00    +0.000 A 
ATOM     41  C   UNL     1      -9.034  -2.905 126.099  0.00  0.00    +0.000 A 
ATOM     42  C   UNL     1      -8.301  -2.823 127.279  0.00  0.00    +0.000 A 
ATOM     43  C   UNL     1      -8.790  -3.687 128.393  0.00  0.00    +0.000 C 
BRANCH  40  44
ATOM     44  C   UNL     1      -9.436  -2.344 123.730  0.00  0.00    +0.000 C 
ATOM     45  N   UNL     1      -9.908  -3.595 123.434  0.00  0.00    +0.000 N 
ATOM     46  O   UNL     1      -9.686  -1.393 122.997  0.00  0.00    +0.000 OA
ATOM     47  H   UNL     1      -9.771  -4.413 124.003  0.00  0.00    +0.000 HD
ATOM     48  H   UNL     1     -10.461  -3.707 122.595  0.00  0.00    +0.000 HD
ENDBRANCH  40  44
ENDBRANCH  35  36
ENDBRANCH  31  35
ENDBRANCH   2  31
TORSDOF 13
ENDMDL
MODEL 6
REMARK VINA RESULT:      -8.9      2.273      4.468
REMARK  Name = Eluxadoline
REMARK  17 active torsions:
REMARK  status: ('A' for Active; 'I' for Inactive)
REMARK    1  A    between atoms: C_1  and  O_2
REMARK    2  A    between atoms: O_2  and  C_3
REMARK    3  A    between atoms: C_6  and  C_7
REMARK    4  A    between atoms: C_7  and  N_8
REMARK    5  A    between atoms: N_8  and  C_9
REMARK    6  A    between atoms: C_9  and  C_10
REMARK    7  A    between atoms: C_9  and  C_11
REMARK    8  A    between atoms: C_13  and  C_16
REMARK    9  A    between atoms: C_22  and  C_24
REMARK   10  A    between atoms: C_24  and  N_25
REMARK   11  A    between atoms: C_24  and  C_26
REMARK   12  A    between atoms: C_26  and  C_27
REMARK   13  A    between atoms: C_28  and  C_29
REMARK   14  A    between atoms: C_31  and  C_35
REMARK   15  A    between atoms: C_33  and  C_34
REMARK   16  A    between atoms: C_39  and  C_40
REMARK   17  A    between atoms: C_40  and  O_41
REMARK                            x       y       z     vdW  Elec       q    Type
REMARK                         _______ _______ _______ _____ _____    ______ ____
ROOT
ATOM      1  N   UNL     1      -7.683   4.180 132.610  0.00  0.00    +0.000 N 
ATOM      2  C   UNL     1      -6.556   4.264 133.481  0.00  0.00    +0.000 C 
ATOM      3  O   UNL     1      -6.343   3.455 134.387  0.00  0.00    +0.000 OA
ENDROOT
BRANCH   1   4
ATOM      4  C   UNL     1      -7.932   5.242 131.519  0.00  0.00    +0.000 C 
ATOM      5  C   UNL     1      -7.996   4.674 130.126  0.00  0.00    +0.000 C 
BRANCH   4   6
ATOM      6  C   UNL     1      -9.176   6.065 131.527  0.00  0.00    +0.000 A 
ATOM      7  N   UNL     1      -9.500   7.049 130.383  0.00  0.00    +0.000 NA
ATOM      8  C   UNL     1     -11.248   7.571 130.278  0.00  0.00    +0.000 A 
ATOM      9  C   UNL     1     -12.102   6.767 131.822  0.00  0.00    +0.000 A 
ATOM     10  N   UNL     1     -10.682   5.779 132.598  0.00  0.00    +0.000 N 
ATOM     11  H   UNL     1     -10.686   5.110 133.358  0.00  0.00    +0.000 HD
BRANCH   8  12
ATOM     12  C   UNL     1     -11.502   8.018 128.832  0.00  0.00    +0.000 A 
ATOM     13  C   UNL     1     -12.820   7.875 128.634  0.00  0.00    +0.000 A 
ATOM     14  C   UNL     1     -13.161   7.190 127.478  0.00  0.00    +0.000 A 
ATOM     15  C   UNL     1     -12.309   7.106 126.385  0.00  0.00    +0.000 A 
ATOM     16  C   UNL     1     -11.034   7.611 126.475  0.00  0.00    +0.000 A 
ATOM     17  C   UNL     1     -10.666   8.192 127.688  0.00  0.00    +0.000 A 
ENDBRANCH   8  12
ENDBRANCH   4   6
ENDBRANCH   1   4
BRANCH   1  18
ATOM     18  C   UNL     1      -8.606   3.039 132.984  0.00  0.00    +0.000 C 
BRANCH  18  22
ATOM     19  C   UNL     1      -7.445  -0.494 130.809  0.00  0.00    +0.000 A 
ATOM     20  C   UNL     1      -7.114  -0.531 132.161  0.00  0.00    +0.000 A 
ATOM     21  C   UNL     1      -7.435   0.671 132.925  0.00  0.00    +0.000 A 
ATOM     22  C   UNL     1      -8.287   1.672 132.469  0.00  0.00    +0.000 A 
ATOM     23  C   UNL     1      -9.054   1.233 131.472  0.00  0.00    +0.000 A 
ATOM     24  C   UNL     1      -8.224   0.887 130.376  0.00  0.00    +0.000 A 
BRANCH  19  26
ATOM     25  C   UNL     1      -6.571  -3.065 129.388  0.00  0.00    +0.000 C 
ATOM     26  O   UNL     1      -6.558  -1.434 129.788  0.00  0.00    +0.000 OA
ENDBRANCH  19  26
BRANCH  24  27
ATOM     27  C   UNL     1      -8.089   1.679 128.278  0.00  0.00    +0.000 C 
ATOM     28  O   UNL     1      -9.034   1.985 127.468  0.00  0.00    +0.000 OA
BRANCH  27  29
ATOM     29  O   UNL     1      -7.069   2.404 127.599  0.00  0.00    +0.000 OA
ATOM     30  H   UNL     1      -7.131   3.349 127.547  0.00  0.00    +0.000 HD
ENDBRANCH  27  29
ENDBRANCH  24  27
ENDBRANCH  18  22
ENDBRANCH   1  18
BRANCH   2  31
ATOM     31  C   UNL     1      -5.684   5.514 133.349  0.00  0.00    +0.000 C 
BRANCH  31  32
ATOM     32  N   UNL     1      -5.592   6.026 134.687  0.00  0.00    +0.000 NA
ATOM     33  H   UNL     1      -5.720   5.332 135.410  0.00  0.00    +0.000 HD
ATOM     34  H   UNL     1      -5.810   6.963 134.951  0.00  0.00    +0.000 HD
ENDBRANCH  31  32
BRANCH  31  35
ATOM     35  C   UNL     1      -4.310   5.239 132.741  0.00  0.00    +0.000 C 
BRANCH  35  36
ATOM     36  C   UNL     1      -4.349   4.900 131.253  0.00  0.00    +0.000 A 
ATOM     37  C   UNL     1      -4.165   3.585 130.793  0.00  0.00    +0.000 A 
ATOM     38  C   UNL     1      -4.297   2.371 131.674  0.00  0.00    +0.000 C 
ATOM     39  C   UNL     1      -3.887   3.384 129.428  0.00  0.00    +0.000 A 
ATOM     40  C   UNL     1      -4.038   4.407 128.487  0.00  0.00    +0.000 A 
ATOM     41  C   UNL     1      -4.325   5.686 128.936  0.00  0.00    +0.000 A 
ATOM     42  C   UNL     1      -4.457   5.941 130.298  0.00  0.00    +0.000 A 
ATOM     43  C   UNL     1      -4.801   7.349 130.651  0.00  0.00    +0.000 C 
BRANCH  40  44
ATOM     44  C   UNL     1      -3.970   4.176 127.018  0.00  0.00    +0.000 C 
ATOM     45  N   UNL     1      -5.067   4.499 126.265  0.00  0.00    +0.000 N 
ATOM     46  O   UNL     1      -2.952   3.745 126.486  0.00  0.00    +0.000 OA
ATOM     47  H   UNL     1      -5.921   4.886 126.627  0.00  0.00    +0.000 HD
ATOM     48  H   UNL     1      -5.011   4.367 125.264  0.00  0.00    +0.000 HD
ENDBRANCH  40  44
ENDBRANCH  35  36
ENDBRANCH  31  35
ENDBRANCH   2  31
TORSDOF 13
ENDMDL
MODEL 7
REMARK VINA RESULT:      -8.9      3.765      7.071
REMARK  Name = Eluxadoline
REMARK  17 active torsions:
REMARK  status: ('A' for Active; 'I' for Inactive)
REMARK    1  A    between atoms: C_1  and  O_2
REMARK    2  A    between atoms: O_2  and  C_3
REMARK    3  A    between atoms: C_6  and  C_7
REMARK    4  A    between atoms: C_7  and  N_8
REMARK    5  A    between atoms: N_8  and  C_9
REMARK    6  A    between atoms: C_9  and  C_10
REMARK    7  A    between atoms: C_9  and  C_11
REMARK    8  A    between atoms: C_13  and  C_16
REMARK    9  A    between atoms: C_22  and  C_24
REMARK   10  A    between atoms: C_24  and  N_25
REMARK   11  A    between atoms: C_24  and  C_26
REMARK   12  A    between atoms: C_26  and  C_27
REMARK   13  A    between atoms: C_28  and  C_29
REMARK   14  A    between atoms: C_31  and  C_35
REMARK   15  A    between atoms: C_33  and  C_34
REMARK   16  A    between atoms: C_39  and  C_40
REMARK   17  A    between atoms: C_40  and  O_41
REMARK                            x       y       z     vdW  Elec       q    Type
REMARK                         _______ _______ _______ _____ _____    ______ ____
ROOT
ATOM      1  N   UNL     1      -6.655   2.093 130.867  0.00  0.00    +0.000 N 
ATOM      2  C   UNL     1      -5.884   3.185 131.366  0.00  0.00    +0.000 C 
ATOM      3  O   UNL     1      -5.037   3.776 130.693  0.00  0.00    +0.000 OA
ENDROOT
BRANCH   1   4
ATOM      4  C   UNL     1      -7.673   1.356 131.762  0.00  0.00    +0.000 C 
ATOM      5  C   UNL     1      -9.107   1.599 131.374  0.00  0.00    +0.000 C 
BRANCH   4   6
ATOM      6  C   UNL     1      -7.671  -0.133 131.850  0.00  0.00    +0.000 A 
ATOM      7  N   UNL     1      -8.146  -1.012 130.674  0.00  0.00    +0.000 NA
ATOM      8  C   UNL     1      -7.604  -2.756 130.738  0.00  0.00    +0.000 A 
ATOM      9  C   UNL     1      -6.686  -2.931 132.437  0.00  0.00    +0.000 A 
ATOM     10  N   UNL     1      -6.758  -1.162 133.117  0.00  0.00    +0.000 N 
ATOM     11  H   UNL     1      -6.310  -0.751 133.926  0.00  0.00    +0.000 HD
BRANCH   8  12
ATOM     12  C   UNL     1      -7.633  -3.293 129.301  0.00  0.00    +0.000 A 
ATOM     13  C   UNL     1      -6.436  -2.991 128.777  0.00  0.00    +0.000 A 
ATOM     14  C   UNL     1      -6.487  -2.373 127.537  0.00  0.00    +0.000 A 
ATOM     15  C   UNL     1      -7.575  -2.503 126.685  0.00  0.00    +0.000 A 
ATOM     16  C   UNL     1      -8.700  -3.166 127.113  0.00  0.00    +0.000 A 
ATOM     17  C   UNL     1      -8.678  -3.681 128.410  0.00  0.00    +0.000 A 
ENDBRANCH   8  12
ENDBRANCH   4   6
ENDBRANCH   1   4
BRANCH   1  18
ATOM     18  C   UNL     1      -6.252   1.711 129.457  0.00  0.00    +0.000 C 
BRANCH  18  22
ATOM     19  C   UNL     1      -8.605   2.218 125.885  0.00  0.00    +0.000 A 
ATOM     20  C   UNL     1      -8.913   1.066 126.603  0.00  0.00    +0.000 A 
ATOM     21  C   UNL     1      -8.099   0.822 127.790  0.00  0.00    +0.000 A 
ATOM     22  C   UNL     1      -7.287   1.785 128.380  0.00  0.00    +0.000 A 
ATOM     23  C   UNL     1      -7.633   3.011 127.991  0.00  0.00    +0.000 A 
ATOM     24  C   UNL     1      -7.429   3.122 126.593  0.00  0.00    +0.000 A 
BRANCH  19  26
ATOM     25  C   UNL     1      -8.323   3.024 122.940  0.00  0.00    +0.000 C 
ATOM     26  O   UNL     1      -8.953   2.221 124.275  0.00  0.00    +0.000 OA
ENDBRANCH  19  26
BRANCH  24  27
ATOM     27  C   UNL     1      -6.095   4.447 125.365  0.00  0.00    +0.000 C 
ATOM     28  O   UNL     1      -5.070   4.133 124.663  0.00  0.00    +0.000 OA
BRANCH  27  29
ATOM     29  O   UNL     1      -6.317   5.711 124.748  0.00  0.00    +0.000 OA
ATOM     30  H   UNL     1      -5.903   6.482 125.115  0.00  0.00    +0.000 HD
ENDBRANCH  27  29
ENDBRANCH  24  27
ENDBRANCH  18  22
ENDBRANCH   1  18
BRANCH   2  31
ATOM     31  C   UNL     1      -6.038   3.503 132.855  0.00  0.00    +0.000 C 
BRANCH  31  32
ATOM     32  N   UNL     1      -4.787   3.101 133.434  0.00  0.00    +0.000 NA
ATOM     33  H   UNL     1      -4.598   2.111 133.375  0.00  0.00    +0.000 HD
ATOM     34  H   UNL     1      -4.330   3.580 134.181  0.00  0.00    +0.000 HD
ENDBRANCH  31  32
BRANCH  31  35
ATOM     35  C   UNL     1      -6.359   4.969 133.136  0.00  0.00    +0.000 C 
BRANCH  35  36
ATOM     36  C   UNL     1      -7.668   5.446 132.512  0.00  0.00    +0.000 A 
ATOM     37  C   UNL     1      -8.907   4.911 132.904  0.00  0.00    +0.000 A 
ATOM     38  C   UNL     1      -9.113   4.142 134.183  0.00  0.00    +0.000 C 
ATOM     39  C   UNL     1     -10.028   5.142 132.084  0.00  0.00    +0.000 A 
ATOM     40  C   UNL     1     -10.002   6.080 131.048  0.00  0.00    +0.000 A 
ATOM     41  C   UNL     1      -8.797   6.686 130.731  0.00  0.00    +0.000 A 
ATOM     42  C   UNL     1      -7.639   6.363 131.432  0.00  0.00    +0.000 A 
ATOM     43  C   UNL     1      -6.415   7.109 131.019  0.00  0.00    +0.000 C 
BRANCH  40  44
ATOM     44  C   UNL     1     -11.222   6.509 130.310  0.00  0.00    +0.000 C 
ATOM     45  N   UNL     1     -12.188   7.186 131.004  0.00  0.00    +0.000 N 
ATOM     46  O   UNL     1     -11.347   6.299 129.108  0.00  0.00    +0.000 OA
ATOM     47  H   UNL     1     -12.138   7.422 131.981  0.00  0.00    +0.000 HD
ATOM     48  H   UNL     1     -13.004   7.501 130.497  0.00  0.00    +0.000 HD
ENDBRANCH  40  44
ENDBRANCH  35  36
ENDBRANCH  31  35
ENDBRANCH   2  31
TORSDOF 13
ENDMDL
MODEL 8
REMARK VINA RESULT:      -8.9      4.277      7.878
REMARK  Name = Eluxadoline
REMARK  17 active torsions:
REMARK  status: ('A' for Active; 'I' for Inactive)
REMARK    1  A    between atoms: C_1  and  O_2
REMARK    2  A    between atoms: O_2  and  C_3
REMARK    3  A    between atoms: C_6  and  C_7
REMARK    4  A    between atoms: C_7  and  N_8
REMARK    5  A    between atoms: N_8  and  C_9
REMARK    6  A    between atoms: C_9  and  C_10
REMARK    7  A    between atoms: C_9  and  C_11
REMARK    8  A    between atoms: C_13  and  C_16
REMARK    9  A    between atoms: C_22  and  C_24
REMARK   10  A    between atoms: C_24  and  N_25
REMARK   11  A    between atoms: C_24  and  C_26
REMARK   12  A    between atoms: C_26  and  C_27
REMARK   13  A    between atoms: C_28  and  C_29
REMARK   14  A    between atoms: C_31  and  C_35
REMARK   15  A    between atoms: C_33  and  C_34
REMARK   16  A    between atoms: C_39  and  C_40
REMARK   17  A    between atoms: C_40  and  O_41
REMARK                            x       y       z     vdW  Elec       q    Type
REMARK                         _______ _______ _______ _____ _____    ______ ____
ROOT
ATOM      1  N   UNL     1      -6.100   3.671 128.274  0.00  0.00    +0.000 N 
ATOM      2  C   UNL     1      -5.451   3.524 127.011  0.00  0.00    +0.000 C 
ATOM      3  O   UNL     1      -4.245   3.300 126.896  0.00  0.00    +0.000 OA
ENDROOT
BRANCH   1   4
ATOM      4  C   UNL     1      -7.605   3.994 128.368  0.00  0.00    +0.000 C 
ATOM      5  C   UNL     1      -8.462   2.799 128.691  0.00  0.00    +0.000 C 
BRANCH   4   6
ATOM      6  C   UNL     1      -8.114   4.966 129.380  0.00  0.00    +0.000 A 
ATOM      7  N   UNL     1      -9.040   6.134 128.982  0.00  0.00    +0.000 NA
ATOM      8  C   UNL     1      -9.970   6.892 130.361  0.00  0.00    +0.000 A 
ATOM      9  C   UNL     1      -9.317   6.000 131.954  0.00  0.00    +0.000 A 
ATOM     10  N   UNL     1      -8.101   4.735 131.235  0.00  0.00    +0.000 N 
ATOM     11  H   UNL     1      -7.607   3.973 131.682  0.00  0.00    +0.000 HD
BRANCH   8  12
ATOM     12  C   UNL     1     -11.209   7.566 129.756  0.00  0.00    +0.000 A 
ATOM     13  C   UNL     1     -12.242   6.768 130.060  0.00  0.00    +0.000 A 
ATOM     14  C   UNL     1     -13.063   6.451 128.990  0.00  0.00    +0.000 A 
ATOM     15  C   UNL     1     -13.147   7.246 127.855  0.00  0.00    +0.000 A 
ATOM     16  C   UNL     1     -12.308   8.326 127.717  0.00  0.00    +0.000 A 
ATOM     17  C   UNL     1     -11.402   8.562 128.751  0.00  0.00    +0.000 A 
ENDBRANCH   8  12
ENDBRANCH   4   6
ENDBRANCH   1   4
BRANCH   1  18
ATOM     18  C   UNL     1      -5.121   3.595 129.428  0.00  0.00    +0.000 C 
BRANCH  18  22
ATOM     19  C   UNL     1      -5.494  -0.206 131.420  0.00  0.00    +0.000 A 
ATOM     20  C   UNL     1      -4.406  -0.128 130.557  0.00  0.00    +0.000 A 
ATOM     21  C   UNL     1      -4.274   1.122 129.814  0.00  0.00    +0.000 A 
ATOM     22  C   UNL     1      -4.961   2.288 130.136  0.00  0.00    +0.000 A 
ATOM     23  C   UNL     1      -5.423   2.244 131.385  0.00  0.00    +0.000 A 
ATOM     24  C   UNL     1      -6.363   1.189 131.488  0.00  0.00    +0.000 A 
BRANCH  19  26
ATOM     25  C   UNL     1      -7.332  -2.639 131.102  0.00  0.00    +0.000 C 
ATOM     26  O   UNL     1      -6.094  -1.705 131.747  0.00  0.00    +0.000 OA
ENDBRANCH  19  26
BRANCH  24  27
ATOM     27  C   UNL     1      -8.551   1.162 131.991  0.00  0.00    +0.000 C 
ATOM     28  O   UNL     1      -9.380   2.137 132.041  0.00  0.00    +0.000 OA
BRANCH  27  29
ATOM     29  O   UNL     1      -9.534   0.135 131.907  0.00  0.00    +0.000 OA
ATOM     30  H   UNL     1     -10.208   0.085 132.574  0.00  0.00    +0.000 HD
ENDBRANCH  27  29
ENDBRANCH  24  27
ENDBRANCH  18  22
ENDBRANCH   1  18
BRANCH   2  31
ATOM     31  C   UNL     1      -6.299   3.818 125.772  0.00  0.00    +0.000 C 
BRANCH  31  32
ATOM     32  N   UNL     1      -6.076   5.213 125.513  0.00  0.00    +0.000 NA
ATOM     33  H   UNL     1      -6.721   5.625 124.853  0.00  0.00    +0.000 HD
ATOM     34  H   UNL     1      -5.190   5.667 125.584  0.00  0.00    +0.000 HD
ENDBRANCH  31  32
BRANCH  31  35
ATOM     35  C   UNL     1      -5.947   2.945 124.570  0.00  0.00    +0.000 C 
BRANCH  35  36
ATOM     36  C   UNL     1      -6.641   3.365 123.277  0.00  0.00    +0.000 A 
ATOM     37  C   UNL     1      -7.993   3.064 123.037  0.00  0.00    +0.000 A 
ATOM     38  C   UNL     1      -8.961   2.670 124.121  0.00  0.00    +0.000 C 
ATOM     39  C   UNL     1      -8.483   3.180 121.723  0.00  0.00    +0.000 A 
ATOM     40  C   UNL     1      -7.751   3.816 120.716  0.00  0.00    +0.000 A 
ATOM     41  C   UNL     1      -6.450   4.208 120.988  0.00  0.00    +0.000 A 
ATOM     42  C   UNL     1      -5.889   3.970 122.239  0.00  0.00    +0.000 A 
ATOM     43  C   UNL     1      -4.495   4.470 122.417  0.00  0.00    +0.000 C 
BRANCH  40  44
ATOM     44  C   UNL     1      -8.324   4.152 119.384  0.00  0.00    +0.000 C 
ATOM     45  N   UNL     1      -9.684   4.111 119.240  0.00  0.00    +0.000 N 
ATOM     46  O   UNL     1      -7.607   4.494 118.449  0.00  0.00    +0.000 OA
ATOM     47  H   UNL     1     -10.335   3.873 119.969  0.00  0.00    +0.000 HD
ATOM     48  H   UNL     1     -10.074   4.366 118.343  0.00  0.00    +0.000 HD
ENDBRANCH  40  44
ENDBRANCH  35  36
ENDBRANCH  31  35
ENDBRANCH   2  31
TORSDOF 13
ENDMDL
MODEL 9
REMARK VINA RESULT:      -8.9      3.477      6.430
REMARK  Name = Eluxadoline
REMARK  17 active torsions:
REMARK  status: ('A' for Active; 'I' for Inactive)
REMARK    1  A    between atoms: C_1  and  O_2
REMARK    2  A    between atoms: O_2  and  C_3
REMARK    3  A    between atoms: C_6  and  C_7
REMARK    4  A    between atoms: C_7  and  N_8
REMARK    5  A    between atoms: N_8  and  C_9
REMARK    6  A    between atoms: C_9  and  C_10
REMARK    7  A    between atoms: C_9  and  C_11
REMARK    8  A    between atoms: C_13  and  C_16
REMARK    9  A    between atoms: C_22  and  C_24
REMARK   10  A    between atoms: C_24  and  N_25
REMARK   11  A    between atoms: C_24  and  C_26
REMARK   12  A    between atoms: C_26  and  C_27
REMARK   13  A    between atoms: C_28  and  C_29
REMARK   14  A    between atoms: C_31  and  C_35
REMARK   15  A    between atoms: C_33  and  C_34
REMARK   16  A    between atoms: C_39  and  C_40
REMARK   17  A    between atoms: C_40  and  O_41
REMARK                            x       y       z     vdW  Elec       q    Type
REMARK                         _______ _______ _______ _____ _____    ______ ____
ROOT
ATOM      1  N   UNL     1      -5.709   1.633 130.774  0.00  0.00    +0.000 N 
ATOM      2  C   UNL     1      -5.094   2.506 131.722  0.00  0.00    +0.000 C 
ATOM      3  O   UNL     1      -3.984   3.013 131.549  0.00  0.00    +0.000 OA
ENDROOT
BRANCH   1   4
ATOM      4  C   UNL     1      -7.082   0.988 131.054  0.00  0.00    +0.000 C 
ATOM      5  C   UNL     1      -8.246   1.803 130.557  0.00  0.00    +0.000 C 
BRANCH   4   6
ATOM      6  C   UNL     1      -7.427  -0.346 130.480  0.00  0.00    +0.000 A 
ATOM      7  N   UNL     1      -7.851  -0.504 129.005  0.00  0.00    +0.000 NA
ATOM      8  C   UNL     1      -7.731  -2.202 128.340  0.00  0.00    +0.000 A 
ATOM      9  C   UNL     1      -7.218  -3.297 129.856  0.00  0.00    +0.000 A 
ATOM     10  N   UNL     1      -7.025  -2.009 131.234  0.00  0.00    +0.000 N 
ATOM     11  H   UNL     1      -6.660  -2.103 132.174  0.00  0.00    +0.000 HD
BRANCH   8  12
ATOM     12  C   UNL     1      -7.603  -2.084 126.816  0.00  0.00    +0.000 A 
ATOM     13  C   UNL     1      -8.780  -2.492 126.320  0.00  0.00    +0.000 A 
ATOM     14  C   UNL     1      -8.685  -3.430 125.303  0.00  0.00    +0.000 A 
ATOM     15  C   UNL     1      -7.548  -3.563 124.518  0.00  0.00    +0.000 A 
ATOM     16  C   UNL     1      -6.423  -2.832 124.818  0.00  0.00    +0.000 A 
ATOM     17  C   UNL     1      -6.496  -1.979 125.920  0.00  0.00    +0.000 A 
ENDBRANCH   8  12
ENDBRANCH   4   6
ENDBRANCH   1   4
BRANCH   1  18
ATOM     18  C   UNL     1      -4.806   1.355 129.590  0.00  0.00    +0.000 C 
BRANCH  18  22
ATOM     19  C   UNL     1      -5.323   3.399 125.834  0.00  0.00    +0.000 A 
ATOM     20  C   UNL     1      -5.552   2.028 125.765  0.00  0.00    +0.000 A 
ATOM     21  C   UNL     1      -5.331   1.285 127.001  0.00  0.00    +0.000 A 
ATOM     22  C   UNL     1      -5.210   1.883 128.251  0.00  0.00    +0.000 A 
ATOM     23  C   UNL     1      -5.701   3.122 128.240  0.00  0.00    +0.000 A 
ATOM     24  C   UNL     1      -4.932   3.910 127.347  0.00  0.00    +0.000 A 
BRANCH  19  26
ATOM     25  C   UNL     1      -5.562   4.275 122.906  0.00  0.00    +0.000 C 
ATOM     26  O   UNL     1      -4.890   4.165 124.442  0.00  0.00    +0.000 OA
ENDBRANCH  19  26
BRANCH  24  27
ATOM     27  C   UNL     1      -3.666   5.739 127.657  0.00  0.00    +0.000 C 
ATOM     28  O   UNL     1      -4.014   6.902 128.064  0.00  0.00    +0.000 OA
BRANCH  27  29
ATOM     29  O   UNL     1      -2.275   5.900 127.916  0.00  0.00    +0.000 OA
ATOM     30  H   UNL     1      -1.739   5.129 128.056  0.00  0.00    +0.000 HD
ENDBRANCH  27  29
ENDBRANCH  24  27
ENDBRANCH  18  22
ENDBRANCH   1  18
BRANCH   2  31
ATOM     31  C   UNL     1      -5.812   2.669 133.063  0.00  0.00    +0.000 C 
BRANCH  31  32
ATOM     32  N   UNL     1      -5.082   1.820 133.961  0.00  0.00    +0.000 NA
ATOM     33  H   UNL     1      -5.388   0.857 133.969  0.00  0.00    +0.000 HD
ATOM     34  H   UNL     1      -4.633   2.132 134.796  0.00  0.00    +0.000 HD
ENDBRANCH  31  32
BRANCH  31  35
ATOM     35  C   UNL     1      -5.869   4.114 133.553  0.00  0.00    +0.000 C 
BRANCH  35  36
ATOM     36  C   UNL     1      -6.893   4.976 132.820  0.00  0.00    +0.000 A 
ATOM     37  C   UNL     1      -8.273   4.740 132.939  0.00  0.00    +0.000 A 
ATOM     38  C   UNL     1      -8.882   3.919 134.045  0.00  0.00    +0.000 C 
ATOM     39  C   UNL     1      -9.140   5.339 132.006  0.00  0.00    +0.000 A 
ATOM     40  C   UNL     1      -8.706   6.343 131.136  0.00  0.00    +0.000 A 
ATOM     41  C   UNL     1      -7.355   6.649 131.096  0.00  0.00    +0.000 A 
ATOM     42  C   UNL     1      -6.453   5.965 131.905  0.00  0.00    +0.000 A 
ATOM     43  C   UNL     1      -5.034   6.410 131.794  0.00  0.00    +0.000 C 
BRANCH  40  44
ATOM     44  C   UNL     1      -9.635   7.149 130.297  0.00  0.00    +0.000 C 
ATOM     45  N   UNL     1     -10.980   6.988 130.492  0.00  0.00    +0.000 N 
ATOM     46  O   UNL     1      -9.215   7.963 129.481  0.00  0.00    +0.000 OA
ATOM     47  H   UNL     1     -11.396   6.366 131.165  0.00  0.00    +0.000 HD
ATOM     48  H   UNL     1     -11.611   7.555 129.941  0.00  0.00    +0.000 HD
ENDBRANCH  40  44
ENDBRANCH  35  36
ENDBRANCH  31  35
ENDBRANCH   2  31
TORSDOF 13
ENDMDL
