MODEL 1
REMARK VINA RESULT:      -8.1      0.000      0.000
REMARK  Name = Elvitegravir
REMARK  12 active torsions:
REMARK  status: ('A' for Active; 'I' for Inactive)
REMARK    1  A    between atoms: C_2  and  C_3
REMARK    2  A    between atoms: C_2  and  C_5
REMARK    3  A    between atoms: C_2  and  N_8
REMARK    4  A    between atoms: C_3  and  O_4
REMARK    5  A    between atoms: C_5  and  C_6
REMARK    6  A    between atoms: C_5  and  C_7
REMARK    7  A    between atoms: C_10  and  C_11
REMARK    8  A    between atoms: C_11  and  O_12
REMARK    9  A    between atoms: C_19  and  O_20
REMARK   10  A    between atoms: O_20  and  C_21
REMARK   11  A    between atoms: C_22  and  C_23
REMARK   12  A    between atoms: C_23  and  C_24
REMARK                            x       y       z     vdW  Elec       q    Type
REMARK                         _______ _______ _______ _____ _____    ______ ____
ROOT
ATOM      1  N   UNL     1      -6.208  -1.695 126.519  0.00  0.00    +0.000 N 
ATOM      2  C   UNL     1      -5.806  -2.833 125.805  0.00  0.00    +0.000 A 
ATOM      3  C   UNL     1      -5.585  -2.946 124.486  0.00  0.00    +0.000 A 
ATOM      4  C   UNL     1      -5.934  -1.782 123.675  0.00  0.00    +0.000 A 
ATOM      5  O   UNL     1      -5.823  -1.833 122.447  0.00  0.00    +0.000 OA
ATOM      6  C   UNL     1      -6.471  -0.598 124.374  0.00  0.00    +0.000 A 
ATOM      7  C   UNL     1      -6.559  -0.544 125.760  0.00  0.00    +0.000 A 
ATOM      8  C   UNL     1      -7.063   0.662 126.284  0.00  0.00    +0.000 A 
ATOM      9  C   UNL     1      -7.810   1.579 125.524  0.00  0.00    +0.000 A 
ATOM     10  C   UNL     1      -7.739   1.472 124.141  0.00  0.00    +0.000 A 
ATOM     11  C   UNL     1      -6.932   0.454 123.601  0.00  0.00    +0.000 A 
ENDROOT
BRANCH   3  12
ATOM     12  C   UNL     1      -5.018  -4.198 123.932  0.00  0.00    +0.000 C 
ATOM     13  O   UNL     1      -5.578  -5.275 124.017  0.00  0.00    +0.000 OA
BRANCH  12  14
ATOM     14  O   UNL     1      -3.800  -4.062 123.357  0.00  0.00    +0.000 OA
ATOM     15  H   UNL     1      -3.799  -3.514 122.535  0.00  0.00    +0.000 HD
ENDBRANCH  12  14
ENDBRANCH   3  12
BRANCH   9  16
ATOM     16  O   UNL     1      -8.531   2.462 126.288  0.00  0.00    +0.000 OA
ATOM     17  C   UNL     1      -7.934   3.664 126.763  0.00  0.00    +0.000 C 
ENDBRANCH   9  16
BRANCH   1  18
ATOM     18  C   UNL     1      -6.265  -1.606 128.030  0.00  0.00    +0.000 C 
BRANCH  18  19
ATOM     19  C   UNL     1      -7.453  -2.430 128.644  0.00  0.00    +0.000 C 
ATOM     20  C   UNL     1      -8.453  -2.888 127.592  0.00  0.00    +0.000 C 
ATOM     21  C   UNL     1      -6.969  -3.553 129.560  0.00  0.00    +0.000 C 
ENDBRANCH  18  19
BRANCH  18  22
ATOM     22  C   UNL     1      -4.943  -2.069 128.718  0.00  0.00    +0.000 C 
BRANCH  22  23
ATOM     23  O   UNL     1      -4.145  -1.017 129.251  0.00  0.00    +0.000 OA
ATOM     24  H   UNL     1      -4.695  -0.238 129.422  0.00  0.00    +0.000 HD
ENDBRANCH  22  23
ENDBRANCH  18  22
ENDBRANCH   1  18
BRANCH  10  25
ATOM     25  C   UNL     1      -8.493   2.388 123.218  0.00  0.00    +0.000 C 
BRANCH  25  26
ATOM     26  C   UNL     1      -7.676   3.198 122.275  0.00  0.00    +0.000 A 
ATOM     27  C   UNL     1      -8.173   3.492 121.001  0.00  0.00    +0.000 A 
ATOM     28  F   UNL     1      -9.398   3.055 120.656  0.00  0.00    +0.000 F 
ATOM     29  C   UNL     1      -7.361   4.111 120.075  0.00  0.00    +0.000 A 
ATOM     30 CL   UNL     1      -7.987   4.557 118.542  0.00  0.00    +0.000 Cl
ATOM     31  C   UNL     1      -6.023   4.341 120.398  0.00  0.00    +0.000 A 
ATOM     32  C   UNL     1      -5.522   4.017 121.663  0.00  0.00    +0.000 A 
ATOM     33  C   UNL     1      -6.378   3.548 122.641  0.00  0.00    +0.000 A 
ENDBRANCH  25  26
ENDBRANCH  10  25
TORSDOF 9
ENDMDL
MODEL 2
REMARK VINA RESULT:      -7.9      4.065      7.257
REMARK  Name = Elvitegravir
REMARK  12 active torsions:
REMARK  status: ('A' for Active; 'I' for Inactive)
REMARK    1  A    between atoms: C_2  and  C_3
REMARK    2  A    between atoms: C_2  and  C_5
REMARK    3  A    between atoms: C_2  and  N_8
REMARK    4  A    between atoms: C_3  and  O_4
REMARK    5  A    between atoms: C_5  and  C_6
REMARK    6  A    between atoms: C_5  and  C_7
REMARK    7  A    between atoms: C_10  and  C_11
REMARK    8  A    between atoms: C_11  and  O_12
REMARK    9  A    between atoms: C_19  and  O_20
REMARK   10  A    between atoms: O_20  and  C_21
REMARK   11  A    between atoms: C_22  and  C_23
REMARK   12  A    between atoms: C_23  and  C_24
REMARK                            x       y       z     vdW  Elec       q    Type
REMARK                         _______ _______ _______ _____ _____    ______ ____
ROOT
ATOM      1  N   UNL     1      -5.656   3.096 127.955  0.00  0.00    +0.000 N 
ATOM      2  C   UNL     1      -6.328   3.886 127.011  0.00  0.00    +0.000 A 
ATOM      3  C   UNL     1      -7.487   3.624 126.387  0.00  0.00    +0.000 A 
ATOM      4  C   UNL     1      -8.051   2.296 126.616  0.00  0.00    +0.000 A 
ATOM      5  O   UNL     1      -9.080   1.955 126.025  0.00  0.00    +0.000 OA
ATOM      6  C   UNL     1      -7.315   1.385 127.515  0.00  0.00    +0.000 A 
ATOM      7  C   UNL     1      -6.177   1.795 128.198  0.00  0.00    +0.000 A 
ATOM      8  C   UNL     1      -5.601   0.825 129.042  0.00  0.00    +0.000 A 
ATOM      9  C   UNL     1      -5.856  -0.552 128.919  0.00  0.00    +0.000 A 
ATOM     10  C   UNL     1      -6.975  -0.933 128.191  0.00  0.00    +0.000 A 
ATOM     11  C   UNL     1      -7.769   0.082 127.625  0.00  0.00    +0.000 A 
ENDROOT
BRANCH   3  12
ATOM     12  C   UNL     1      -8.119   4.653 125.530  0.00  0.00    +0.000 C 
ATOM     13  O   UNL     1      -8.531   5.715 125.962  0.00  0.00    +0.000 OA
BRANCH  12  14
ATOM     14  O   UNL     1      -8.246   4.307 124.228  0.00  0.00    +0.000 OA
ATOM     15  H   UNL     1      -9.130   3.936 123.991  0.00  0.00    +0.000 HD
ENDBRANCH  12  14
ENDBRANCH   3  12
BRANCH   9  16
ATOM     16  O   UNL     1      -4.922  -1.339 129.545  0.00  0.00    +0.000 OA
ATOM     17  C   UNL     1      -4.084  -0.798 130.561  0.00  0.00    +0.000 C 
ENDBRANCH   9  16
BRANCH   1  18
ATOM     18  C   UNL     1      -4.441   3.545 128.741  0.00  0.00    +0.000 C 
BRANCH  18  19
ATOM     19  C   UNL     1      -3.344   4.212 127.838  0.00  0.00    +0.000 C 
ATOM     20  C   UNL     1      -2.608   5.340 128.547  0.00  0.00    +0.000 C 
ATOM     21  C   UNL     1      -2.413   3.182 127.197  0.00  0.00    +0.000 C 
ENDBRANCH  18  19
BRANCH  18  22
ATOM     22  C   UNL     1      -4.794   4.535 129.893  0.00  0.00    +0.000 C 
BRANCH  22  23
ATOM     23  O   UNL     1      -4.931   3.935 131.178  0.00  0.00    +0.000 OA
ATOM     24  H   UNL     1      -4.490   3.073 131.189  0.00  0.00    +0.000 HD
ENDBRANCH  22  23
ENDBRANCH  18  22
ENDBRANCH   1  18
BRANCH  10  25
ATOM     25  C   UNL     1      -7.354  -2.372 127.981  0.00  0.00    +0.000 C 
BRANCH  25  26
ATOM     26  C   UNL     1      -7.580  -2.801 126.575  0.00  0.00    +0.000 A 
ATOM     27  C   UNL     1      -6.532  -2.728 125.651  0.00  0.00    +0.000 A 
ATOM     28  F   UNL     1      -5.326  -2.294 126.057  0.00  0.00    +0.000 F 
ATOM     29  C   UNL     1      -6.777  -2.980 124.318  0.00  0.00    +0.000 A 
ATOM     30 CL   UNL     1      -5.484  -2.983 123.190  0.00  0.00    +0.000 Cl
ATOM     31  C   UNL     1      -8.090  -3.204 123.902  0.00  0.00    +0.000 A 
ATOM     32  C   UNL     1      -9.139  -3.244 124.827  0.00  0.00    +0.000 A 
ATOM     33  C   UNL     1      -8.868  -3.154 126.178  0.00  0.00    +0.000 A 
ENDBRANCH  25  26
ENDBRANCH  10  25
TORSDOF 9
ENDMDL
MODEL 3
REMARK VINA RESULT:      -7.8      4.834      8.157
REMARK  Name = Elvitegravir
REMARK  12 active torsions:
REMARK  status: ('A' for Active; 'I' for Inactive)
REMARK    1  A    between atoms: C_2  and  C_3
REMARK    2  A    between atoms: C_2  and  C_5
REMARK    3  A    between atoms: C_2  and  N_8
REMARK    4  A    between atoms: C_3  and  O_4
REMARK    5  A    between atoms: C_5  and  C_6
REMARK    6  A    between atoms: C_5  and  C_7
REMARK    7  A    between atoms: C_10  and  C_11
REMARK    8  A    between atoms: C_11  and  O_12
REMARK    9  A    between atoms: C_19  and  O_20
REMARK   10  A    between atoms: O_20  and  C_21
REMARK   11  A    between atoms: C_22  and  C_23
REMARK   12  A    between atoms: C_23  and  C_24
REMARK                            x       y       z     vdW  Elec       q    Type
REMARK                         _______ _______ _______ _____ _____    ______ ____
ROOT
ATOM      1  N   UNL     1      -7.760  -1.020 125.684  0.00  0.00    +0.000 N 
ATOM      2  C   UNL     1      -8.344   0.076 125.033  0.00  0.00    +0.000 A 
ATOM      3  C   UNL     1      -8.645   1.279 125.546  0.00  0.00    +0.000 A 
ATOM      4  C   UNL     1      -8.468   1.423 126.989  0.00  0.00    +0.000 A 
ATOM      5  O   UNL     1      -8.788   2.477 127.545  0.00  0.00    +0.000 OA
ATOM      6  C   UNL     1      -7.963   0.254 127.736  0.00  0.00    +0.000 A 
ATOM      7  C   UNL     1      -7.577  -0.915 127.091  0.00  0.00    +0.000 A 
ATOM      8  C   UNL     1      -7.088  -1.932 127.933  0.00  0.00    +0.000 A 
ATOM      9  C   UNL     1      -7.339  -1.975 129.316  0.00  0.00    +0.000 A 
ATOM     10  C   UNL     1      -7.768  -0.803 129.925  0.00  0.00    +0.000 A 
ATOM     11  C   UNL     1      -7.926   0.338 129.118  0.00  0.00    +0.000 A 
ENDROOT
BRANCH   3  12
ATOM     12  C   UNL     1      -9.122   2.366 124.661  0.00  0.00    +0.000 C 
ATOM     13  O   UNL     1      -9.574   2.166 123.548  0.00  0.00    +0.000 OA
BRANCH  12  14
ATOM     14  O   UNL     1      -8.979   3.614 125.166  0.00  0.00    +0.000 OA
ATOM     15  H   UNL     1      -8.914   3.647 126.151  0.00  0.00    +0.000 HD
ENDBRANCH  12  14
ENDBRANCH   3  12
BRANCH   9  16
ATOM     16  O   UNL     1      -7.130  -3.213 129.871  0.00  0.00    +0.000 OA
ATOM     17  C   UNL     1      -5.808  -3.705 130.065  0.00  0.00    +0.000 C 
ENDBRANCH   9  16
BRANCH   1  18
ATOM     18  C   UNL     1      -7.293  -2.282 124.989  0.00  0.00    +0.000 C 
BRANCH  18  19
ATOM     19  C   UNL     1      -8.474  -3.251 124.626  0.00  0.00    +0.000 C 
ATOM     20  C   UNL     1      -9.540  -3.305 125.711  0.00  0.00    +0.000 C 
ATOM     21  C   UNL     1      -9.035  -2.985 123.229  0.00  0.00    +0.000 C 
ENDBRANCH  18  19
BRANCH  18  22
ATOM     22  C   UNL     1      -6.479  -1.995 123.690  0.00  0.00    +0.000 C 
BRANCH  22  23
ATOM     23  O   UNL     1      -5.251  -2.709 123.581  0.00  0.00    +0.000 OA
ATOM     24  H   UNL     1      -4.656  -2.455 124.302  0.00  0.00    +0.000 HD
ENDBRANCH  22  23
ENDBRANCH  18  22
ENDBRANCH   1  18
BRANCH  10  25
ATOM     25  C   UNL     1      -8.076  -0.719 131.394  0.00  0.00    +0.000 C 
BRANCH  25  26
ATOM     26  C   UNL     1      -8.258   0.646 131.956  0.00  0.00    +0.000 A 
ATOM     27  C   UNL     1      -7.223   1.239 132.687  0.00  0.00    +0.000 A 
ATOM     28  F   UNL     1      -6.067   0.572 132.850  0.00  0.00    +0.000 F 
ATOM     29  C   UNL     1      -7.442   2.436 133.335  0.00  0.00    +0.000 A 
ATOM     30 CL   UNL     1      -6.156   3.217 134.158  0.00  0.00    +0.000 Cl
ATOM     31  C   UNL     1      -8.726   2.982 133.330  0.00  0.00    +0.000 A 
ATOM     32  C   UNL     1      -9.765   2.369 132.622  0.00  0.00    +0.000 A 
ATOM     33  C   UNL     1      -9.504   1.259 131.842  0.00  0.00    +0.000 A 
ENDBRANCH  25  26
ENDBRANCH  10  25
TORSDOF 9
ENDMDL
MODEL 4
REMARK VINA RESULT:      -7.8      4.142      7.075
REMARK  Name = Elvitegravir
REMARK  12 active torsions:
REMARK  status: ('A' for Active; 'I' for Inactive)
REMARK    1  A    between atoms: C_2  and  C_3
REMARK    2  A    between atoms: C_2  and  C_5
REMARK    3  A    between atoms: C_2  and  N_8
REMARK    4  A    between atoms: C_3  and  O_4
REMARK    5  A    between atoms: C_5  and  C_6
REMARK    6  A    between atoms: C_5  and  C_7
REMARK    7  A    between atoms: C_10  and  C_11
REMARK    8  A    between atoms: C_11  and  O_12
REMARK    9  A    between atoms: C_19  and  O_20
REMARK   10  A    between atoms: O_20  and  C_21
REMARK   11  A    between atoms: C_22  and  C_23
REMARK   12  A    between atoms: C_23  and  C_24
REMARK                            x       y       z     vdW  Elec       q    Type
REMARK                         _______ _______ _______ _____ _____    ______ ____
ROOT
ATOM      1  N   UNL     1      -7.963  -0.328 125.380  0.00  0.00    +0.000 N 
ATOM      2  C   UNL     1      -8.338   0.526 124.333  0.00  0.00    +0.000 A 
ATOM      3  C   UNL     1      -8.502   1.857 124.368  0.00  0.00    +0.000 A 
ATOM      4  C   UNL     1      -8.412   2.479 125.688  0.00  0.00    +0.000 A 
ATOM      5  O   UNL     1      -8.618   3.689 125.812  0.00  0.00    +0.000 OA
ATOM      6  C   UNL     1      -8.132   1.600 126.840  0.00  0.00    +0.000 A 
ATOM      7  C   UNL     1      -7.870   0.244 126.679  0.00  0.00    +0.000 A 
ATOM      8  C   UNL     1      -7.591  -0.459 127.868  0.00  0.00    +0.000 A 
ATOM      9  C   UNL     1      -7.946   0.014 129.143  0.00  0.00    +0.000 A 
ATOM     10  C   UNL     1      -8.247   1.364 129.265  0.00  0.00    +0.000 A 
ATOM     11  C   UNL     1      -8.183   2.159 128.106  0.00  0.00    +0.000 A 
ENDROOT
BRANCH   3  12
ATOM     12  C   UNL     1      -8.755   2.609 123.118  0.00  0.00    +0.000 C 
ATOM     13  O   UNL     1      -9.420   2.164 122.199  0.00  0.00    +0.000 OA
BRANCH  12  14
ATOM     14  O   UNL     1      -8.154   3.820 123.052  0.00  0.00    +0.000 OA
ATOM     15  H   UNL     1      -7.324   3.832 122.516  0.00  0.00    +0.000 HD
ENDBRANCH  12  14
ENDBRANCH   3  12
BRANCH   9  16
ATOM     16  O   UNL     1      -7.954  -0.965 130.106  0.00  0.00    +0.000 OA
ATOM     17  C   UNL     1      -7.913  -2.340 129.740  0.00  0.00    +0.000 C 
ENDBRANCH   9  16
BRANCH   1  18
ATOM     18  C   UNL     1      -7.631  -1.796 125.214  0.00  0.00    +0.000 C 
BRANCH  18  19
ATOM     19  C   UNL     1      -8.896  -2.722 125.307  0.00  0.00    +0.000 C 
ATOM     20  C   UNL     1      -9.238  -3.380 123.978  0.00  0.00    +0.000 C 
ATOM     21  C   UNL     1      -8.812  -3.705 126.474  0.00  0.00    +0.000 C 
ENDBRANCH  18  19
BRANCH  18  22
ATOM     22  C   UNL     1      -6.896  -2.105 123.873  0.00  0.00    +0.000 C 
BRANCH  22  23
ATOM     23  O   UNL     1      -5.727  -2.908 124.001  0.00  0.00    +0.000 OA
ATOM     24  H   UNL     1      -5.896  -3.645 124.607  0.00  0.00    +0.000 HD
ENDBRANCH  22  23
ENDBRANCH  18  22
ENDBRANCH   1  18
BRANCH  10  25
ATOM     25  C   UNL     1      -8.645   1.991 130.571  0.00  0.00    +0.000 C 
BRANCH  25  26
ATOM     26  C   UNL     1      -9.175   3.380 130.506  0.00  0.00    +0.000 A 
ATOM     27  C   UNL     1      -8.314   4.461 130.721  0.00  0.00    +0.000 A 
ATOM     28  F   UNL     1      -7.012   4.229 130.961  0.00  0.00    +0.000 F 
ATOM     29  C   UNL     1      -8.829   5.737 130.811  0.00  0.00    +0.000 A 
ATOM     30 CL   UNL     1      -7.775   7.081 130.984  0.00  0.00    +0.000 Cl
ATOM     31  C   UNL     1     -10.213   5.912 130.785  0.00  0.00    +0.000 A 
ATOM     32  C   UNL     1     -11.071   4.822 130.601  0.00  0.00    +0.000 A 
ATOM     33  C   UNL     1     -10.546   3.569 130.349  0.00  0.00    +0.000 A 
ENDBRANCH  25  26
ENDBRANCH  10  25
TORSDOF 9
ENDMDL
MODEL 5
REMARK VINA RESULT:      -7.6      4.242      7.426
REMARK  Name = Elvitegravir
REMARK  12 active torsions:
REMARK  status: ('A' for Active; 'I' for Inactive)
REMARK    1  A    between atoms: C_2  and  C_3
REMARK    2  A    between atoms: C_2  and  C_5
REMARK    3  A    between atoms: C_2  and  N_8
REMARK    4  A    between atoms: C_3  and  O_4
REMARK    5  A    between atoms: C_5  and  C_6
REMARK    6  A    between atoms: C_5  and  C_7
REMARK    7  A    between atoms: C_10  and  C_11
REMARK    8  A    between atoms: C_11  and  O_12
REMARK    9  A    between atoms: C_19  and  O_20
REMARK   10  A    between atoms: O_20  and  C_21
REMARK   11  A    between atoms: C_22  and  C_23
REMARK   12  A    between atoms: C_23  and  C_24
REMARK                            x       y       z     vdW  Elec       q    Type
REMARK                         _______ _______ _______ _____ _____    ______ ____
ROOT
ATOM      1  N   UNL     1      -8.089   3.289 129.281  0.00  0.00    +0.000 N 
ATOM      2  C   UNL     1      -7.983   4.140 128.171  0.00  0.00    +0.000 A 
ATOM      3  C   UNL     1      -8.030   3.813 126.870  0.00  0.00    +0.000 A 
ATOM      4  C   UNL     1      -8.061   2.384 126.570  0.00  0.00    +0.000 A 
ATOM      5  O   UNL     1      -8.037   2.002 125.396  0.00  0.00    +0.000 OA
ATOM      6  C   UNL     1      -8.056   1.445 127.709  0.00  0.00    +0.000 A 
ATOM      7  C   UNL     1      -8.116   1.891 129.024  0.00  0.00    +0.000 A 
ATOM      8  C   UNL     1      -8.135   0.876 130.001  0.00  0.00    +0.000 A 
ATOM      9  C   UNL     1      -7.711  -0.440 129.754  0.00  0.00    +0.000 A 
ATOM     10  C   UNL     1      -7.616  -0.844 128.428  0.00  0.00    +0.000 A 
ATOM     11  C   UNL     1      -7.944   0.093 127.430  0.00  0.00    +0.000 A 
ENDROOT
BRANCH   3  12
ATOM     12  C   UNL     1      -8.051   4.875 125.838  0.00  0.00    +0.000 C 
ATOM     13  O   UNL     1      -8.881   5.765 125.818  0.00  0.00    +0.000 OA
BRANCH  12  14
ATOM     14  O   UNL     1      -7.098   4.757 124.884  0.00  0.00    +0.000 OA
ATOM     15  H   UNL     1      -7.422   4.920 123.965  0.00  0.00    +0.000 HD
ENDBRANCH  12  14
ENDBRANCH   3  12
BRANCH   9  16
ATOM     16  O   UNL     1      -7.432  -1.149 130.895  0.00  0.00    +0.000 OA
ATOM     17  C   UNL     1      -8.043  -0.799 132.132  0.00  0.00    +0.000 C 
ENDBRANCH   9  16
BRANCH   1  18
ATOM     18  C   UNL     1      -8.201   3.760 130.716  0.00  0.00    +0.000 C 
BRANCH  18  19
ATOM     19  C   UNL     1      -7.231   4.951 131.044  0.00  0.00    +0.000 C 
ATOM     20  C   UNL     1      -7.841   5.953 132.014  0.00  0.00    +0.000 C 
ATOM     21  C   UNL     1      -5.839   4.471 131.454  0.00  0.00    +0.000 C 
ENDBRANCH  18  19
BRANCH  18  22
ATOM     22  C   UNL     1      -9.650   4.189 131.105  0.00  0.00    +0.000 C 
BRANCH  22  23
ATOM     23  O   UNL     1     -10.528   3.113 131.422  0.00  0.00    +0.000 OA
ATOM     24  H   UNL     1     -10.922   3.254 132.295  0.00  0.00    +0.000 HD
ENDBRANCH  22  23
ENDBRANCH  18  22
ENDBRANCH   1  18
BRANCH  10  25
ATOM     25  C   UNL     1      -7.170  -2.223 128.030  0.00  0.00    +0.000 C 
BRANCH  25  26
ATOM     26  C   UNL     1      -7.482  -2.644 126.638  0.00  0.00    +0.000 A 
ATOM     27  C   UNL     1      -6.534  -2.457 125.627  0.00  0.00    +0.000 A 
ATOM     28  F   UNL     1      -5.341  -1.919 125.935  0.00  0.00    +0.000 F 
ATOM     29  C   UNL     1      -6.875  -2.706 124.314  0.00  0.00    +0.000 A 
ATOM     30 CL   UNL     1      -5.695  -2.568 123.077  0.00  0.00    +0.000 Cl
ATOM     31  C   UNL     1      -8.194  -3.045 124.011  0.00  0.00    +0.000 A 
ATOM     32  C   UNL     1      -9.147  -3.201 125.024  0.00  0.00    +0.000 A 
ATOM     33  C   UNL     1      -8.763  -3.109 126.348  0.00  0.00    +0.000 A 
ENDBRANCH  25  26
ENDBRANCH  10  25
TORSDOF 9
ENDMDL
MODEL 6
REMARK VINA RESULT:      -7.5      3.516      5.747
REMARK  Name = Elvitegravir
REMARK  12 active torsions:
REMARK  status: ('A' for Active; 'I' for Inactive)
REMARK    1  A    between atoms: C_2  and  C_3
REMARK    2  A    between atoms: C_2  and  C_5
REMARK    3  A    between atoms: C_2  and  N_8
REMARK    4  A    between atoms: C_3  and  O_4
REMARK    5  A    between atoms: C_5  and  C_6
REMARK    6  A    between atoms: C_5  and  C_7
REMARK    7  A    between atoms: C_10  and  C_11
REMARK    8  A    between atoms: C_11  and  O_12
REMARK    9  A    between atoms: C_19  and  O_20
REMARK   10  A    between atoms: O_20  and  C_21
REMARK   11  A    between atoms: C_22  and  C_23
REMARK   12  A    between atoms: C_23  and  C_24
REMARK                            x       y       z     vdW  Elec       q    Type
REMARK                         _______ _______ _______ _____ _____    ______ ____
ROOT
ATOM      1  N   UNL     1      -7.890  -1.527 125.743  0.00  0.00    +0.000 N 
ATOM      2  C   UNL     1      -7.786  -2.261 126.933  0.00  0.00    +0.000 A 
ATOM      3  C   UNL     1      -7.763  -1.796 128.192  0.00  0.00    +0.000 A 
ATOM      4  C   UNL     1      -7.703  -0.343 128.337  0.00  0.00    +0.000 A 
ATOM      5  O   UNL     1      -7.612   0.159 129.461  0.00  0.00    +0.000 OA
ATOM      6  C   UNL     1      -7.694   0.468 127.104  0.00  0.00    +0.000 A 
ATOM      7  C   UNL     1      -7.830  -0.110 125.848  0.00  0.00    +0.000 A 
ATOM      8  C   UNL     1      -7.833   0.794 124.767  0.00  0.00    +0.000 A 
ATOM      9  C   UNL     1      -7.328   2.102 124.857  0.00  0.00    +0.000 A 
ATOM     10  C   UNL     1      -7.159   2.638 126.127  0.00  0.00    +0.000 A 
ATOM     11  C   UNL     1      -7.497   1.833 127.231  0.00  0.00    +0.000 A 
ENDROOT
BRANCH   3  12
ATOM     12  C   UNL     1      -7.800  -2.739 129.334  0.00  0.00    +0.000 C 
ATOM     13  O   UNL     1      -8.646  -3.607 129.450  0.00  0.00    +0.000 OA
BRANCH  12  14
ATOM     14  O   UNL     1      -6.843  -2.535 130.269  0.00  0.00    +0.000 OA
ATOM     15  H   UNL     1      -5.953  -2.886 130.021  0.00  0.00    +0.000 HD
ENDBRANCH  12  14
ENDBRANCH   3  12
BRANCH   9  16
ATOM     16  O   UNL     1      -7.057   2.668 123.636  0.00  0.00    +0.000 OA
ATOM     17  C   UNL     1      -8.112   2.989 122.737  0.00  0.00    +0.000 C 
ENDBRANCH   9  16
BRANCH   1  18
ATOM     18  C   UNL     1      -8.084  -2.141 124.371  0.00  0.00    +0.000 C 
BRANCH  18  19
ATOM     19  C   UNL     1      -6.733  -2.586 123.705  0.00  0.00    +0.000 C 
ATOM     20  C   UNL     1      -6.402  -1.779 122.458  0.00  0.00    +0.000 C 
ATOM     21  C   UNL     1      -5.585  -2.656 124.712  0.00  0.00    +0.000 C 
ENDBRANCH  18  19
BRANCH  18  22
ATOM     22  C   UNL     1      -9.049  -3.367 124.385  0.00  0.00    +0.000 C 
BRANCH  22  23
ATOM     23  O   UNL     1     -10.077  -3.331 123.399  0.00  0.00    +0.000 OA
ATOM     24  H   UNL     1     -10.876  -3.760 123.739  0.00  0.00    +0.000 HD
ENDBRANCH  22  23
ENDBRANCH  18  22
ENDBRANCH   1  18
BRANCH  10  25
ATOM     25  C   UNL     1      -6.622   4.023 126.359  0.00  0.00    +0.000 C 
BRANCH  25  26
ATOM     26  C   UNL     1      -5.356   4.123 127.133  0.00  0.00    +0.000 A 
ATOM     27  C   UNL     1      -4.167   3.634 126.583  0.00  0.00    +0.000 A 
ATOM     28  F   UNL     1      -4.182   3.101 125.349  0.00  0.00    +0.000 F 
ATOM     29  C   UNL     1      -3.025   3.588 127.355  0.00  0.00    +0.000 A 
ATOM     30 CL   UNL     1      -1.540   3.076 126.665  0.00  0.00    +0.000 Cl
ATOM     31  C   UNL     1      -3.106   3.938 128.703  0.00  0.00    +0.000 A 
ATOM     32  C   UNL     1      -4.306   4.397 129.255  0.00  0.00    +0.000 A 
ATOM     33  C   UNL     1      -5.405   4.596 128.442  0.00  0.00    +0.000 A 
ENDBRANCH  25  26
ENDBRANCH  10  25
TORSDOF 9
ENDMDL
MODEL 7
REMARK VINA RESULT:      -7.4      4.251      6.619
REMARK  Name = Elvitegravir
REMARK  12 active torsions:
REMARK  status: ('A' for Active; 'I' for Inactive)
REMARK    1  A    between atoms: C_2  and  C_3
REMARK    2  A    between atoms: C_2  and  C_5
REMARK    3  A    between atoms: C_2  and  N_8
REMARK    4  A    between atoms: C_3  and  O_4
REMARK    5  A    between atoms: C_5  and  C_6
REMARK    6  A    between atoms: C_5  and  C_7
REMARK    7  A    between atoms: C_10  and  C_11
REMARK    8  A    between atoms: C_11  and  O_12
REMARK    9  A    between atoms: C_19  and  O_20
REMARK   10  A    between atoms: O_20  and  C_21
REMARK   11  A    between atoms: C_22  and  C_23
REMARK   12  A    between atoms: C_23  and  C_24
REMARK                            x       y       z     vdW  Elec       q    Type
REMARK                         _______ _______ _______ _____ _____    ______ ____
ROOT
ATOM      1  N   UNL     1      -6.998   0.087 124.310  0.00  0.00    +0.000 N 
ATOM      2  C   UNL     1      -7.518   1.018 123.400  0.00  0.00    +0.000 A 
ATOM      3  C   UNL     1      -7.298   2.341 123.352  0.00  0.00    +0.000 A 
ATOM      4  C   UNL     1      -6.532   2.903 124.462  0.00  0.00    +0.000 A 
ATOM      5  O   UNL     1      -6.345   4.122 124.525  0.00  0.00    +0.000 OA
ATOM      6  C   UNL     1      -6.060   1.974 125.508  0.00  0.00    +0.000 A 
ATOM      7  C   UNL     1      -6.250   0.601 125.405  0.00  0.00    +0.000 A 
ATOM      8  C   UNL     1      -5.719  -0.159 126.465  0.00  0.00    +0.000 A 
ATOM      9  C   UNL     1      -5.400   0.387 127.721  0.00  0.00    +0.000 A 
ATOM     10  C   UNL     1      -5.262   1.766 127.803  0.00  0.00    +0.000 A 
ATOM     11  C   UNL     1      -5.456   2.518 126.628  0.00  0.00    +0.000 A 
ENDROOT
BRANCH   3  12
ATOM     12  C   UNL     1      -7.820   3.141 122.220  0.00  0.00    +0.000 C 
ATOM     13  O   UNL     1      -8.958   3.035 121.801  0.00  0.00    +0.000 OA
BRANCH  12  14
ATOM     14  O   UNL     1      -6.918   3.976 121.653  0.00  0.00    +0.000 OA
ATOM     15  H   UNL     1      -6.427   4.542 122.297  0.00  0.00    +0.000 HD
ENDBRANCH  12  14
ENDBRANCH   3  12
BRANCH   9  16
ATOM     16  O   UNL     1      -5.283  -0.555 128.712  0.00  0.00    +0.000 OA
ATOM     17  C   UNL     1      -5.115  -1.930 128.388  0.00  0.00    +0.000 C 
ENDBRANCH   9  16
BRANCH   1  18
ATOM     18  C   UNL     1      -7.157  -1.414 124.188  0.00  0.00    +0.000 C 
BRANCH  18  19
ATOM     19  C   UNL     1      -8.650  -1.882 124.330  0.00  0.00    +0.000 C 
ATOM     20  C   UNL     1      -9.028  -2.949 123.313  0.00  0.00    +0.000 C 
ATOM     21  C   UNL     1      -9.008  -2.253 125.769  0.00  0.00    +0.000 C 
ENDBRANCH  18  19
BRANCH  18  22
ATOM     22  C   UNL     1      -6.594  -1.979 122.847  0.00  0.00    +0.000 C 
BRANCH  22  23
ATOM     23  O   UNL     1      -5.379  -2.712 122.969  0.00  0.00    +0.000 OA
ATOM     24  H   UNL     1      -5.219  -2.936 123.898  0.00  0.00    +0.000 HD
ENDBRANCH  22  23
ENDBRANCH  18  22
ENDBRANCH   1  18
BRANCH  10  25
ATOM     25  C   UNL     1      -4.929   2.473 129.087  0.00  0.00    +0.000 C 
BRANCH  25  26
ATOM     26  C   UNL     1      -4.140   3.729 128.967  0.00  0.00    +0.000 A 
ATOM     27  C   UNL     1      -4.629   4.912 129.529  0.00  0.00    +0.000 A 
ATOM     28  F   UNL     1      -5.799   4.891 130.192  0.00  0.00    +0.000 F 
ATOM     29  C   UNL     1      -3.977   6.103 129.290  0.00  0.00    +0.000 A 
ATOM     30 CL   UNL     1      -4.515   7.546 130.047  0.00  0.00    +0.000 Cl
ATOM     31  C   UNL     1      -2.896   6.117 128.408  0.00  0.00    +0.000 A 
ATOM     32  C   UNL     1      -2.429   4.935 127.825  0.00  0.00    +0.000 A 
ATOM     33  C   UNL     1      -2.982   3.723 128.192  0.00  0.00    +0.000 A 
ENDBRANCH  25  26
ENDBRANCH  10  25
TORSDOF 9
ENDMDL
MODEL 8
REMARK VINA RESULT:      -7.4      2.466      4.834
REMARK  Name = Elvitegravir
REMARK  12 active torsions:
REMARK  status: ('A' for Active; 'I' for Inactive)
REMARK    1  A    between atoms: C_2  and  C_3
REMARK    2  A    between atoms: C_2  and  C_5
REMARK    3  A    between atoms: C_2  and  N_8
REMARK    4  A    between atoms: C_3  and  O_4
REMARK    5  A    between atoms: C_5  and  C_6
REMARK    6  A    between atoms: C_5  and  C_7
REMARK    7  A    between atoms: C_10  and  C_11
REMARK    8  A    between atoms: C_11  and  O_12
REMARK    9  A    between atoms: C_19  and  O_20
REMARK   10  A    between atoms: O_20  and  C_21
REMARK   11  A    between atoms: C_22  and  C_23
REMARK   12  A    between atoms: C_23  and  C_24
REMARK                            x       y       z     vdW  Elec       q    Type
REMARK                         _______ _______ _______ _____ _____    ______ ____
ROOT
ATOM      1  N   UNL     1      -7.549  -0.864 128.375  0.00  0.00    +0.000 N 
ATOM      2  C   UNL     1      -7.256  -0.012 129.450  0.00  0.00    +0.000 A 
ATOM      3  C   UNL     1      -7.665   1.252 129.639  0.00  0.00    +0.000 A 
ATOM      4  C   UNL     1      -8.394   1.863 128.530  0.00  0.00    +0.000 A 
ATOM      5  O   UNL     1      -8.744   3.044 128.601  0.00  0.00    +0.000 OA
ATOM      6  C   UNL     1      -8.626   1.038 127.327  0.00  0.00    +0.000 A 
ATOM      7  C   UNL     1      -8.253  -0.300 127.276  0.00  0.00    +0.000 A 
ATOM      8  C   UNL     1      -8.567  -0.965 126.074  0.00  0.00    +0.000 A 
ATOM      9  C   UNL     1      -8.838  -0.292 124.870  0.00  0.00    +0.000 A 
ATOM     10  C   UNL     1      -9.162   1.056 124.948  0.00  0.00    +0.000 A 
ATOM     11  C   UNL     1      -9.190   1.652 126.223  0.00  0.00    +0.000 A 
ENDROOT
BRANCH   3  12
ATOM     12  C   UNL     1      -7.374   1.944 130.916  0.00  0.00    +0.000 C 
ATOM     13  O   UNL     1      -6.270   1.956 131.428  0.00  0.00    +0.000 OA
BRANCH  12  14
ATOM     14  O   UNL     1      -8.445   2.533 131.499  0.00  0.00    +0.000 OA
ATOM     15  H   UNL     1      -8.255   2.937 132.380  0.00  0.00    +0.000 HD
ENDBRANCH  12  14
ENDBRANCH   3  12
BRANCH   9  16
ATOM     16  O   UNL     1      -8.724  -1.091 123.760  0.00  0.00    +0.000 OA
ATOM     17  C   UNL     1      -8.761  -2.509 123.882  0.00  0.00    +0.000 C 
ENDBRANCH   9  16
BRANCH   1  18
ATOM     18  C   UNL     1      -7.190  -2.335 128.323  0.00  0.00    +0.000 C 
BRANCH  18  19
ATOM     19  C   UNL     1      -5.946  -2.690 129.214  0.00  0.00    +0.000 C 
ATOM     20  C   UNL     1      -6.157  -3.954 130.035  0.00  0.00    +0.000 C 
ATOM     21  C   UNL     1      -4.642  -2.687 128.417  0.00  0.00    +0.000 C 
ENDBRANCH  18  19
BRANCH  18  22
ATOM     22  C   UNL     1      -8.372  -3.264 128.741  0.00  0.00    +0.000 C 
BRANCH  22  23
ATOM     23  O   UNL     1      -8.986  -3.971 127.668  0.00  0.00    +0.000 OA
ATOM     24  H   UNL     1      -9.259  -3.351 126.975  0.00  0.00    +0.000 HD
ENDBRANCH  22  23
ENDBRANCH  18  22
ENDBRANCH   1  18
BRANCH  10  25
ATOM     25  C   UNL     1      -9.467   1.889 123.735  0.00  0.00    +0.000 C 
BRANCH  25  26
ATOM     26  C   UNL     1      -8.337   2.671 123.166  0.00  0.00    +0.000 A 
ATOM     27  C   UNL     1      -8.364   3.053 121.821  0.00  0.00    +0.000 A 
ATOM     28  F   UNL     1      -9.427   2.725 121.066  0.00  0.00    +0.000 F 
ATOM     29  C   UNL     1      -7.255   3.644 121.255  0.00  0.00    +0.000 A 
ATOM     30 CL   UNL     1      -7.308   4.198 119.632  0.00  0.00    +0.000 Cl
ATOM     31  C   UNL     1      -6.089   3.759 122.014  0.00  0.00    +0.000 A 
ATOM     32  C   UNL     1      -6.058   3.348 123.350  0.00  0.00    +0.000 A 
ATOM     33  C   UNL     1      -7.216   2.906 123.960  0.00  0.00    +0.000 A 
ENDBRANCH  25  26
ENDBRANCH  10  25
TORSDOF 9
ENDMDL
MODEL 9
REMARK VINA RESULT:      -7.3      4.653      8.005
REMARK  Name = Elvitegravir
REMARK  12 active torsions:
REMARK  status: ('A' for Active; 'I' for Inactive)
REMARK    1  A    between atoms: C_2  and  C_3
REMARK    2  A    between atoms: C_2  and  C_5
REMARK    3  A    between atoms: C_2  and  N_8
REMARK    4  A    between atoms: C_3  and  O_4
REMARK    5  A    between atoms: C_5  and  C_6
REMARK    6  A    between atoms: C_5  and  C_7
REMARK    7  A    between atoms: C_10  and  C_11
REMARK    8  A    between atoms: C_11  and  O_12
REMARK    9  A    between atoms: C_19  and  O_20
REMARK   10  A    between atoms: O_20  and  C_21
REMARK   11  A    between atoms: C_22  and  C_23
REMARK   12  A    between atoms: C_23  and  C_24
REMARK                            x       y       z     vdW  Elec       q    Type
REMARK                         _______ _______ _______ _____ _____    ______ ____
ROOT
ATOM      1  N   UNL     1      -7.181   0.574 125.639  0.00  0.00    +0.000 N 
ATOM      2  C   UNL     1      -6.982  -0.093 124.421  0.00  0.00    +0.000 A 
ATOM      3  C   UNL     1      -7.239  -1.377 124.129  0.00  0.00    +0.000 A 
ATOM      4  C   UNL     1      -7.650  -2.219 125.250  0.00  0.00    +0.000 A 
ATOM      5  O   UNL     1      -7.840  -3.426 125.075  0.00  0.00    +0.000 OA
ATOM      6  C   UNL     1      -7.762  -1.584 126.578  0.00  0.00    +0.000 A 
ATOM      7  C   UNL     1      -7.577  -0.217 126.752  0.00  0.00    +0.000 A 
ATOM      8  C   UNL     1      -7.746   0.248 128.071  0.00  0.00    +0.000 A 
ATOM      9  C   UNL     1      -7.686  -0.591 129.197  0.00  0.00    +0.000 A 
ATOM     10  C   UNL     1      -7.828  -1.956 128.987  0.00  0.00    +0.000 A 
ATOM     11  C   UNL     1      -8.014  -2.402 127.665  0.00  0.00    +0.000 A 
ENDROOT
BRANCH   3  12
ATOM     12  C   UNL     1      -7.103  -1.864 122.737  0.00  0.00    +0.000 C 
ATOM     13  O   UNL     1      -6.033  -1.931 122.158  0.00  0.00    +0.000 OA
BRANCH  12  14
ATOM     14  O   UNL     1      -8.269  -2.194 122.134  0.00  0.00    +0.000 OA
ATOM     15  H   UNL     1      -9.073  -2.008 122.678  0.00  0.00    +0.000 HD
ENDBRANCH  12  14
ENDBRANCH   3  12
BRANCH   9  16
ATOM     16  O   UNL     1      -7.475   0.086 130.373  0.00  0.00    +0.000 OA
ATOM     17  C   UNL     1      -6.216   0.692 130.643  0.00  0.00    +0.000 C 
ENDBRANCH   9  16
BRANCH   1  18
ATOM     18  C   UNL     1      -7.028   2.068 125.834  0.00  0.00    +0.000 C 
BRANCH  18  19
ATOM     19  C   UNL     1      -5.560   2.568 125.587  0.00  0.00    +0.000 C 
ATOM     20  C   UNL     1      -5.461   4.085 125.521  0.00  0.00    +0.000 C 
ATOM     21  C   UNL     1      -4.559   1.931 126.551  0.00  0.00    +0.000 C 
ENDBRANCH  18  19
BRANCH  18  22
ATOM     22  C   UNL     1      -7.987   2.902 124.929  0.00  0.00    +0.000 C 
BRANCH  22  23
ATOM     23  O   UNL     1      -9.372   2.617 125.101  0.00  0.00    +0.000 OA
ATOM     24  H   UNL     1      -9.845   2.760 124.268  0.00  0.00    +0.000 HD
ENDBRANCH  22  23
ENDBRANCH  18  22
ENDBRANCH   1  18
BRANCH  10  25
ATOM     25  C   UNL     1      -7.777  -2.959 130.106  0.00  0.00    +0.000 C 
BRANCH  25  26
ATOM     26  C   UNL     1      -6.442  -3.209 130.712  0.00  0.00    +0.000 A 
ATOM     27  C   UNL     1      -6.176  -2.766 132.012  0.00  0.00    +0.000 A 
ATOM     28  F   UNL     1      -7.144  -2.141 132.705  0.00  0.00    +0.000 F 
ATOM     29  C   UNL     1      -4.897  -2.862 132.519  0.00  0.00    +0.000 A 
ATOM     30 CL   UNL     1      -4.579  -2.407 134.142  0.00  0.00    +0.000 Cl
ATOM     31  C   UNL     1      -3.871  -3.307 131.685  0.00  0.00    +0.000 A 
ATOM     32  C   UNL     1      -4.137  -3.719 130.375  0.00  0.00    +0.000 A 
ATOM     33  C   UNL     1      -5.442  -3.776 129.925  0.00  0.00    +0.000 A 
ENDBRANCH  25  26
ENDBRANCH  10  25
TORSDOF 9
ENDMDL
