MODEL 1
REMARK VINA RESULT:      -6.8      0.000      0.000
REMARK  Name = Emedastine
REMARK  6 active torsions:
REMARK  status: ('A' for Active; 'I' for Inactive)
REMARK    1  A    between atoms: C_1  and  C_2
REMARK    2  A    between atoms: C_2  and  O_3
REMARK    3  A    between atoms: O_3  and  C_4
REMARK    4  A    between atoms: C_4  and  C_5
REMARK    5  A    between atoms: C_5  and  N_6
REMARK    6  A    between atoms: N_19  and  C_20
REMARK                            x       y       z     vdW  Elec       q    Type
REMARK                         _______ _______ _______ _____ _____    ______ ____
ROOT
ATOM      1  N   UNL     1     -10.032   4.556 131.297  0.00  0.00    +0.000 N 
ATOM      2  C   UNL     1     -10.056   5.873 130.880  0.00  0.00    +0.000 A 
ATOM      3  N   UNL     1      -9.352   6.619 131.715  0.00  0.00    +0.000 NA
ATOM      4  C   UNL     1      -8.923   5.776 132.726  0.00  0.00    +0.000 A 
ATOM      5  C   UNL     1      -8.177   6.035 133.893  0.00  0.00    +0.000 A 
ATOM      6  C   UNL     1      -7.833   4.968 134.744  0.00  0.00    +0.000 A 
ATOM      7  C   UNL     1      -8.215   3.662 134.440  0.00  0.00    +0.000 A 
ATOM      8  C   UNL     1      -8.966   3.386 133.296  0.00  0.00    +0.000 A 
ATOM      9  C   UNL     1      -9.314   4.467 132.471  0.00  0.00    +0.000 A 
ATOM     10  N   UNL     1     -10.661   6.230 129.713  0.00  0.00    +0.000 N 
ATOM     11  C   UNL     1      -9.929   6.984 128.697  0.00  0.00    +0.000 C 
ATOM     12  C   UNL     1     -10.489   8.380 128.422  0.00  0.00    +0.000 C 
ATOM     13  C   UNL     1     -11.845   8.329 127.708  0.00  0.00    +0.000 C 
ATOM     14  N   UNL     1     -13.016   8.307 128.596  0.00  0.00    +0.000 NA
ATOM     15  C   UNL     1     -13.367   9.669 129.006  0.00  0.00    +0.000 C 
ATOM     16  C   UNL     1     -12.836   7.462 129.799  0.00  0.00    +0.000 C 
ATOM     17  C   UNL     1     -12.121   6.117 129.563  0.00  0.00    +0.000 C 
ENDROOT
BRANCH   1  18
ATOM     18  C   UNL     1     -10.544   3.410 130.578  0.00  0.00    +0.000 C 
BRANCH  18  19
ATOM     19  C   UNL     1      -9.442   2.660 129.853  0.00  0.00    +0.000 C 
BRANCH  19  20
ATOM     20  O   UNL     1      -9.070   3.401 128.689  0.00  0.00    +0.000 OA
BRANCH  20  22
ATOM     21  C   UNL     1      -6.999   4.317 129.467  0.00  0.00    +0.000 C 
ATOM     22  C   UNL     1      -7.658   3.357 128.500  0.00  0.00    +0.000 C 
ENDBRANCH  20  22
ENDBRANCH  19  20
ENDBRANCH  18  19
ENDBRANCH   1  18
TORSDOF 4
ENDMDL
MODEL 2
REMARK VINA RESULT:      -6.3      6.603      8.578
REMARK  Name = Emedastine
REMARK  6 active torsions:
REMARK  status: ('A' for Active; 'I' for Inactive)
REMARK    1  A    between atoms: C_1  and  C_2
REMARK    2  A    between atoms: C_2  and  O_3
REMARK    3  A    between atoms: O_3  and  C_4
REMARK    4  A    between atoms: C_4  and  C_5
REMARK    5  A    between atoms: C_5  and  N_6
REMARK    6  A    between atoms: N_19  and  C_20
REMARK                            x       y       z     vdW  Elec       q    Type
REMARK                         _______ _______ _______ _____ _____    ______ ____
ROOT
ATOM      1  N   UNL     1      -8.283  -1.419 125.617  0.00  0.00    +0.000 N 
ATOM      2  C   UNL     1      -7.681  -0.245 126.029  0.00  0.00    +0.000 A 
ATOM      3  N   UNL     1      -7.374  -0.328 127.313  0.00  0.00    +0.000 NA
ATOM      4  C   UNL     1      -7.848  -1.552 127.750  0.00  0.00    +0.000 A 
ATOM      5  C   UNL     1      -7.836  -2.147 129.028  0.00  0.00    +0.000 A 
ATOM      6  C   UNL     1      -8.354  -3.445 129.191  0.00  0.00    +0.000 A 
ATOM      7  C   UNL     1      -8.870  -4.149 128.103  0.00  0.00    +0.000 A 
ATOM      8  C   UNL     1      -8.904  -3.572 126.832  0.00  0.00    +0.000 A 
ATOM      9  C   UNL     1      -8.399  -2.270 126.695  0.00  0.00    +0.000 A 
ATOM     10  N   UNL     1      -7.402   0.751 125.142  0.00  0.00    +0.000 N 
ATOM     11  C   UNL     1      -6.047   1.288 125.031  0.00  0.00    +0.000 C 
ATOM     12  C   UNL     1      -5.918   2.761 125.420  0.00  0.00    +0.000 C 
ATOM     13  C   UNL     1      -6.595   3.689 124.404  0.00  0.00    +0.000 C 
ATOM     14  N   UNL     1      -8.004   3.996 124.684  0.00  0.00    +0.000 NA
ATOM     15  C   UNL     1      -8.102   5.099 125.644  0.00  0.00    +0.000 C 
ATOM     16  C   UNL     1      -8.779   2.838 125.185  0.00  0.00    +0.000 C 
ATOM     17  C   UNL     1      -8.490   1.495 124.487  0.00  0.00    +0.000 C 
ENDROOT
BRANCH   1  18
ATOM     18  C   UNL     1      -8.623  -1.788 124.261  0.00  0.00    +0.000 C 
BRANCH  18  19
ATOM     19  C   UNL     1      -7.389  -2.097 123.433  0.00  0.00    +0.000 C 
BRANCH  19  20
ATOM     20  O   UNL     1      -6.740  -3.244 123.985  0.00  0.00    +0.000 OA
BRANCH  20  22
ATOM     21  C   UNL     1      -4.506  -4.006 123.585  0.00  0.00    +0.000 C 
ATOM     22  C   UNL     1      -5.370  -2.960 124.256  0.00  0.00    +0.000 C 
ENDBRANCH  20  22
ENDBRANCH  19  20
ENDBRANCH  18  19
ENDBRANCH   1  18
TORSDOF 4
ENDMDL
MODEL 3
REMARK VINA RESULT:      -6.3      1.954      5.907
REMARK  Name = Emedastine
REMARK  6 active torsions:
REMARK  status: ('A' for Active; 'I' for Inactive)
REMARK    1  A    between atoms: C_1  and  C_2
REMARK    2  A    between atoms: C_2  and  O_3
REMARK    3  A    between atoms: O_3  and  C_4
REMARK    4  A    between atoms: C_4  and  C_5
REMARK    5  A    between atoms: C_5  and  N_6
REMARK    6  A    between atoms: N_19  and  C_20
REMARK                            x       y       z     vdW  Elec       q    Type
REMARK                         _______ _______ _______ _____ _____    ______ ____
ROOT
ATOM      1  N   UNL     1     -10.288   5.701 130.395  0.00  0.00    +0.000 N 
ATOM      2  C   UNL     1      -9.332   5.329 129.469  0.00  0.00    +0.000 A 
ATOM      3  N   UNL     1      -9.415   6.109 128.405  0.00  0.00    +0.000 NA
ATOM      4  C   UNL     1     -10.488   6.956 128.623  0.00  0.00    +0.000 A 
ATOM      5  C   UNL     1     -11.057   7.958 127.810  0.00  0.00    +0.000 A 
ATOM      6  C   UNL     1     -12.136   8.715 128.302  0.00  0.00    +0.000 A 
ATOM      7  C   UNL     1     -12.640   8.491 129.582  0.00  0.00    +0.000 A 
ATOM      8  C   UNL     1     -12.100   7.494 130.397  0.00  0.00    +0.000 A 
ATOM      9  C   UNL     1     -11.036   6.738 129.880  0.00  0.00    +0.000 A 
ATOM     10  N   UNL     1      -8.423   4.354 129.749  0.00  0.00    +0.000 N 
ATOM     11  C   UNL     1      -6.990   4.613 129.612  0.00  0.00    +0.000 C 
ATOM     12  C   UNL     1      -6.295   3.766 128.545  0.00  0.00    +0.000 C 
ATOM     13  C   UNL     1      -6.204   2.289 128.948  0.00  0.00    +0.000 C 
ATOM     14  N   UNL     1      -7.335   1.455 128.518  0.00  0.00    +0.000 NA
ATOM     15  C   UNL     1      -7.141   1.012 127.134  0.00  0.00    +0.000 C 
ATOM     16  C   UNL     1      -8.650   2.124 128.640  0.00  0.00    +0.000 C 
ATOM     17  C   UNL     1      -8.854   2.957 129.920  0.00  0.00    +0.000 C 
ENDROOT
BRANCH   1  18
ATOM     18  C   UNL     1     -10.423   5.204 131.746  0.00  0.00    +0.000 C 
BRANCH  18  19
ATOM     19  C   UNL     1      -9.521   5.946 132.715  0.00  0.00    +0.000 C 
BRANCH  19  20
ATOM     20  O   UNL     1      -8.461   5.075 133.116  0.00  0.00    +0.000 OA
BRANCH  20  22
ATOM     21  C   UNL     1      -7.885   2.801 133.591  0.00  0.00    +0.000 C 
ATOM     22  C   UNL     1      -8.986   3.839 133.594  0.00  0.00    +0.000 C 
ENDBRANCH  20  22
ENDBRANCH  19  20
ENDBRANCH  18  19
ENDBRANCH   1  18
TORSDOF 4
ENDMDL
MODEL 4
REMARK VINA RESULT:      -6.1      6.014      8.996
REMARK  Name = Emedastine
REMARK  6 active torsions:
REMARK  status: ('A' for Active; 'I' for Inactive)
REMARK    1  A    between atoms: C_1  and  C_2
REMARK    2  A    between atoms: C_2  and  O_3
REMARK    3  A    between atoms: O_3  and  C_4
REMARK    4  A    between atoms: C_4  and  C_5
REMARK    5  A    between atoms: C_5  and  N_6
REMARK    6  A    between atoms: N_19  and  C_20
REMARK                            x       y       z     vdW  Elec       q    Type
REMARK                         _______ _______ _______ _____ _____    ______ ____
ROOT
ATOM      1  N   UNL     1      -8.274   0.613 124.521  0.00  0.00    +0.000 N 
ATOM      2  C   UNL     1      -7.077   1.115 124.994  0.00  0.00    +0.000 A 
ATOM      3  N   UNL     1      -6.190   0.139 125.088  0.00  0.00    +0.000 NA
ATOM      4  C   UNL     1      -6.850  -1.025 124.732  0.00  0.00    +0.000 A 
ATOM      5  C   UNL     1      -6.409  -2.363 124.691  0.00  0.00    +0.000 A 
ATOM      6  C   UNL     1      -7.287  -3.366 124.240  0.00  0.00    +0.000 A 
ATOM      7  C   UNL     1      -8.581  -3.048 123.827  0.00  0.00    +0.000 A 
ATOM      8  C   UNL     1      -9.041  -1.730 123.874  0.00  0.00    +0.000 A 
ATOM      9  C   UNL     1      -8.155  -0.749 124.344  0.00  0.00    +0.000 A 
ATOM     10  N   UNL     1      -6.909   2.450 125.207  0.00  0.00    +0.000 N 
ATOM     11  C   UNL     1      -5.796   3.167 124.588  0.00  0.00    +0.000 C 
ATOM     12  C   UNL     1      -4.790   3.750 125.581  0.00  0.00    +0.000 C 
ATOM     13  C   UNL     1      -5.376   4.921 126.378  0.00  0.00    +0.000 C 
ATOM     14  N   UNL     1      -6.029   4.549 127.641  0.00  0.00    +0.000 NA
ATOM     15  C   UNL     1      -5.033   4.418 128.708  0.00  0.00    +0.000 C 
ATOM     16  C   UNL     1      -6.826   3.304 127.557  0.00  0.00    +0.000 C 
ATOM     17  C   UNL     1      -7.659   3.136 126.272  0.00  0.00    +0.000 C 
ENDROOT
BRANCH   1  18
ATOM     18  C   UNL     1      -9.440   1.376 124.132  0.00  0.00    +0.000 C 
BRANCH  18  19
ATOM     19  C   UNL     1      -9.375   1.803 122.677  0.00  0.00    +0.000 C 
BRANCH  19  20
ATOM     20  O   UNL     1      -8.888   3.145 122.612  0.00  0.00    +0.000 OA
BRANCH  20  22
ATOM     21  C   UNL     1      -7.120   3.654 121.082  0.00  0.00    +0.000 C 
ATOM     22  C   UNL     1      -8.615   3.511 121.262  0.00  0.00    +0.000 C 
ENDBRANCH  20  22
ENDBRANCH  19  20
ENDBRANCH  18  19
ENDBRANCH   1  18
TORSDOF 4
ENDMDL
MODEL 5
REMARK VINA RESULT:      -6.0      7.368     10.462
REMARK  Name = Emedastine
REMARK  6 active torsions:
REMARK  status: ('A' for Active; 'I' for Inactive)
REMARK    1  A    between atoms: C_1  and  C_2
REMARK    2  A    between atoms: C_2  and  O_3
REMARK    3  A    between atoms: O_3  and  C_4
REMARK    4  A    between atoms: C_4  and  C_5
REMARK    5  A    between atoms: C_5  and  N_6
REMARK    6  A    between atoms: N_19  and  C_20
REMARK                            x       y       z     vdW  Elec       q    Type
REMARK                         _______ _______ _______ _____ _____    ______ ____
ROOT
ATOM      1  N   UNL     1      -6.770  -0.653 125.062  0.00  0.00    +0.000 N 
ATOM      2  C   UNL     1      -7.334  -0.888 126.301  0.00  0.00    +0.000 A 
ATOM      3  N   UNL     1      -8.255   0.027 126.553  0.00  0.00    +0.000 NA
ATOM      4  C   UNL     1      -8.236   0.906 125.484  0.00  0.00    +0.000 A 
ATOM      5  C   UNL     1      -8.971   2.084 125.240  0.00  0.00    +0.000 A 
ATOM      6  C   UNL     1      -8.785   2.776 124.030  0.00  0.00    +0.000 A 
ATOM      7  C   UNL     1      -7.891   2.305 123.069  0.00  0.00    +0.000 A 
ATOM      8  C   UNL     1      -7.142   1.149 123.297  0.00  0.00    +0.000 A 
ATOM      9  C   UNL     1      -7.330   0.484 124.519  0.00  0.00    +0.000 A 
ATOM     10  N   UNL     1      -6.991  -1.985 127.033  0.00  0.00    +0.000 N 
ATOM     11  C   UNL     1      -8.019  -2.903 127.521  0.00  0.00    +0.000 C 
ATOM     12  C   UNL     1      -8.128  -2.976 129.045  0.00  0.00    +0.000 C 
ATOM     13  C   UNL     1      -6.914  -3.665 129.679  0.00  0.00    +0.000 C 
ATOM     14  N   UNL     1      -5.812  -2.766 130.050  0.00  0.00    +0.000 NA
ATOM     15  C   UNL     1      -6.066  -2.169 131.364  0.00  0.00    +0.000 C 
ATOM     16  C   UNL     1      -5.559  -1.692 129.063  0.00  0.00    +0.000 C 
ATOM     17  C   UNL     1      -5.634  -2.121 127.584  0.00  0.00    +0.000 C 
ENDROOT
BRANCH   1  18
ATOM     18  C   UNL     1      -5.845  -1.511 124.355  0.00  0.00    +0.000 C 
BRANCH  18  19
ATOM     19  C   UNL     1      -6.565  -2.575 123.548  0.00  0.00    +0.000 C 
BRANCH  19  20
ATOM     20  O   UNL     1      -6.265  -3.857 124.104  0.00  0.00    +0.000 OA
BRANCH  20  22
ATOM     21  C   UNL     1      -4.242  -4.920 123.390  0.00  0.00    +0.000 C 
ATOM     22  C   UNL     1      -4.871  -3.965 124.382  0.00  0.00    +0.000 C 
ENDBRANCH  20  22
ENDBRANCH  19  20
ENDBRANCH  18  19
ENDBRANCH   1  18
TORSDOF 4
ENDMDL
MODEL 6
REMARK VINA RESULT:      -5.9      2.608      5.985
REMARK  Name = Emedastine
REMARK  6 active torsions:
REMARK  status: ('A' for Active; 'I' for Inactive)
REMARK    1  A    between atoms: C_1  and  C_2
REMARK    2  A    between atoms: C_2  and  O_3
REMARK    3  A    between atoms: O_3  and  C_4
REMARK    4  A    between atoms: C_4  and  C_5
REMARK    5  A    between atoms: C_5  and  N_6
REMARK    6  A    between atoms: N_19  and  C_20
REMARK                            x       y       z     vdW  Elec       q    Type
REMARK                         _______ _______ _______ _____ _____    ______ ____
ROOT
ATOM      1  N   UNL     1      -9.179   5.134 130.715  0.00  0.00    +0.000 N 
ATOM      2  C   UNL     1      -8.055   5.934 130.631  0.00  0.00    +0.000 A 
ATOM      3  N   UNL     1      -8.387   7.121 130.152  0.00  0.00    +0.000 NA
ATOM      4  C   UNL     1      -9.738   7.061 129.860  0.00  0.00    +0.000 A 
ATOM      5  C   UNL     1     -10.606   8.016 129.294  0.00  0.00    +0.000 A 
ATOM      6  C   UNL     1     -11.971   7.708 129.145  0.00  0.00    +0.000 A 
ATOM      7  C   UNL     1     -12.472   6.474 129.559  0.00  0.00    +0.000 A 
ATOM      8  C   UNL     1     -11.626   5.509 130.110  0.00  0.00    +0.000 A 
ATOM      9  C   UNL     1     -10.266   5.831 130.232  0.00  0.00    +0.000 A 
ATOM     10  N   UNL     1      -6.848   5.501 131.091  0.00  0.00    +0.000 N 
ATOM     11  C   UNL     1      -6.094   6.296 132.060  0.00  0.00    +0.000 C 
ATOM     12  C   UNL     1      -4.752   6.814 131.543  0.00  0.00    +0.000 C 
ATOM     13  C   UNL     1      -3.730   5.686 131.356  0.00  0.00    +0.000 C 
ATOM     14  N   UNL     1      -3.721   5.068 130.024  0.00  0.00    +0.000 NA
ATOM     15  C   UNL     1      -2.903   5.862 129.102  0.00  0.00    +0.000 C 
ATOM     16  C   UNL     1      -5.070   4.879 129.444  0.00  0.00    +0.000 C 
ATOM     17  C   UNL     1      -6.151   4.388 130.428  0.00  0.00    +0.000 C 
ENDROOT
BRANCH   1  18
ATOM     18  C   UNL     1      -9.268   3.829 131.330  0.00  0.00    +0.000 C 
BRANCH  18  19
ATOM     19  C   UNL     1      -9.441   3.924 132.835  0.00  0.00    +0.000 C 
BRANCH  19  20
ATOM     20  O   UNL     1      -8.651   2.906 133.454  0.00  0.00    +0.000 OA
BRANCH  20  22
ATOM     21  C   UNL     1      -7.960   4.696 134.886  0.00  0.00    +0.000 C 
ATOM     22  C   UNL     1      -7.518   3.480 134.102  0.00  0.00    +0.000 C 
ENDBRANCH  20  22
ENDBRANCH  19  20
ENDBRANCH  18  19
ENDBRANCH   1  18
TORSDOF 4
ENDMDL
MODEL 7
REMARK VINA RESULT:      -5.8      5.765      8.413
REMARK  Name = Emedastine
REMARK  6 active torsions:
REMARK  status: ('A' for Active; 'I' for Inactive)
REMARK    1  A    between atoms: C_1  and  C_2
REMARK    2  A    between atoms: C_2  and  O_3
REMARK    3  A    between atoms: O_3  and  C_4
REMARK    4  A    between atoms: C_4  and  C_5
REMARK    5  A    between atoms: C_5  and  N_6
REMARK    6  A    between atoms: N_19  and  C_20
REMARK                            x       y       z     vdW  Elec       q    Type
REMARK                         _______ _______ _______ _____ _____    ______ ____
ROOT
ATOM      1  N   UNL     1      -7.990  -0.054 125.857  0.00  0.00    +0.000 N 
ATOM      2  C   UNL     1      -6.974   0.453 126.644  0.00  0.00    +0.000 A 
ATOM      3  N   UNL     1      -6.648  -0.429 127.575  0.00  0.00    +0.000 NA
ATOM      4  C   UNL     1      -7.516  -1.496 127.423  0.00  0.00    +0.000 A 
ATOM      5  C   UNL     1      -7.653  -2.690 128.159  0.00  0.00    +0.000 A 
ATOM      6  C   UNL     1      -8.605  -3.645 127.756  0.00  0.00    +0.000 A 
ATOM      7  C   UNL     1      -9.405  -3.426 126.635  0.00  0.00    +0.000 A 
ATOM      8  C   UNL     1      -9.294  -2.243 125.900  0.00  0.00    +0.000 A 
ATOM      9  C   UNL     1      -8.352  -1.297 126.331  0.00  0.00    +0.000 A 
ATOM     10  N   UNL     1      -6.397   1.654 126.361  0.00  0.00    +0.000 N 
ATOM     11  C   UNL     1      -4.947   1.761 126.201  0.00  0.00    +0.000 C 
ATOM     12  C   UNL     1      -4.260   2.642 127.245  0.00  0.00    +0.000 C 
ATOM     13  C   UNL     1      -4.602   4.126 127.064  0.00  0.00    +0.000 C 
ATOM     14  N   UNL     1      -5.779   4.590 127.811  0.00  0.00    +0.000 NA
ATOM     15  C   UNL     1      -5.408   4.920 129.190  0.00  0.00    +0.000 C 
ATOM     16  C   UNL     1      -6.899   3.621 127.823  0.00  0.00    +0.000 C 
ATOM     17  C   UNL     1      -7.166   2.902 126.486  0.00  0.00    +0.000 C 
ENDROOT
BRANCH   1  18
ATOM     18  C   UNL     1      -8.518   0.530 124.643  0.00  0.00    +0.000 C 
BRANCH  18  19
ATOM     19  C   UNL     1      -8.139  -0.278 123.416  0.00  0.00    +0.000 C 
BRANCH  19  20
ATOM     20  O   UNL     1      -6.717  -0.417 123.377  0.00  0.00    +0.000 OA
BRANCH  20  22
ATOM     21  C   UNL     1      -5.565  -2.377 124.126  0.00  0.00    +0.000 C 
ATOM     22  C   UNL     1      -6.356  -1.744 123.002  0.00  0.00    +0.000 C 
ENDBRANCH  20  22
ENDBRANCH  19  20
ENDBRANCH  18  19
ENDBRANCH   1  18
TORSDOF 4
ENDMDL
MODEL 8
REMARK VINA RESULT:      -5.8      7.303      9.098
REMARK  Name = Emedastine
REMARK  6 active torsions:
REMARK  status: ('A' for Active; 'I' for Inactive)
REMARK    1  A    between atoms: C_1  and  C_2
REMARK    2  A    between atoms: C_2  and  O_3
REMARK    3  A    between atoms: O_3  and  C_4
REMARK    4  A    between atoms: C_4  and  C_5
REMARK    5  A    between atoms: C_5  and  N_6
REMARK    6  A    between atoms: N_19  and  C_20
REMARK                            x       y       z     vdW  Elec       q    Type
REMARK                         _______ _______ _______ _____ _____    ______ ____
ROOT
ATOM      1  N   UNL     1      -6.073   2.742 125.598  0.00  0.00    +0.000 N 
ATOM      2  C   UNL     1      -6.341   1.462 126.042  0.00  0.00    +0.000 A 
ATOM      3  N   UNL     1      -5.575   1.181 127.084  0.00  0.00    +0.000 NA
ATOM      4  C   UNL     1      -4.753   2.279 127.271  0.00  0.00    +0.000 A 
ATOM      5  C   UNL     1      -3.720   2.514 128.202  0.00  0.00    +0.000 A 
ATOM      6  C   UNL     1      -3.062   3.758 128.203  0.00  0.00    +0.000 A 
ATOM      7  C   UNL     1      -3.425   4.758 127.302  0.00  0.00    +0.000 A 
ATOM      8  C   UNL     1      -4.435   4.539 126.363  0.00  0.00    +0.000 A 
ATOM      9  C   UNL     1      -5.066   3.286 126.367  0.00  0.00    +0.000 A 
ATOM     10  N   UNL     1      -7.334   0.716 125.483  0.00  0.00    +0.000 N 
ATOM     11  C   UNL     1      -8.383   0.131 126.317  0.00  0.00    +0.000 C 
ATOM     12  C   UNL     1      -8.405  -1.398 126.323  0.00  0.00    +0.000 C 
ATOM     13  C   UNL     1      -8.860  -1.975 124.977  0.00  0.00    +0.000 C 
ATOM     14  N   UNL     1      -7.781  -2.243 124.017  0.00  0.00    +0.000 NA
ATOM     15  C   UNL     1      -7.174  -3.550 124.287  0.00  0.00    +0.000 C 
ATOM     16  C   UNL     1      -6.725  -1.205 124.001  0.00  0.00    +0.000 C 
ATOM     17  C   UNL     1      -7.225   0.250 124.091  0.00  0.00    +0.000 C 
ENDROOT
BRANCH   1  18
ATOM     18  C   UNL     1      -6.802   3.478 124.589  0.00  0.00    +0.000 C 
BRANCH  18  19
ATOM     19  C   UNL     1      -6.094   3.448 123.247  0.00  0.00    +0.000 C 
BRANCH  19  20
ATOM     20  O   UNL     1      -5.480   4.719 123.021  0.00  0.00    +0.000 OA
BRANCH  20  22
ATOM     21  C   UNL     1      -5.248   3.667 120.884  0.00  0.00    +0.000 C 
ATOM     22  C   UNL     1      -4.672   4.681 121.848  0.00  0.00    +0.000 C 
ENDBRANCH  20  22
ENDBRANCH  19  20
ENDBRANCH  18  19
ENDBRANCH   1  18
TORSDOF 4
ENDMDL
MODEL 9
REMARK VINA RESULT:      -5.7      6.445      8.939
REMARK  Name = Emedastine
REMARK  6 active torsions:
REMARK  status: ('A' for Active; 'I' for Inactive)
REMARK    1  A    between atoms: C_1  and  C_2
REMARK    2  A    between atoms: C_2  and  O_3
REMARK    3  A    between atoms: O_3  and  C_4
REMARK    4  A    between atoms: C_4  and  C_5
REMARK    5  A    between atoms: C_5  and  N_6
REMARK    6  A    between atoms: N_19  and  C_20
REMARK                            x       y       z     vdW  Elec       q    Type
REMARK                         _______ _______ _______ _____ _____    ______ ____
ROOT
ATOM      1  N   UNL     1      -7.870  -1.615 129.642  0.00  0.00    +0.000 N 
ATOM      2  C   UNL     1      -7.707  -1.331 128.300  0.00  0.00    +0.000 A 
ATOM      3  N   UNL     1      -7.767  -0.023 128.111  0.00  0.00    +0.000 NA
ATOM      4  C   UNL     1      -8.039   0.539 129.347  0.00  0.00    +0.000 A 
ATOM      5  C   UNL     1      -8.249   1.880 129.728  0.00  0.00    +0.000 A 
ATOM      6  C   UNL     1      -8.467   2.186 131.084  0.00  0.00    +0.000 A 
ATOM      7  C   UNL     1      -8.470   1.181 132.051  0.00  0.00    +0.000 A 
ATOM      8  C   UNL     1      -8.279  -0.155 131.691  0.00  0.00    +0.000 A 
ATOM      9  C   UNL     1      -8.081  -0.440 130.332  0.00  0.00    +0.000 A 
ATOM     10  N   UNL     1      -7.434  -2.315 127.400  0.00  0.00    +0.000 N 
ATOM     11  C   UNL     1      -6.271  -2.215 126.519  0.00  0.00    +0.000 C 
ATOM     12  C   UNL     1      -6.612  -2.126 125.031  0.00  0.00    +0.000 C 
ATOM     13  C   UNL     1      -7.174  -3.445 124.487  0.00  0.00    +0.000 C 
ATOM     14  N   UNL     1      -8.635  -3.576 124.559  0.00  0.00    +0.000 NA
ATOM     15  C   UNL     1      -9.261  -2.920 123.407  0.00  0.00    +0.000 C 
ATOM     16  C   UNL     1      -9.222  -3.039 125.808  0.00  0.00    +0.000 C 
ATOM     17  C   UNL     1      -8.435  -3.350 127.096  0.00  0.00    +0.000 C 
ENDROOT
BRANCH   1  18
ATOM     18  C   UNL     1      -7.713  -2.905 130.279  0.00  0.00    +0.000 C 
BRANCH  18  19
ATOM     19  C   UNL     1      -6.308  -3.103 130.815  0.00  0.00    +0.000 C 
BRANCH  19  20
ATOM     20  O   UNL     1      -5.548  -3.838 129.854  0.00  0.00    +0.000 OA
BRANCH  20  22
ATOM     21  C   UNL     1      -3.281  -3.648 129.106  0.00  0.00    +0.000 C 
ATOM     22  C   UNL     1      -4.191  -3.956 130.275  0.00  0.00    +0.000 C 
ENDBRANCH  20  22
ENDBRANCH  19  20
ENDBRANCH  18  19
ENDBRANCH   1  18
TORSDOF 4
ENDMDL
