MODEL 1
REMARK VINA RESULT:      -8.0      0.000      0.000
REMARK  Name = Empagliflozin
REMARK  10 active torsions:
REMARK  status: ('A' for Active; 'I' for Inactive)
REMARK    1  A    between atoms: O_1  and  C_2
REMARK    2  A    between atoms: C_2  and  C_3
REMARK    3  A    between atoms: C_5  and  C_12
REMARK    4  A    between atoms: C_6  and  O_7
REMARK    5  A    between atoms: C_8  and  O_9
REMARK    6  A    between atoms: C_10  and  O_11
REMARK    7  A    between atoms: C_17  and  C_18
REMARK    8  A    between atoms: C_18  and  C_19
REMARK    9  A    between atoms: C_22  and  O_23
REMARK   10  A    between atoms: O_23  and  C_24
REMARK                            x       y       z     vdW  Elec       q    Type
REMARK                         _______ _______ _______ _____ _____    ______ ____
ROOT
ATOM      1  C   UNL     1     -10.184   4.881 130.759  0.00  0.00    +0.000 A 
ATOM      2  C   UNL     1     -10.304   3.490 130.703  0.00  0.00    +0.000 A 
ATOM      3  C   UNL     1      -9.405   2.687 131.375  0.00  0.00    +0.000 A 
ATOM      4  C   UNL     1      -8.403   3.257 132.157  0.00  0.00    +0.000 A 
ATOM      5 CL   UNL     1      -7.626   2.096 133.176  0.00  0.00    +0.000 Cl
ATOM      6  C   UNL     1      -8.175   4.651 132.141  0.00  0.00    +0.000 A 
ATOM      7  C   UNL     1      -9.111   5.454 131.454  0.00  0.00    +0.000 A 
ENDROOT
BRANCH   1  10
ATOM      8  C   UNL     1     -11.368   7.081 128.073  0.00  0.00    +0.000 C 
ATOM      9  O   UNL     1     -10.532   6.241 128.869  0.00  0.00    +0.000 OA
ATOM     10  C   UNL     1     -11.189   5.738 130.034  0.00  0.00    +0.000 C 
ATOM     11  C   UNL     1     -11.682   6.869 130.958  0.00  0.00    +0.000 C 
ATOM     12  C   UNL     1     -12.562   7.833 130.160  0.00  0.00    +0.000 C 
ATOM     13  C   UNL     1     -11.850   8.303 128.870  0.00  0.00    +0.000 C 
BRANCH  11  14
ATOM     14  O   UNL     1     -12.394   6.348 132.090  0.00  0.00    +0.000 OA
ATOM     15  H   UNL     1     -13.189   6.885 132.241  0.00  0.00    +0.000 HD
ENDBRANCH  11  14
BRANCH  12  16
ATOM     16  O   UNL     1     -12.936   8.954 130.970  0.00  0.00    +0.000 OA
ATOM     17  H   UNL     1     -12.798   8.712 131.903  0.00  0.00    +0.000 HD
ENDBRANCH  12  16
BRANCH  13  18
ATOM     18  O   UNL     1     -12.752   9.078 128.071  0.00  0.00    +0.000 OA
ATOM     19  H   UNL     1     -13.636   9.042 128.475  0.00  0.00    +0.000 HD
ENDBRANCH  13  18
BRANCH   8  20
ATOM     20  C   UNL     1     -10.674   7.426 126.740  0.00  0.00    +0.000 C 
BRANCH  20  21
ATOM     21  O   UNL     1      -9.773   6.435 126.261  0.00  0.00    +0.000 OA
ATOM     22  H   UNL     1      -8.995   6.922 125.929  0.00  0.00    +0.000 HD
ENDBRANCH  20  21
ENDBRANCH   8  20
ENDBRANCH   1  10
BRANCH   6  23
ATOM     23  C   UNL     1      -7.010   5.405 132.762  0.00  0.00    +0.000 C 
BRANCH  23  24
ATOM     24  C   UNL     1      -5.781   5.566 131.914  0.00  0.00    +0.000 A 
ATOM     25  C   UNL     1      -4.926   4.483 131.739  0.00  0.00    +0.000 A 
ATOM     26  C   UNL     1      -3.871   4.603 130.852  0.00  0.00    +0.000 A 
ATOM     27  C   UNL     1      -3.730   5.699 129.967  0.00  0.00    +0.000 A 
ATOM     28  C   UNL     1      -4.582   6.791 130.156  0.00  0.00    +0.000 A 
ATOM     29  C   UNL     1      -5.548   6.741 131.177  0.00  0.00    +0.000 A 
BRANCH  27  30
ATOM     30  O   UNL     1      -2.897   5.673 128.825  0.00  0.00    +0.000 OA
BRANCH  30  31
ATOM     31  C   UNL     1      -3.146   4.460 128.113  0.00  0.00    +0.000 C 
ATOM     32  C   UNL     1      -4.226   4.718 127.072  0.00  0.00    +0.000 C 
ATOM     33  C   UNL     1      -4.477   3.333 126.583  0.00  0.00    +0.000 C 
ATOM     34  O   UNL     1      -3.170   2.732 126.508  0.00  0.00    +0.000 OA
ATOM     35  C   UNL     1      -2.229   3.588 127.251  0.00  0.00    +0.000 C 
ENDBRANCH  30  31
ENDBRANCH  27  30
ENDBRANCH  23  24
ENDBRANCH   6  23
TORSDOF 10
ENDMDL
MODEL 2
REMARK VINA RESULT:      -8.0      3.808      5.134
REMARK  Name = Empagliflozin
REMARK  10 active torsions:
REMARK  status: ('A' for Active; 'I' for Inactive)
REMARK    1  A    between atoms: O_1  and  C_2
REMARK    2  A    between atoms: C_2  and  C_3
REMARK    3  A    between atoms: C_5  and  C_12
REMARK    4  A    between atoms: C_6  and  O_7
REMARK    5  A    between atoms: C_8  and  O_9
REMARK    6  A    between atoms: C_10  and  O_11
REMARK    7  A    between atoms: C_17  and  C_18
REMARK    8  A    between atoms: C_18  and  C_19
REMARK    9  A    between atoms: C_22  and  O_23
REMARK   10  A    between atoms: O_23  and  C_24
REMARK                            x       y       z     vdW  Elec       q    Type
REMARK                         _______ _______ _______ _____ _____    ______ ____
ROOT
ATOM      1  C   UNL     1      -9.999   4.838 130.502  0.00  0.00    +0.000 A 
ATOM      2  C   UNL     1      -8.857   5.556 130.866  0.00  0.00    +0.000 A 
ATOM      3  C   UNL     1      -7.734   4.894 131.319  0.00  0.00    +0.000 A 
ATOM      4  C   UNL     1      -7.712   3.502 131.365  0.00  0.00    +0.000 A 
ATOM      5 CL   UNL     1      -6.119   2.879 131.617  0.00  0.00    +0.000 Cl
ATOM      6  C   UNL     1      -8.883   2.749 131.122  0.00  0.00    +0.000 A 
ATOM      7  C   UNL     1     -10.017   3.446 130.654  0.00  0.00    +0.000 A 
ENDROOT
BRANCH   1  10
ATOM      8  C   UNL     1     -11.885   6.901 128.126  0.00  0.00    +0.000 C 
ATOM      9  O   UNL     1     -10.832   6.155 128.736  0.00  0.00    +0.000 OA
ATOM     10  C   UNL     1     -11.207   5.583 129.992  0.00  0.00    +0.000 C 
ATOM     11  C   UNL     1     -11.636   6.653 131.015  0.00  0.00    +0.000 C 
ATOM     12  C   UNL     1     -12.746   7.518 130.411  0.00  0.00    +0.000 C 
ATOM     13  C   UNL     1     -12.339   8.063 129.023  0.00  0.00    +0.000 C 
BRANCH  11  14
ATOM     14  O   UNL     1     -12.068   6.057 132.247  0.00  0.00    +0.000 OA
ATOM     15  H   UNL     1     -11.575   6.456 132.983  0.00  0.00    +0.000 HD
ENDBRANCH  11  14
BRANCH  12  16
ATOM     16  O   UNL     1     -13.080   8.591 131.300  0.00  0.00    +0.000 OA
ATOM     17  H   UNL     1     -12.464   8.562 132.053  0.00  0.00    +0.000 HD
ENDBRANCH  12  16
BRANCH  13  18
ATOM     18  O   UNL     1     -13.450   8.736 128.419  0.00  0.00    +0.000 OA
ATOM     19  H   UNL     1     -14.129   8.887 129.099  0.00  0.00    +0.000 HD
ENDBRANCH  13  18
BRANCH   8  20
ATOM     20  C   UNL     1     -11.491   7.320 126.695  0.00  0.00    +0.000 C 
BRANCH  20  21
ATOM     21  O   UNL     1     -10.289   6.733 126.211  0.00  0.00    +0.000 OA
ATOM     22  H   UNL     1      -9.565   7.288 126.556  0.00  0.00    +0.000 HD
ENDBRANCH  20  21
ENDBRANCH   8  20
ENDBRANCH   1  10
BRANCH   6  23
ATOM     23  C   UNL     1      -9.083   1.257 131.333  0.00  0.00    +0.000 C 
BRANCH  23  24
ATOM     24  C   UNL     1      -8.323   0.338 130.419  0.00  0.00    +0.000 A 
ATOM     25  C   UNL     1      -8.113  -0.983 130.800  0.00  0.00    +0.000 A 
ATOM     26  C   UNL     1      -7.529  -1.852 129.896  0.00  0.00    +0.000 A 
ATOM     27  C   UNL     1      -7.314  -1.520 128.537  0.00  0.00    +0.000 A 
ATOM     28  C   UNL     1      -7.514  -0.188 128.161  0.00  0.00    +0.000 A 
ATOM     29  C   UNL     1      -7.944   0.740 129.126  0.00  0.00    +0.000 A 
BRANCH  27  30
ATOM     30  O   UNL     1      -7.071  -2.483 127.530  0.00  0.00    +0.000 OA
BRANCH  30  31
ATOM     31  C   UNL     1      -8.080  -2.351 126.527  0.00  0.00    +0.000 C 
ATOM     32  C   UNL     1      -7.441  -2.568 125.162  0.00  0.00    +0.000 C 
ATOM     33  C   UNL     1      -8.575  -2.207 124.265  0.00  0.00    +0.000 C 
ATOM     34  O   UNL     1      -9.736  -2.772 124.902  0.00  0.00    +0.000 OA
ATOM     35  C   UNL     1      -9.370  -3.137 126.282  0.00  0.00    +0.000 C 
ENDBRANCH  30  31
ENDBRANCH  27  30
ENDBRANCH  23  24
ENDBRANCH   6  23
TORSDOF 10
ENDMDL
MODEL 3
REMARK VINA RESULT:      -7.9      1.222      2.489
REMARK  Name = Empagliflozin
REMARK  10 active torsions:
REMARK  status: ('A' for Active; 'I' for Inactive)
REMARK    1  A    between atoms: O_1  and  C_2
REMARK    2  A    between atoms: C_2  and  C_3
REMARK    3  A    between atoms: C_5  and  C_12
REMARK    4  A    between atoms: C_6  and  O_7
REMARK    5  A    between atoms: C_8  and  O_9
REMARK    6  A    between atoms: C_10  and  O_11
REMARK    7  A    between atoms: C_17  and  C_18
REMARK    8  A    between atoms: C_18  and  C_19
REMARK    9  A    between atoms: C_22  and  O_23
REMARK   10  A    between atoms: O_23  and  C_24
REMARK                            x       y       z     vdW  Elec       q    Type
REMARK                         _______ _______ _______ _____ _____    ______ ____
ROOT
ATOM      1  C   UNL     1      -9.253   6.336 130.440  0.00  0.00    +0.000 A 
ATOM      2  C   UNL     1      -9.717   5.042 130.688  0.00  0.00    +0.000 A 
ATOM      3  C   UNL     1      -9.017   4.200 131.528  0.00  0.00    +0.000 A 
ATOM      4  C   UNL     1      -7.871   4.653 132.178  0.00  0.00    +0.000 A 
ATOM      5 CL   UNL     1      -7.362   3.580 133.434  0.00  0.00    +0.000 Cl
ATOM      6  C   UNL     1      -7.305   5.908 131.861  0.00  0.00    +0.000 A 
ATOM      7  C   UNL     1      -8.042   6.755 131.005  0.00  0.00    +0.000 A 
ENDROOT
BRANCH   1  10
ATOM      8  C   UNL     1     -12.018   8.582 129.562  0.00  0.00    +0.000 C 
ATOM      9  O   UNL     1     -11.164   7.704 130.296  0.00  0.00    +0.000 OA
ATOM     10  C   UNL     1     -10.046   7.243 129.535  0.00  0.00    +0.000 C 
ATOM     11  C   UNL     1     -10.480   6.476 128.270  0.00  0.00    +0.000 C 
ATOM     12  C   UNL     1     -11.430   7.348 127.446  0.00  0.00    +0.000 C 
ATOM     13  C   UNL     1     -12.589   7.889 128.315  0.00  0.00    +0.000 C 
BRANCH  11  14
ATOM     14  O   UNL     1      -9.347   6.075 127.486  0.00  0.00    +0.000 OA
ATOM     15  H   UNL     1      -9.160   5.136 127.654  0.00  0.00    +0.000 HD
ENDBRANCH  11  14
BRANCH  12  16
ATOM     16  O   UNL     1     -11.937   6.612 126.325  0.00  0.00    +0.000 OA
ATOM     17  H   UNL     1     -11.979   7.216 125.562  0.00  0.00    +0.000 HD
ENDBRANCH  12  16
BRANCH  13  18
ATOM     18  O   UNL     1     -13.371   8.821 127.558  0.00  0.00    +0.000 OA
ATOM     19  H   UNL     1     -14.305   8.554 127.605  0.00  0.00    +0.000 HD
ENDBRANCH  13  18
BRANCH   8  20
ATOM     20  C   UNL     1     -13.084   9.200 130.489  0.00  0.00    +0.000 C 
BRANCH  20  21
ATOM     21  O   UNL     1     -13.421  10.550 130.194  0.00  0.00    +0.000 OA
ATOM     22  H   UNL     1     -13.882  10.526 129.333  0.00  0.00    +0.000 HD
ENDBRANCH  20  21
ENDBRANCH   8  20
ENDBRANCH   1  10
BRANCH   6  23
ATOM     23  C   UNL     1      -5.963   6.459 132.315  0.00  0.00    +0.000 C 
BRANCH  23  24
ATOM     24  C   UNL     1      -4.815   6.314 131.358  0.00  0.00    +0.000 A 
ATOM     25  C   UNL     1      -4.174   5.084 131.242  0.00  0.00    +0.000 A 
ATOM     26  C   UNL     1      -3.207   4.926 130.265  0.00  0.00    +0.000 A 
ATOM     27  C   UNL     1      -2.974   5.885 129.250  0.00  0.00    +0.000 A 
ATOM     28  C   UNL     1      -3.610   7.124 129.377  0.00  0.00    +0.000 A 
ATOM     29  C   UNL     1      -4.464   7.348 130.472  0.00  0.00    +0.000 A 
BRANCH  27  30
ATOM     30  O   UNL     1      -2.275   5.597 128.055  0.00  0.00    +0.000 OA
BRANCH  30  31
ATOM     31  C   UNL     1      -2.673   4.302 127.601  0.00  0.00    +0.000 C 
ATOM     32  C   UNL     1      -3.913   4.451 126.731  0.00  0.00    +0.000 C 
ATOM     33  C   UNL     1      -4.278   3.021 126.522  0.00  0.00    +0.000 C 
ATOM     34  O   UNL     1      -3.019   2.351 126.323  0.00  0.00    +0.000 OA
ATOM     35  C   UNL     1      -1.943   3.262 126.747  0.00  0.00    +0.000 C 
ENDBRANCH  30  31
ENDBRANCH  27  30
ENDBRANCH  23  24
ENDBRANCH   6  23
TORSDOF 10
ENDMDL
MODEL 4
REMARK VINA RESULT:      -7.9      2.335      7.579
REMARK  Name = Empagliflozin
REMARK  10 active torsions:
REMARK  status: ('A' for Active; 'I' for Inactive)
REMARK    1  A    between atoms: O_1  and  C_2
REMARK    2  A    between atoms: C_2  and  C_3
REMARK    3  A    between atoms: C_5  and  C_12
REMARK    4  A    between atoms: C_6  and  O_7
REMARK    5  A    between atoms: C_8  and  O_9
REMARK    6  A    between atoms: C_10  and  O_11
REMARK    7  A    between atoms: C_17  and  C_18
REMARK    8  A    between atoms: C_18  and  C_19
REMARK    9  A    between atoms: C_22  and  O_23
REMARK   10  A    between atoms: O_23  and  C_24
REMARK                            x       y       z     vdW  Elec       q    Type
REMARK                         _______ _______ _______ _____ _____    ______ ____
ROOT
ATOM      1  C   UNL     1      -4.497   5.498 128.374  0.00  0.00    +0.000 A 
ATOM      2  C   UNL     1      -3.636   6.588 128.228  0.00  0.00    +0.000 A 
ATOM      3  C   UNL     1      -3.370   7.413 129.302  0.00  0.00    +0.000 A 
ATOM      4  C   UNL     1      -3.916   7.135 130.552  0.00  0.00    +0.000 A 
ATOM      5 CL   UNL     1      -3.184   8.068 131.810  0.00  0.00    +0.000 Cl
ATOM      6  C   UNL     1      -4.883   6.118 130.711  0.00  0.00    +0.000 A 
ATOM      7  C   UNL     1      -5.134   5.281 129.602  0.00  0.00    +0.000 A 
ENDROOT
BRANCH   1  10
ATOM      8  C   UNL     1      -6.538   3.945 125.751  0.00  0.00    +0.000 C 
ATOM      9  O   UNL     1      -6.139   4.746 126.863  0.00  0.00    +0.000 OA
ATOM     10  C   UNL     1      -4.756   4.599 127.192  0.00  0.00    +0.000 C 
ATOM     11  C   UNL     1      -4.393   3.144 127.548  0.00  0.00    +0.000 C 
ATOM     12  C   UNL     1      -4.827   2.218 126.409  0.00  0.00    +0.000 C 
ATOM     13  C   UNL     1      -6.307   2.451 126.029  0.00  0.00    +0.000 C 
BRANCH  11  14
ATOM     14  O   UNL     1      -2.990   3.003 127.814  0.00  0.00    +0.000 OA
ATOM     15  H   UNL     1      -2.863   2.326 128.500  0.00  0.00    +0.000 HD
ENDBRANCH  11  14
BRANCH  12  16
ATOM     16  O   UNL     1      -4.605   0.848 126.768  0.00  0.00    +0.000 OA
ATOM     17  H   UNL     1      -5.183   0.636 127.522  0.00  0.00    +0.000 HD
ENDBRANCH  12  16
BRANCH  13  18
ATOM     18  O   UNL     1      -6.638   1.685 124.865  0.00  0.00    +0.000 OA
ATOM     19  H   UNL     1      -7.517   1.290 124.992  0.00  0.00    +0.000 HD
ENDBRANCH  13  18
BRANCH   8  20
ATOM     20  C   UNL     1      -7.977   4.296 125.321  0.00  0.00    +0.000 C 
BRANCH  20  21
ATOM     21  O   UNL     1      -8.331   3.863 124.014  0.00  0.00    +0.000 OA
ATOM     22  H   UNL     1      -7.520   3.474 123.634  0.00  0.00    +0.000 HD
ENDBRANCH  20  21
ENDBRANCH   8  20
ENDBRANCH   1  10
BRANCH   6  23
ATOM     23  C   UNL     1      -5.723   5.823 131.945  0.00  0.00    +0.000 C 
BRANCH  23  24
ATOM     24  C   UNL     1      -7.175   6.202 131.879  0.00  0.00    +0.000 A 
ATOM     25  C   UNL     1      -7.660   6.851 130.749  0.00  0.00    +0.000 A 
ATOM     26  C   UNL     1      -9.021   7.076 130.642  0.00  0.00    +0.000 A 
ATOM     27  C   UNL     1      -9.967   6.508 131.529  0.00  0.00    +0.000 A 
ATOM     28  C   UNL     1      -9.475   5.869 132.671  0.00  0.00    +0.000 A 
ATOM     29  C   UNL     1      -8.085   5.790 132.869  0.00  0.00    +0.000 A 
BRANCH  27  30
ATOM     30  O   UNL     1     -11.348   6.416 131.237  0.00  0.00    +0.000 OA
BRANCH  30  31
ATOM     31  C   UNL     1     -11.617   7.205 130.077  0.00  0.00    +0.000 C 
ATOM     32  C   UNL     1     -12.415   6.365 129.090  0.00  0.00    +0.000 C 
ATOM     33  C   UNL     1     -12.427   7.268 127.905  0.00  0.00    +0.000 C 
ATOM     34  O   UNL     1     -12.627   8.584 128.453  0.00  0.00    +0.000 OA
ATOM     35  C   UNL     1     -12.387   8.517 129.905  0.00  0.00    +0.000 C 
ENDBRANCH  30  31
ENDBRANCH  27  30
ENDBRANCH  23  24
ENDBRANCH   6  23
TORSDOF 10
ENDMDL
MODEL 5
REMARK VINA RESULT:      -7.8      4.099      7.683
REMARK  Name = Empagliflozin
REMARK  10 active torsions:
REMARK  status: ('A' for Active; 'I' for Inactive)
REMARK    1  A    between atoms: O_1  and  C_2
REMARK    2  A    between atoms: C_2  and  C_3
REMARK    3  A    between atoms: C_5  and  C_12
REMARK    4  A    between atoms: C_6  and  O_7
REMARK    5  A    between atoms: C_8  and  O_9
REMARK    6  A    between atoms: C_10  and  O_11
REMARK    7  A    between atoms: C_17  and  C_18
REMARK    8  A    between atoms: C_18  and  C_19
REMARK    9  A    between atoms: C_22  and  O_23
REMARK   10  A    between atoms: O_23  and  C_24
REMARK                            x       y       z     vdW  Elec       q    Type
REMARK                         _______ _______ _______ _____ _____    ______ ____
ROOT
ATOM      1  C   UNL     1      -7.628   2.084 127.118  0.00  0.00    +0.000 A 
ATOM      2  C   UNL     1      -6.328   2.359 126.686  0.00  0.00    +0.000 A 
ATOM      3  C   UNL     1      -5.396   2.870 127.566  0.00  0.00    +0.000 A 
ATOM      4  C   UNL     1      -5.729   3.066 128.904  0.00  0.00    +0.000 A 
ATOM      5 CL   UNL     1      -4.340   3.369 129.888  0.00  0.00    +0.000 Cl
ATOM      6  C   UNL     1      -7.061   2.915 129.350  0.00  0.00    +0.000 A 
ATOM      7  C   UNL     1      -7.996   2.385 128.435  0.00  0.00    +0.000 A 
ENDROOT
BRANCH   1  10
ATOM      8  C   UNL     1      -9.110  -0.543 125.030  0.00  0.00    +0.000 C 
ATOM      9  O   UNL     1      -8.251   0.141 125.941  0.00  0.00    +0.000 OA
ATOM     10  C   UNL     1      -8.623   1.507 126.143  0.00  0.00    +0.000 C 
ATOM     11  C   UNL     1      -8.603   2.315 124.830  0.00  0.00    +0.000 C 
ATOM     12  C   UNL     1      -9.480   1.617 123.789  0.00  0.00    +0.000 C 
ATOM     13  C   UNL     1      -9.101   0.125 123.646  0.00  0.00    +0.000 C 
BRANCH  11  14
ATOM     14  O   UNL     1      -9.038   3.666 125.040  0.00  0.00    +0.000 OA
ATOM     15  H   UNL     1      -8.574   4.250 124.417  0.00  0.00    +0.000 HD
ENDBRANCH  11  14
BRANCH  12  16
ATOM     16  O   UNL     1      -9.385   2.287 122.526  0.00  0.00    +0.000 OA
ATOM     17  H   UNL     1      -9.384   1.612 121.825  0.00  0.00    +0.000 HD
ENDBRANCH  12  16
BRANCH  13  18
ATOM     18  O   UNL     1     -10.035  -0.535 122.783  0.00  0.00    +0.000 OA
ATOM     19  H   UNL     1     -10.207  -1.426 123.134  0.00  0.00    +0.000 HD
ENDBRANCH  13  18
BRANCH   8  20
ATOM     20  C   UNL     1      -8.785  -2.051 125.009  0.00  0.00    +0.000 C 
BRANCH  20  21
ATOM     21  O   UNL     1      -9.862  -2.889 124.609  0.00  0.00    +0.000 OA
ATOM     22  H   UNL     1      -9.835  -2.909 123.634  0.00  0.00    +0.000 HD
ENDBRANCH  20  21
ENDBRANCH   8  20
ENDBRANCH   1  10
BRANCH   6  23
ATOM     23  C   UNL     1      -7.629   3.287 130.711  0.00  0.00    +0.000 C 
BRANCH  23  24
ATOM     24  C   UNL     1      -8.524   4.492 130.763  0.00  0.00    +0.000 A 
ATOM     25  C   UNL     1      -7.961   5.763 130.696  0.00  0.00    +0.000 A 
ATOM     26  C   UNL     1      -8.800   6.859 130.611  0.00  0.00    +0.000 A 
ATOM     27  C   UNL     1     -10.194   6.747 130.392  0.00  0.00    +0.000 A 
ATOM     28  C   UNL     1     -10.758   5.470 130.474  0.00  0.00    +0.000 A 
ATOM     29  C   UNL     1      -9.924   4.368 130.734  0.00  0.00    +0.000 A 
BRANCH  27  30
ATOM     30  O   UNL     1     -10.999   7.820 129.942  0.00  0.00    +0.000 OA
BRANCH  30  31
ATOM     31  C   UNL     1     -11.757   7.373 128.817  0.00  0.00    +0.000 C 
ATOM     32  C   UNL     1     -13.107   8.076 128.828  0.00  0.00    +0.000 C 
ATOM     33  C   UNL     1     -13.804   7.355 127.726  0.00  0.00    +0.000 C 
ATOM     34  O   UNL     1     -12.799   7.186 126.709  0.00  0.00    +0.000 OA
ATOM     35  C   UNL     1     -11.485   7.468 127.313  0.00  0.00    +0.000 C 
ENDBRANCH  30  31
ENDBRANCH  27  30
ENDBRANCH  23  24
ENDBRANCH   6  23
TORSDOF 10
ENDMDL
MODEL 6
REMARK VINA RESULT:      -7.7      3.226      7.278
REMARK  Name = Empagliflozin
REMARK  10 active torsions:
REMARK  status: ('A' for Active; 'I' for Inactive)
REMARK    1  A    between atoms: O_1  and  C_2
REMARK    2  A    between atoms: C_2  and  C_3
REMARK    3  A    between atoms: C_5  and  C_12
REMARK    4  A    between atoms: C_6  and  O_7
REMARK    5  A    between atoms: C_8  and  O_9
REMARK    6  A    between atoms: C_10  and  O_11
REMARK    7  A    between atoms: C_17  and  C_18
REMARK    8  A    between atoms: C_18  and  C_19
REMARK    9  A    between atoms: C_22  and  O_23
REMARK   10  A    between atoms: O_23  and  C_24
REMARK                            x       y       z     vdW  Elec       q    Type
REMARK                         _______ _______ _______ _____ _____    ______ ____
ROOT
ATOM      1  C   UNL     1      -7.792   0.936 127.926  0.00  0.00    +0.000 A 
ATOM      2  C   UNL     1      -7.643  -0.407 128.281  0.00  0.00    +0.000 A 
ATOM      3  C   UNL     1      -7.724  -0.790 129.604  0.00  0.00    +0.000 A 
ATOM      4  C   UNL     1      -8.008   0.151 130.591  0.00  0.00    +0.000 A 
ATOM      5 CL   UNL     1      -8.411  -0.584 132.103  0.00  0.00    +0.000 Cl
ATOM      6  C   UNL     1      -8.043   1.531 130.288  0.00  0.00    +0.000 A 
ATOM      7  C   UNL     1      -7.966   1.899 128.928  0.00  0.00    +0.000 A 
ENDROOT
BRANCH   1  10
ATOM      8  C   UNL     1      -7.012   3.146 125.104  0.00  0.00    +0.000 C 
ATOM      9  O   UNL     1      -7.144   2.635 126.430  0.00  0.00    +0.000 OA
ATOM     10  C   UNL     1      -7.719   1.327 126.473  0.00  0.00    +0.000 C 
ATOM     11  C   UNL     1      -9.127   1.291 125.847  0.00  0.00    +0.000 C 
ATOM     12  C   UNL     1      -9.068   1.859 124.427  0.00  0.00    +0.000 C 
ATOM     13  C   UNL     1      -8.377   3.242 124.405  0.00  0.00    +0.000 C 
BRANCH  11  14
ATOM     14  O   UNL     1      -9.664  -0.040 125.841  0.00  0.00    +0.000 OA
ATOM     15  H   UNL     1     -10.146  -0.185 125.010  0.00  0.00    +0.000 HD
ENDBRANCH  11  14
BRANCH  12  16
ATOM     16  O   UNL     1     -10.385   1.942 123.868  0.00  0.00    +0.000 OA
ATOM     17  H   UNL     1     -11.027   1.891 124.599  0.00  0.00    +0.000 HD
ENDBRANCH  12  16
BRANCH  13  18
ATOM     18  O   UNL     1      -8.199   3.677 123.052  0.00  0.00    +0.000 OA
ATOM     19  H   UNL     1      -8.522   2.979 122.456  0.00  0.00    +0.000 HD
ENDBRANCH  13  18
BRANCH   8  20
ATOM     20  C   UNL     1      -6.207   4.462 125.109  0.00  0.00    +0.000 C 
BRANCH  20  21
ATOM     21  O   UNL     1      -6.991   5.641 124.981  0.00  0.00    +0.000 OA
ATOM     22  H   UNL     1      -7.726   5.407 124.382  0.00  0.00    +0.000 HD
ENDBRANCH  20  21
ENDBRANCH   8  20
ENDBRANCH   1  10
BRANCH   6  23
ATOM     23  C   UNL     1      -8.131   2.691 131.268  0.00  0.00    +0.000 C 
BRANCH  23  24
ATOM     24  C   UNL     1      -9.150   3.753 130.967  0.00  0.00    +0.000 A 
ATOM     25  C   UNL     1     -10.432   3.377 130.579  0.00  0.00    +0.000 A 
ATOM     26  C   UNL     1     -11.398   4.357 130.433  0.00  0.00    +0.000 A 
ATOM     27  C   UNL     1     -11.205   5.697 130.848  0.00  0.00    +0.000 A 
ATOM     28  C   UNL     1      -9.912   6.073 131.225  0.00  0.00    +0.000 A 
ATOM     29  C   UNL     1      -8.884   5.112 131.207  0.00  0.00    +0.000 A 
BRANCH  27  30
ATOM     30  O   UNL     1     -12.267   6.608 131.052  0.00  0.00    +0.000 OA
BRANCH  30  31
ATOM     31  C   UNL     1     -12.333   7.481 129.923  0.00  0.00    +0.000 C 
ATOM     32  C   UNL     1     -13.367   6.939 128.947  0.00  0.00    +0.000 C 
ATOM     33  C   UNL     1     -13.155   7.849 127.786  0.00  0.00    +0.000 C 
ATOM     34  O   UNL     1     -12.954   9.148 128.374  0.00  0.00    +0.000 OA
ATOM     35  C   UNL     1     -12.700   8.963 129.813  0.00  0.00    +0.000 C 
ENDBRANCH  30  31
ENDBRANCH  27  30
ENDBRANCH  23  24
ENDBRANCH   6  23
TORSDOF 10
ENDMDL
MODEL 7
REMARK VINA RESULT:      -7.7      5.728      8.765
REMARK  Name = Empagliflozin
REMARK  10 active torsions:
REMARK  status: ('A' for Active; 'I' for Inactive)
REMARK    1  A    between atoms: O_1  and  C_2
REMARK    2  A    between atoms: C_2  and  C_3
REMARK    3  A    between atoms: C_5  and  C_12
REMARK    4  A    between atoms: C_6  and  O_7
REMARK    5  A    between atoms: C_8  and  O_9
REMARK    6  A    between atoms: C_10  and  O_11
REMARK    7  A    between atoms: C_17  and  C_18
REMARK    8  A    between atoms: C_18  and  C_19
REMARK    9  A    between atoms: C_22  and  O_23
REMARK   10  A    between atoms: O_23  and  C_24
REMARK                            x       y       z     vdW  Elec       q    Type
REMARK                         _______ _______ _______ _____ _____    ______ ____
ROOT
ATOM      1  C   UNL     1      -8.259   0.777 123.571  0.00  0.00    +0.000 A 
ATOM      2  C   UNL     1      -9.344   0.330 122.813  0.00  0.00    +0.000 A 
ATOM      3  C   UNL     1      -9.636  -1.017 122.743  0.00  0.00    +0.000 A 
ATOM      4  C   UNL     1      -8.883  -1.936 123.469  0.00  0.00    +0.000 A 
ATOM      5 CL   UNL     1      -9.625  -3.497 123.520  0.00  0.00    +0.000 Cl
ATOM      6  C   UNL     1      -7.709  -1.539 124.146  0.00  0.00    +0.000 A 
ATOM      7  C   UNL     1      -7.434  -0.156 124.212  0.00  0.00    +0.000 A 
ENDROOT
BRANCH   1  10
ATOM      8  C   UNL     1      -6.364   3.845 122.897  0.00  0.00    +0.000 C 
ATOM      9  O   UNL     1      -6.768   2.476 122.911  0.00  0.00    +0.000 OA
ATOM     10  C   UNL     1      -7.972   2.255 123.649  0.00  0.00    +0.000 C 
ATOM     11  C   UNL     1      -7.841   2.689 125.122  0.00  0.00    +0.000 C 
ATOM     12  C   UNL     1      -7.375   4.145 125.184  0.00  0.00    +0.000 C 
ATOM     13  C   UNL     1      -6.113   4.367 124.320  0.00  0.00    +0.000 C 
BRANCH  11  14
ATOM     14  O   UNL     1      -9.077   2.518 125.831  0.00  0.00    +0.000 OA
ATOM     15  H   UNL     1      -9.808   2.481 125.191  0.00  0.00    +0.000 HD
ENDBRANCH  11  14
BRANCH  12  16
ATOM     16  O   UNL     1      -7.135   4.534 126.543  0.00  0.00    +0.000 OA
ATOM     17  H   UNL     1      -6.184   4.722 126.639  0.00  0.00    +0.000 HD
ENDBRANCH  12  16
BRANCH  13  18
ATOM     18  O   UNL     1      -5.792   5.763 124.275  0.00  0.00    +0.000 OA
ATOM     19  H   UNL     1      -6.523   6.236 123.840  0.00  0.00    +0.000 HD
ENDBRANCH  13  18
BRANCH   8  20
ATOM     20  C   UNL     1      -5.183   4.050 121.927  0.00  0.00    +0.000 C 
BRANCH  20  21
ATOM     21  O   UNL     1      -4.766   5.401 121.771  0.00  0.00    +0.000 OA
ATOM     22  H   UNL     1      -5.427   5.816 121.186  0.00  0.00    +0.000 HD
ENDBRANCH  20  21
ENDBRANCH   8  20
ENDBRANCH   1  10
BRANCH   6  23
ATOM     23  C   UNL     1      -6.671  -2.435 124.803  0.00  0.00    +0.000 C 
BRANCH  23  24
ATOM     24  C   UNL     1      -6.754  -2.583 126.296  0.00  0.00    +0.000 A 
ATOM     25  C   UNL     1      -5.695  -2.146 127.085  0.00  0.00    +0.000 A 
ATOM     26  C   UNL     1      -5.837  -2.165 128.461  0.00  0.00    +0.000 A 
ATOM     27  C   UNL     1      -7.073  -2.420 129.104  0.00  0.00    +0.000 A 
ATOM     28  C   UNL     1      -8.130  -2.871 128.309  0.00  0.00    +0.000 A 
ATOM     29  C   UNL     1      -7.934  -3.019 126.924  0.00  0.00    +0.000 A 
BRANCH  27  30
ATOM     30  O   UNL     1      -7.328  -2.089 130.455  0.00  0.00    +0.000 OA
BRANCH  30  31
ATOM     31  C   UNL     1      -8.095  -0.885 130.487  0.00  0.00    +0.000 C 
ATOM     32  C   UNL     1      -8.289  -0.469 131.939  0.00  0.00    +0.000 C 
ATOM     33  C   UNL     1      -9.247   0.661 131.777  0.00  0.00    +0.000 C 
ATOM     34  O   UNL     1      -8.781   1.368 130.612  0.00  0.00    +0.000 OA
ATOM     35  C   UNL     1      -7.817   0.505 129.908  0.00  0.00    +0.000 C 
ENDBRANCH  30  31
ENDBRANCH  27  30
ENDBRANCH  23  24
ENDBRANCH   6  23
TORSDOF 10
ENDMDL
MODEL 8
REMARK VINA RESULT:      -7.5      2.830      4.310
REMARK  Name = Empagliflozin
REMARK  10 active torsions:
REMARK  status: ('A' for Active; 'I' for Inactive)
REMARK    1  A    between atoms: O_1  and  C_2
REMARK    2  A    between atoms: C_2  and  C_3
REMARK    3  A    between atoms: C_5  and  C_12
REMARK    4  A    between atoms: C_6  and  O_7
REMARK    5  A    between atoms: C_8  and  O_9
REMARK    6  A    between atoms: C_10  and  O_11
REMARK    7  A    between atoms: C_17  and  C_18
REMARK    8  A    between atoms: C_18  and  C_19
REMARK    9  A    between atoms: C_22  and  O_23
REMARK   10  A    between atoms: O_23  and  C_24
REMARK                            x       y       z     vdW  Elec       q    Type
REMARK                         _______ _______ _______ _____ _____    ______ ____
ROOT
ATOM      1  C   UNL     1      -7.837   5.651 130.354  0.00  0.00    +0.000 A 
ATOM      2  C   UNL     1      -7.396   6.647 131.229  0.00  0.00    +0.000 A 
ATOM      3  C   UNL     1      -6.057   6.749 131.550  0.00  0.00    +0.000 A 
ATOM      4  C   UNL     1      -5.129   5.893 130.962  0.00  0.00    +0.000 A 
ATOM      5 CL   UNL     1      -3.501   6.414 131.221  0.00  0.00    +0.000 Cl
ATOM      6  C   UNL     1      -5.548   4.801 130.170  0.00  0.00    +0.000 A 
ATOM      7  C   UNL     1      -6.920   4.720 129.849  0.00  0.00    +0.000 A 
ENDROOT
BRANCH   1  10
ATOM      8  C   UNL     1     -10.872   6.541 128.497  0.00  0.00    +0.000 C 
ATOM      9  O   UNL     1      -9.516   6.501 128.939  0.00  0.00    +0.000 OA
ATOM     10  C   UNL     1      -9.301   5.572 130.004  0.00  0.00    +0.000 C 
ATOM     11  C   UNL     1     -10.157   5.899 131.244  0.00  0.00    +0.000 C 
ATOM     12  C   UNL     1     -11.629   5.992 130.836  0.00  0.00    +0.000 C 
ATOM     13  C   UNL     1     -11.819   6.949 129.636  0.00  0.00    +0.000 C 
BRANCH  11  14
ATOM     14  O   UNL     1      -9.975   4.922 132.279  0.00  0.00    +0.000 OA
ATOM     15  H   UNL     1      -9.783   4.061 131.873  0.00  0.00    +0.000 HD
ENDBRANCH  11  14
BRANCH  12  16
ATOM     16  O   UNL     1     -12.430   6.409 131.949  0.00  0.00    +0.000 OA
ATOM     17  H   UNL     1     -12.543   7.375 131.895  0.00  0.00    +0.000 HD
ENDBRANCH  12  16
BRANCH  13  18
ATOM     18  O   UNL     1     -13.176   6.897 129.181  0.00  0.00    +0.000 OA
ATOM     19  H   UNL     1     -13.396   7.745 128.759  0.00  0.00    +0.000 HD
ENDBRANCH  13  18
BRANCH   8  20
ATOM     20  C   UNL     1     -11.001   7.403 127.225  0.00  0.00    +0.000 C 
BRANCH  20  21
ATOM     21  O   UNL     1     -11.773   6.819 126.183  0.00  0.00    +0.000 OA
ATOM     22  H   UNL     1     -11.646   5.855 126.267  0.00  0.00    +0.000 HD
ENDBRANCH  20  21
ENDBRANCH   8  20
ENDBRANCH   1  10
BRANCH   6  23
ATOM     23  C   UNL     1      -4.692   3.665 129.633  0.00  0.00    +0.000 C 
BRANCH  23  24
ATOM     24  C   UNL     1      -4.797   3.378 128.162  0.00  0.00    +0.000 A 
ATOM     25  C   UNL     1      -5.371   2.183 127.740  0.00  0.00    +0.000 A 
ATOM     26  C   UNL     1      -5.583   1.987 126.387  0.00  0.00    +0.000 A 
ATOM     27  C   UNL     1      -5.429   3.016 125.426  0.00  0.00    +0.000 A 
ATOM     28  C   UNL     1      -4.840   4.210 125.852  0.00  0.00    +0.000 A 
ATOM     29  C   UNL     1      -4.462   4.347 127.200  0.00  0.00    +0.000 A 
BRANCH  27  30
ATOM     30  O   UNL     1      -5.980   2.953 124.126  0.00  0.00    +0.000 OA
BRANCH  30  31
ATOM     31  C   UNL     1      -7.131   2.108 124.164  0.00  0.00    +0.000 C 
ATOM     32  C   UNL     1      -8.359   2.939 123.818  0.00  0.00    +0.000 C 
ATOM     33  C   UNL     1      -9.445   1.957 124.095  0.00  0.00    +0.000 C 
ATOM     34  O   UNL     1      -8.940   0.705 123.594  0.00  0.00    +0.000 OA
ATOM     35  C   UNL     1      -7.493   0.857 123.360  0.00  0.00    +0.000 C 
ENDBRANCH  30  31
ENDBRANCH  27  30
ENDBRANCH  23  24
ENDBRANCH   6  23
TORSDOF 10
ENDMDL
MODEL 9
REMARK VINA RESULT:      -7.5      6.130      9.017
REMARK  Name = Empagliflozin
REMARK  10 active torsions:
REMARK  status: ('A' for Active; 'I' for Inactive)
REMARK    1  A    between atoms: O_1  and  C_2
REMARK    2  A    between atoms: C_2  and  C_3
REMARK    3  A    between atoms: C_5  and  C_12
REMARK    4  A    between atoms: C_6  and  O_7
REMARK    5  A    between atoms: C_8  and  O_9
REMARK    6  A    between atoms: C_10  and  O_11
REMARK    7  A    between atoms: C_17  and  C_18
REMARK    8  A    between atoms: C_18  and  C_19
REMARK    9  A    between atoms: C_22  and  O_23
REMARK   10  A    between atoms: O_23  and  C_24
REMARK                            x       y       z     vdW  Elec       q    Type
REMARK                         _______ _______ _______ _____ _____    ______ ____
ROOT
ATOM      1  C   UNL     1      -7.292   0.568 124.404  0.00  0.00    +0.000 A 
ATOM      2  C   UNL     1      -7.113  -0.200 123.251  0.00  0.00    +0.000 A 
ATOM      3  C   UNL     1      -7.480  -1.530 123.238  0.00  0.00    +0.000 A 
ATOM      4  C   UNL     1      -8.081  -2.103 124.356  0.00  0.00    +0.000 A 
ATOM      5 CL   UNL     1      -8.773  -3.649 124.008  0.00  0.00    +0.000 Cl
ATOM      6  C   UNL     1      -8.167  -1.396 125.575  0.00  0.00    +0.000 A 
ATOM      7  C   UNL     1      -7.793  -0.035 125.565  0.00  0.00    +0.000 A 
ENDROOT
BRANCH   1  10
ATOM      8  C   UNL     1      -5.283   3.491 125.341  0.00  0.00    +0.000 C 
ATOM      9  O   UNL     1      -5.769   2.152 125.252  0.00  0.00    +0.000 OA
ATOM     10  C   UNL     1      -6.902   2.024 124.389  0.00  0.00    +0.000 C 
ATOM     11  C   UNL     1      -8.088   2.892 124.853  0.00  0.00    +0.000 C 
ATOM     12  C   UNL     1      -7.628   4.344 125.005  0.00  0.00    +0.000 C 
ATOM     13  C   UNL     1      -6.361   4.441 125.884  0.00  0.00    +0.000 C 
BRANCH  11  14
ATOM     14  O   UNL     1      -9.193   2.800 123.942  0.00  0.00    +0.000 OA
ATOM     15  H   UNL     1      -9.921   3.355 124.268  0.00  0.00    +0.000 HD
ENDBRANCH  11  14
BRANCH  12  16
ATOM     16  O   UNL     1      -8.684   5.148 125.546  0.00  0.00    +0.000 OA
ATOM     17  H   UNL     1      -8.810   4.893 126.478  0.00  0.00    +0.000 HD
ENDBRANCH  12  16
BRANCH  13  18
ATOM     18  O   UNL     1      -5.868   5.786 125.882  0.00  0.00    +0.000 OA
ATOM     19  H   UNL     1      -6.372   6.304 126.533  0.00  0.00    +0.000 HD
ENDBRANCH  13  18
BRANCH   8  20
ATOM     20  C   UNL     1      -3.951   3.531 126.118  0.00  0.00    +0.000 C 
BRANCH  20  21
ATOM     21  O   UNL     1      -3.452   2.259 126.513  0.00  0.00    +0.000 OA
ATOM     22  H   UNL     1      -4.061   1.602 126.125  0.00  0.00    +0.000 HD
ENDBRANCH  20  21
ENDBRANCH   8  20
ENDBRANCH   1  10
BRANCH   6  23
ATOM     23  C   UNL     1      -8.597  -1.937 126.930  0.00  0.00    +0.000 C 
BRANCH  23  24
ATOM     24  C   UNL     1      -7.524  -2.557 127.780  0.00  0.00    +0.000 A 
ATOM     25  C   UNL     1      -6.197  -2.197 127.574  0.00  0.00    +0.000 A 
ATOM     26  C   UNL     1      -5.234  -2.673 128.446  0.00  0.00    +0.000 A 
ATOM     27  C   UNL     1      -5.551  -3.345 129.651  0.00  0.00    +0.000 A 
ATOM     28  C   UNL     1      -6.885  -3.716 129.848  0.00  0.00    +0.000 A 
ATOM     29  C   UNL     1      -7.842  -3.383 128.873  0.00  0.00    +0.000 A 
BRANCH  27  30
ATOM     30  O   UNL     1      -4.634  -3.508 130.715  0.00  0.00    +0.000 OA
BRANCH  30  31
ATOM     31  C   UNL     1      -5.372  -3.755 131.913  0.00  0.00    +0.000 C 
ATOM     32  C   UNL     1      -4.841  -5.027 132.559  0.00  0.00    +0.000 C 
ATOM     33  C   UNL     1      -5.835  -5.217 133.653  0.00  0.00    +0.000 C 
ATOM     34  O   UNL     1      -6.076  -3.891 134.160  0.00  0.00    +0.000 OA
ATOM     35  C   UNL     1      -5.533  -2.925 133.189  0.00  0.00    +0.000 C 
ENDBRANCH  30  31
ENDBRANCH  27  30
ENDBRANCH  23  24
ENDBRANCH   6  23
TORSDOF 10
ENDMDL
