MODEL 1
REMARK VINA RESULT:      -6.2      0.000      0.000
REMARK  Name = Emtricitabine
REMARK  3 active torsions:
REMARK  status: ('A' for Active; 'I' for Inactive)
REMARK    1  A    between atoms: N_6  and  C_10
REMARK    2  A    between atoms: C_13  and  C_14
REMARK    3  A    between atoms: C_14  and  O_15
REMARK                            x       y       z     vdW  Elec       q    Type
REMARK                         _______ _______ _______ _____ _____    ______ ____
ROOT
ATOM      1  N   UNL     1     -12.775   9.699 128.844  0.00  0.00    +0.000 N 
ATOM      2  C   UNL     1     -12.114   8.552 129.179  0.00  0.00    +0.000 A 
ATOM      3  N   UNL     1     -11.295   8.048 128.308  0.00  0.00    +0.000 NA
ATOM      4  C   UNL     1     -10.593   6.895 128.597  0.00  0.00    +0.000 A 
ATOM      5  O   UNL     1      -9.806   6.434 127.772  0.00  0.00    +0.000 OA
ATOM      6  N   UNL     1     -10.767   6.295 129.857  0.00  0.00    +0.000 N 
ATOM      7  C   UNL     1     -11.644   6.827 130.782  0.00  0.00    +0.000 A 
ATOM      8  C   UNL     1     -12.334   7.927 130.501  0.00  0.00    +0.000 A 
ATOM      9  F   UNL     1     -13.200   8.512 131.346  0.00  0.00    +0.000 F 
ATOM     10  H   UNL     1     -12.632  10.090 127.921  0.00  0.00    +0.000 HD
ATOM     11  H   UNL     1     -13.454  10.127 129.458  0.00  0.00    +0.000 HD
ENDROOT
BRANCH   6  12
ATOM     12  C   UNL     1      -9.995   5.098 130.189  0.00  0.00    +0.000 C 
ATOM     13  C   UNL     1     -10.850   3.854 130.447  0.00  0.00    +0.000 C 
ATOM     14  S   UNL     1      -9.721   2.754 131.313  0.00  0.00    +0.000 S 
ATOM     15  C   UNL     1      -8.705   4.139 131.895  0.00  0.00    +0.000 C 
ATOM     16  O   UNL     1      -9.169   5.372 131.325  0.00  0.00    +0.000 OA
BRANCH  15  17
ATOM     17  C   UNL     1      -8.708   4.231 133.431  0.00  0.00    +0.000 C 
BRANCH  17  18
ATOM     18  O   UNL     1      -9.997   3.955 133.991  0.00  0.00    +0.000 OA
ATOM     19  H   UNL     1     -10.609   3.761 133.263  0.00  0.00    +0.000 HD
ENDBRANCH  17  18
ENDBRANCH  15  17
ENDBRANCH   6  12
TORSDOF 3
ENDMDL
MODEL 2
REMARK VINA RESULT:      -6.0      2.301      3.091
REMARK  Name = Emtricitabine
REMARK  3 active torsions:
REMARK  status: ('A' for Active; 'I' for Inactive)
REMARK    1  A    between atoms: N_6  and  C_10
REMARK    2  A    between atoms: C_13  and  C_14
REMARK    3  A    between atoms: C_14  and  O_15
REMARK                            x       y       z     vdW  Elec       q    Type
REMARK                         _______ _______ _______ _____ _____    ______ ____
ROOT
ATOM      1  N   UNL     1     -13.012   9.732 128.611  0.00  0.00    +0.000 N 
ATOM      2  C   UNL     1     -12.341   8.663 129.131  0.00  0.00    +0.000 A 
ATOM      3  N   UNL     1     -12.751   8.183 130.266  0.00  0.00    +0.000 NA
ATOM      4  C   UNL     1     -12.117   7.097 130.833  0.00  0.00    +0.000 A 
ATOM      5  O   UNL     1     -12.522   6.639 131.899  0.00  0.00    +0.000 OA
ATOM      6  N   UNL     1     -11.037   6.510 130.148  0.00  0.00    +0.000 N 
ATOM      7  C   UNL     1     -10.596   7.023 128.944  0.00  0.00    +0.000 A 
ATOM      8  C   UNL     1     -11.193   8.080 128.403  0.00  0.00    +0.000 A 
ATOM      9  F   UNL     1     -10.832   8.636 127.234  0.00  0.00    +0.000 F 
ATOM     10  H   UNL     1     -13.774  10.134 129.144  0.00  0.00    +0.000 HD
ATOM     11  H   UNL     1     -12.726  10.179 127.751  0.00  0.00    +0.000 HD
ENDROOT
BRANCH   6  12
ATOM     12  C   UNL     1     -10.387   5.331 130.719  0.00  0.00    +0.000 C 
ATOM     13  C   UNL     1      -9.080   5.635 131.459  0.00  0.00    +0.000 C 
ATOM     14  S   UNL     1      -8.288   4.024 131.567  0.00  0.00    +0.000 S 
ATOM     15  C   UNL     1      -9.197   3.401 130.127  0.00  0.00    +0.000 C 
ATOM     16  O   UNL     1     -10.155   4.373 129.683  0.00  0.00    +0.000 OA
BRANCH  15  17
ATOM     17  C   UNL     1      -8.243   3.032 128.977  0.00  0.00    +0.000 C 
BRANCH  17  18
ATOM     18  O   UNL     1      -8.869   2.196 127.997  0.00  0.00    +0.000 OA
ATOM     19  H   UNL     1      -8.474   1.312 128.055  0.00  0.00    +0.000 HD
ENDBRANCH  17  18
ENDBRANCH  15  17
ENDBRANCH   6  12
TORSDOF 3
ENDMDL
MODEL 3
REMARK VINA RESULT:      -5.9      1.750      1.990
REMARK  Name = Emtricitabine
REMARK  3 active torsions:
REMARK  status: ('A' for Active; 'I' for Inactive)
REMARK    1  A    between atoms: N_6  and  C_10
REMARK    2  A    between atoms: C_13  and  C_14
REMARK    3  A    between atoms: C_14  and  O_15
REMARK                            x       y       z     vdW  Elec       q    Type
REMARK                         _______ _______ _______ _____ _____    ______ ____
ROOT
ATOM      1  N   UNL     1     -13.220   9.837 128.706  0.00  0.00    +0.000 N 
ATOM      2  C   UNL     1     -12.405   8.768 128.943  0.00  0.00    +0.000 A 
ATOM      3  N   UNL     1     -11.681   8.327 127.959  0.00  0.00    +0.000 NA
ATOM      4  C   UNL     1     -10.832   7.256 128.144  0.00  0.00    +0.000 A 
ATOM      5  O   UNL     1     -10.138   6.856 127.211  0.00  0.00    +0.000 OA
ATOM      6  N   UNL     1     -10.751   6.669 129.421  0.00  0.00    +0.000 N 
ATOM      7  C   UNL     1     -11.525   7.133 130.466  0.00  0.00    +0.000 A 
ATOM      8  C   UNL     1     -12.356   8.153 130.287  0.00  0.00    +0.000 A 
ATOM      9  F   UNL     1     -13.138   8.669 131.251  0.00  0.00    +0.000 F 
ATOM     10  H   UNL     1     -13.260  10.220 127.769  0.00  0.00    +0.000 HD
ATOM     11  H   UNL     1     -13.837  10.210 129.414  0.00  0.00    +0.000 HD
ENDROOT
BRANCH   6  12
ATOM     12  C   UNL     1      -9.821   5.561 129.638  0.00  0.00    +0.000 C 
ATOM     13  C   UNL     1     -10.059   4.792 130.941  0.00  0.00    +0.000 C 
ATOM     14  S   UNL     1      -8.517   3.898 131.175  0.00  0.00    +0.000 S 
ATOM     15  C   UNL     1      -7.588   5.094 130.176  0.00  0.00    +0.000 C 
ATOM     16  O   UNL     1      -8.480   6.058 129.597  0.00  0.00    +0.000 OA
BRANCH  15  17
ATOM     17  C   UNL     1      -6.508   5.805 131.012  0.00  0.00    +0.000 C 
BRANCH  17  18
ATOM     18  O   UNL     1      -6.456   7.212 130.750  0.00  0.00    +0.000 OA
ATOM     19  H   UNL     1      -6.974   7.391 129.950  0.00  0.00    +0.000 HD
ENDBRANCH  17  18
ENDBRANCH  15  17
ENDBRANCH   6  12
TORSDOF 3
ENDMDL
MODEL 4
REMARK VINA RESULT:      -5.5      3.262      5.504
REMARK  Name = Emtricitabine
REMARK  3 active torsions:
REMARK  status: ('A' for Active; 'I' for Inactive)
REMARK    1  A    between atoms: N_6  and  C_10
REMARK    2  A    between atoms: C_13  and  C_14
REMARK    3  A    between atoms: C_14  and  O_15
REMARK                            x       y       z     vdW  Elec       q    Type
REMARK                         _______ _______ _______ _____ _____    ______ ____
ROOT
ATOM      1  N   UNL     1      -8.970   3.012 132.799  0.00  0.00    +0.000 N 
ATOM      2  C   UNL     1      -9.327   4.112 132.073  0.00  0.00    +0.000 A 
ATOM      3  N   UNL     1     -10.245   3.968 131.166  0.00  0.00    +0.000 NA
ATOM      4  C   UNL     1     -10.652   5.048 130.410  0.00  0.00    +0.000 A 
ATOM      5  O   UNL     1     -11.533   4.906 129.565  0.00  0.00    +0.000 OA
ATOM      6  N   UNL     1     -10.070   6.305 130.657  0.00  0.00    +0.000 N 
ATOM      7  C   UNL     1      -9.090   6.458 131.618  0.00  0.00    +0.000 A 
ATOM      8  C   UNL     1      -8.683   5.417 132.336  0.00  0.00    +0.000 A 
ATOM      9  F   UNL     1      -7.741   5.481 133.292  0.00  0.00    +0.000 F 
ATOM     10  H   UNL     1      -9.402   2.123 132.579  0.00  0.00    +0.000 HD
ATOM     11  H   UNL     1      -8.239   3.042 133.495  0.00  0.00    +0.000 HD
ENDROOT
BRANCH   6  12
ATOM     12  C   UNL     1     -10.527   7.465 129.891  0.00  0.00    +0.000 C 
ATOM     13  C   UNL     1     -12.049   7.631 129.856  0.00  0.00    +0.000 C 
ATOM     14  S   UNL     1     -12.306   8.751 128.474  0.00  0.00    +0.000 S 
ATOM     15  C   UNL     1     -10.736   8.273 127.701  0.00  0.00    +0.000 C 
ATOM     16  O   UNL     1     -10.010   7.381 128.559  0.00  0.00    +0.000 OA
BRANCH  15  17
ATOM     17  C   UNL     1     -10.964   7.618 126.327  0.00  0.00    +0.000 C 
BRANCH  17  18
ATOM     18  O   UNL     1     -11.859   6.503 126.396  0.00  0.00    +0.000 OA
ATOM     19  H   UNL     1     -12.659   6.785 126.868  0.00  0.00    +0.000 HD
ENDBRANCH  17  18
ENDBRANCH  15  17
ENDBRANCH   6  12
TORSDOF 3
ENDMDL
MODEL 5
REMARK VINA RESULT:      -5.5      9.441     10.013
REMARK  Name = Emtricitabine
REMARK  3 active torsions:
REMARK  status: ('A' for Active; 'I' for Inactive)
REMARK    1  A    between atoms: N_6  and  C_10
REMARK    2  A    between atoms: C_13  and  C_14
REMARK    3  A    between atoms: C_14  and  O_15
REMARK                            x       y       z     vdW  Elec       q    Type
REMARK                         _______ _______ _______ _____ _____    ______ ____
ROOT
ATOM      1  N   UNL     1      -8.389   3.876 121.630  0.00  0.00    +0.000 N 
ATOM      2  C   UNL     1      -8.509   2.661 122.241  0.00  0.00    +0.000 A 
ATOM      3  N   UNL     1      -9.647   2.044 122.146  0.00  0.00    +0.000 NA
ATOM      4  C   UNL     1      -9.822   0.808 122.735  0.00  0.00    +0.000 A 
ATOM      5  O   UNL     1     -10.898   0.224 122.624  0.00  0.00    +0.000 OA
ATOM      6  N   UNL     1      -8.739   0.225 123.418  0.00  0.00    +0.000 N 
ATOM      7  C   UNL     1      -7.529   0.884 123.526  0.00  0.00    +0.000 A 
ATOM      8  C   UNL     1      -7.363   2.081 122.975  0.00  0.00    +0.000 A 
ATOM      9  F   UNL     1      -6.219   2.784 123.028  0.00  0.00    +0.000 F 
ATOM     10  H   UNL     1      -9.197   4.267 121.162  0.00  0.00    +0.000 HD
ATOM     11  H   UNL     1      -7.545   4.428 121.694  0.00  0.00    +0.000 HD
ENDROOT
BRANCH   6  12
ATOM     12  C   UNL     1      -8.901  -1.104 124.008  0.00  0.00    +0.000 C 
ATOM     13  C   UNL     1      -8.765  -1.131 125.533  0.00  0.00    +0.000 C 
ATOM     14  S   UNL     1      -8.484  -2.871 125.887  0.00  0.00    +0.000 S 
ATOM     15  C   UNL     1      -7.833  -3.178 124.223  0.00  0.00    +0.000 C 
ATOM     16  O   UNL     1      -7.958  -2.000 123.413  0.00  0.00    +0.000 OA
BRANCH  15  17
ATOM     17  C   UNL     1      -6.364  -3.636 124.271  0.00  0.00    +0.000 C 
BRANCH  17  18
ATOM     18  O   UNL     1      -5.449  -2.534 124.246  0.00  0.00    +0.000 OA
ATOM     19  H   UNL     1      -5.678  -1.934 124.974  0.00  0.00    +0.000 HD
ENDBRANCH  17  18
ENDBRANCH  15  17
ENDBRANCH   6  12
TORSDOF 3
ENDMDL
MODEL 6
REMARK VINA RESULT:      -5.3      3.357      5.644
REMARK  Name = Emtricitabine
REMARK  3 active torsions:
REMARK  status: ('A' for Active; 'I' for Inactive)
REMARK    1  A    between atoms: N_6  and  C_10
REMARK    2  A    between atoms: C_13  and  C_14
REMARK    3  A    between atoms: C_14  and  O_15
REMARK                            x       y       z     vdW  Elec       q    Type
REMARK                         _______ _______ _______ _____ _____    ______ ____
ROOT
ATOM      1  N   UNL     1      -7.336   2.507 131.464  0.00  0.00    +0.000 N 
ATOM      2  C   UNL     1      -8.098   3.597 131.154  0.00  0.00    +0.000 A 
ATOM      3  N   UNL     1      -7.490   4.731 130.977  0.00  0.00    +0.000 NA
ATOM      4  C   UNL     1      -8.209   5.863 130.652  0.00  0.00    +0.000 A 
ATOM      5  O   UNL     1      -7.623   6.929 130.469  0.00  0.00    +0.000 OA
ATOM      6  N   UNL     1      -9.603   5.758 130.496  0.00  0.00    +0.000 N 
ATOM      7  C   UNL     1     -10.251   4.554 130.690  0.00  0.00    +0.000 A 
ATOM      8  C   UNL     1      -9.565   3.466 131.020  0.00  0.00    +0.000 A 
ATOM      9  F   UNL     1     -10.116   2.257 131.220  0.00  0.00    +0.000 F 
ATOM     10  H   UNL     1      -6.338   2.629 131.582  0.00  0.00    +0.000 HD
ATOM     11  H   UNL     1      -7.745   1.602 131.651  0.00  0.00    +0.000 HD
ENDROOT
BRANCH   6  12
ATOM     12  C   UNL     1     -10.368   6.943 130.108  0.00  0.00    +0.000 C 
ATOM     13  C   UNL     1     -11.714   7.081 130.827  0.00  0.00    +0.000 C 
ATOM     14  S   UNL     1     -12.605   8.260 129.803  0.00  0.00    +0.000 S 
ATOM     15  C   UNL     1     -11.613   7.850 128.342  0.00  0.00    +0.000 C 
ATOM     16  O   UNL     1     -10.566   6.933 128.692  0.00  0.00    +0.000 OA
BRANCH  15  17
ATOM     17  C   UNL     1     -12.484   7.257 127.220  0.00  0.00    +0.000 C 
BRANCH  17  18
ATOM     18  O   UNL     1     -11.701   6.677 126.171  0.00  0.00    +0.000 OA
ATOM     19  H   UNL     1     -11.911   5.731 126.122  0.00  0.00    +0.000 HD
ENDBRANCH  17  18
ENDBRANCH  15  17
ENDBRANCH   6  12
TORSDOF 3
ENDMDL
MODEL 7
REMARK VINA RESULT:      -5.2      1.935      2.409
REMARK  Name = Emtricitabine
REMARK  3 active torsions:
REMARK  status: ('A' for Active; 'I' for Inactive)
REMARK    1  A    between atoms: N_6  and  C_10
REMARK    2  A    between atoms: C_13  and  C_14
REMARK    3  A    between atoms: C_14  and  O_15
REMARK                            x       y       z     vdW  Elec       q    Type
REMARK                         _______ _______ _______ _____ _____    ______ ____
ROOT
ATOM      1  N   UNL     1     -13.132   6.955 129.201  0.00  0.00    +0.000 N 
ATOM      2  C   UNL     1     -12.085   6.436 129.908  0.00  0.00    +0.000 A 
ATOM      3  N   UNL     1     -11.220   5.711 129.266  0.00  0.00    +0.000 NA
ATOM      4  C   UNL     1     -10.137   5.170 129.927  0.00  0.00    +0.000 A 
ATOM      5  O   UNL     1      -9.313   4.500 129.307  0.00  0.00    +0.000 OA
ATOM      6  N   UNL     1      -9.979   5.437 131.299  0.00  0.00    +0.000 N 
ATOM      7  C   UNL     1     -10.903   6.202 131.985  0.00  0.00    +0.000 A 
ATOM      8  C   UNL     1     -11.956   6.710 131.355  0.00  0.00    +0.000 A 
ATOM      9  F   UNL     1     -12.895   7.469 131.945  0.00  0.00    +0.000 F 
ATOM     10  H   UNL     1     -13.216   6.726 128.218  0.00  0.00    +0.000 HD
ATOM     11  H   UNL     1     -13.862   7.496 129.642  0.00  0.00    +0.000 HD
ENDROOT
BRANCH   6  12
ATOM     12  C   UNL     1      -8.811   4.904 132.000  0.00  0.00    +0.000 C 
ATOM     13  C   UNL     1      -9.037   3.530 132.636  0.00  0.00    +0.000 C 
ATOM     14  S   UNL     1      -7.684   3.397 133.813  0.00  0.00    +0.000 S 
ATOM     15  C   UNL     1      -7.512   5.199 133.928  0.00  0.00    +0.000 C 
ATOM     16  O   UNL     1      -8.389   5.843 132.993  0.00  0.00    +0.000 OA
BRANCH  15  17
ATOM     17  C   UNL     1      -7.798   5.700 135.355  0.00  0.00    +0.000 C 
BRANCH  17  18
ATOM     18  O   UNL     1      -8.672   6.834 135.369  0.00  0.00    +0.000 OA
ATOM     19  H   UNL     1      -8.722   7.190 134.468  0.00  0.00    +0.000 HD
ENDBRANCH  17  18
ENDBRANCH  15  17
ENDBRANCH   6  12
TORSDOF 3
ENDMDL
MODEL 8
REMARK VINA RESULT:      -5.2      3.283      5.410
REMARK  Name = Emtricitabine
REMARK  3 active torsions:
REMARK  status: ('A' for Active; 'I' for Inactive)
REMARK    1  A    between atoms: N_6  and  C_10
REMARK    2  A    between atoms: C_13  and  C_14
REMARK    3  A    between atoms: C_14  and  O_15
REMARK                            x       y       z     vdW  Elec       q    Type
REMARK                         _______ _______ _______ _____ _____    ______ ____
ROOT
ATOM      1  N   UNL     1      -7.651   3.789 133.358  0.00  0.00    +0.000 N 
ATOM      2  C   UNL     1      -8.465   4.380 132.434  0.00  0.00    +0.000 A 
ATOM      3  N   UNL     1      -8.701   3.734 131.333  0.00  0.00    +0.000 NA
ATOM      4  C   UNL     1      -9.525   4.279 130.369  0.00  0.00    +0.000 A 
ATOM      5  O   UNL     1      -9.757   3.652 129.337  0.00  0.00    +0.000 OA
ATOM      6  N   UNL     1     -10.117   5.531 130.614  0.00  0.00    +0.000 N 
ATOM      7  C   UNL     1      -9.861   6.221 131.783  0.00  0.00    +0.000 A 
ATOM      8  C   UNL     1      -9.055   5.708 132.705  0.00  0.00    +0.000 A 
ATOM      9  F   UNL     1      -8.760   6.311 133.870  0.00  0.00    +0.000 F 
ATOM     10  H   UNL     1      -7.232   2.894 133.135  0.00  0.00    +0.000 HD
ATOM     11  H   UNL     1      -7.394   4.249 134.220  0.00  0.00    +0.000 HD
ENDROOT
BRANCH   6  12
ATOM     12  C   UNL     1     -11.027   6.096 129.618  0.00  0.00    +0.000 C 
ATOM     13  C   UNL     1     -10.326   6.895 128.515  0.00  0.00    +0.000 C 
ATOM     14  S   UNL     1     -11.663   7.861 127.798  0.00  0.00    +0.000 S 
ATOM     15  C   UNL     1     -12.644   7.766 129.321  0.00  0.00    +0.000 C 
ATOM     16  O   UNL     1     -11.998   6.914 130.277  0.00  0.00    +0.000 OA
BRANCH  15  17
ATOM     17  C   UNL     1     -12.877   9.162 129.926  0.00  0.00    +0.000 C 
BRANCH  17  18
ATOM     18  O   UNL     1     -13.013  10.175 128.922  0.00  0.00    +0.000 OA
ATOM     19  H   UNL     1     -13.480   9.790 128.164  0.00  0.00    +0.000 HD
ENDBRANCH  17  18
ENDBRANCH  15  17
ENDBRANCH   6  12
TORSDOF 3
ENDMDL
MODEL 9
REMARK VINA RESULT:      -5.0      7.679      8.598
REMARK  Name = Emtricitabine
REMARK  3 active torsions:
REMARK  status: ('A' for Active; 'I' for Inactive)
REMARK    1  A    between atoms: N_6  and  C_10
REMARK    2  A    between atoms: C_13  and  C_14
REMARK    3  A    between atoms: C_14  and  O_15
REMARK                            x       y       z     vdW  Elec       q    Type
REMARK                         _______ _______ _______ _____ _____    ______ ____
ROOT
ATOM      1  N   UNL     1      -8.831   3.114 121.781  0.00  0.00    +0.000 N 
ATOM      2  C   UNL     1      -8.035   3.230 122.886  0.00  0.00    +0.000 A 
ATOM      3  N   UNL     1      -8.615   3.293 124.046  0.00  0.00    +0.000 NA
ATOM      4  C   UNL     1      -7.861   3.401 125.196  0.00  0.00    +0.000 A 
ATOM      5  O   UNL     1      -8.417   3.443 126.291  0.00  0.00    +0.000 OA
ATOM      6  N   UNL     1      -6.458   3.416 125.087  0.00  0.00    +0.000 N 
ATOM      7  C   UNL     1      -5.841   3.355 123.853  0.00  0.00    +0.000 A 
ATOM      8  C   UNL     1      -6.564   3.270 122.742  0.00  0.00    +0.000 A 
ATOM      9  F   UNL     1      -6.043   3.199 121.505  0.00  0.00    +0.000 F 
ATOM     10  H   UNL     1      -9.836   3.122 121.903  0.00  0.00    +0.000 HD
ATOM     11  H   UNL     1      -8.450   3.096 120.845  0.00  0.00    +0.000 HD
ENDROOT
BRANCH   6  12
ATOM     12  C   UNL     1      -5.649   3.485 126.304  0.00  0.00    +0.000 C 
ATOM     13  C   UNL     1      -5.435   4.907 126.832  0.00  0.00    +0.000 C 
ATOM     14  S   UNL     1      -4.038   4.722 127.948  0.00  0.00    +0.000 S 
ATOM     15  C   UNL     1      -3.454   3.236 127.086  0.00  0.00    +0.000 C 
ATOM     16  O   UNL     1      -4.388   2.853 126.066  0.00  0.00    +0.000 OA
BRANCH  15  17
ATOM     17  C   UNL     1      -2.059   3.454 126.473  0.00  0.00    +0.000 C 
BRANCH  17  18
ATOM     18  O   UNL     1      -1.182   2.347 126.708  0.00  0.00    +0.000 OA
ATOM     19  H   UNL     1      -1.493   1.596 126.178  0.00  0.00    +0.000 HD
ENDBRANCH  17  18
ENDBRANCH  15  17
ENDBRANCH   6  12
TORSDOF 3
ENDMDL
