MODEL 1
REMARK VINA RESULT:      -7.7      0.000      0.000
REMARK  Name = Enalaprilat
REMARK  11 active torsions:
REMARK  status: ('A' for Active; 'I' for Inactive)
REMARK    1  A    between atoms: C_2  and  C_3
REMARK    2  A    between atoms: C_2  and  N_4
REMARK    3  A    between atoms: C_2  and  C_18
REMARK    4  A    between atoms: N_4  and  C_5
REMARK    5  A    between atoms: C_5  and  C_7
REMARK    6  A    between atoms: C_5  and  C_15
REMARK    7  A    between atoms: C_7  and  C_8
REMARK    8  A    between atoms: C_8  and  C_9
REMARK    9  A    between atoms: C_15  and  O_16
REMARK   10  A    between atoms: CA_24  and  C_26
REMARK   11  A    between atoms: C_26  and  O_27
REMARK                            x       y       z     vdW  Elec       q    Type
REMARK                         _______ _______ _______ _____ _____    ______ ____
ROOT
ATOM      1  N   UNK A   1      -8.820   2.065 125.669  0.00  0.00    +0.000 NA
ATOM      2  H   UNK A   1      -9.271   2.579 126.416  0.00  0.00    +0.000 HD
ENDROOT
BRANCH   1   3
ATOM      3  C   UNK A   1      -8.191   0.896 126.336  0.00  0.00    +0.000 C 
ATOM      4  C   UNK A   1      -8.278   0.922 127.866  0.00  0.00    +0.000 C 
BRANCH   3   5
ATOM      5  C   UNK A   1      -8.589  -0.456 125.785  0.00  0.00    +0.000 C 
ATOM      6  O   UNK A   1      -9.773  -0.753 125.603  0.00  0.00    +0.000 OA
ATOM      7  N   PRO A   2      -7.625  -1.304 125.362  0.00  0.00    +0.000 N 
ATOM      8  CD  PRO A   2      -6.338  -1.560 125.943  0.00  0.00    +0.000 C 
ATOM      9  CG  PRO A   2      -5.449  -1.649 124.741  0.00  0.00    +0.000 C 
ATOM     10  CB  PRO A   2      -6.327  -2.423 123.761  0.00  0.00    +0.000 C 
ATOM     11  CA  PRO A   2      -7.772  -2.004 124.088  0.00  0.00    +0.000 C 
BRANCH  11  12
ATOM     12  C   PRO A   2      -8.689  -3.235 124.148  0.00  0.00    +0.000 C 
ATOM     13  OXT PRO A   2      -8.333  -4.301 124.626  0.00  0.00    +0.000 OA
BRANCH  12  14
ATOM     14  O   PRO A   2      -9.945  -3.048 123.676  0.00  0.00    +0.000 OA
ATOM     15  H   PRO A   2     -10.329  -3.881 123.326  0.00  0.00    +0.000 HD
ENDBRANCH  12  14
ENDBRANCH  11  12
ENDBRANCH   3   5
ENDBRANCH   1   3
BRANCH   1  16
ATOM     16  C   UNK A   1      -7.830   3.074 125.196  0.00  0.00    +0.000 C 
BRANCH  16  17
ATOM     17  C   UNK A   1      -7.976   4.378 126.025  0.00  0.00    +0.000 C 
ATOM     18  O   UNK A   1      -7.462   4.549 127.111  0.00  0.00    +0.000 OA
BRANCH  17  19
ATOM     19  O   UNK A   1      -8.785   5.309 125.450  0.00  0.00    +0.000 OA
ATOM     20  H   UNK A   1      -8.301   5.813 124.765  0.00  0.00    +0.000 HD
ENDBRANCH  17  19
ENDBRANCH  16  17
BRANCH  16  21
ATOM     21  C   UNK A   1      -7.907   3.418 123.717  0.00  0.00    +0.000 C 
BRANCH  21  22
ATOM     22  C   UNK A   1      -6.778   2.891 122.827  0.00  0.00    +0.000 C 
BRANCH  22  23
ATOM     23  C   UNK A   1      -6.459   3.676 121.613  0.00  0.00    +0.000 A 
ATOM     24  C   UNK A   1      -7.429   3.756 120.601  0.00  0.00    +0.000 A 
ATOM     25  C   UNK A   1      -7.115   4.410 119.427  0.00  0.00    +0.000 A 
ATOM     26  C   UNK A   1      -5.885   5.060 119.319  0.00  0.00    +0.000 A 
ATOM     27  C   UNK A   1      -4.970   5.055 120.369  0.00  0.00    +0.000 A 
ATOM     28  C   UNK A   1      -5.260   4.365 121.521  0.00  0.00    +0.000 A 
ENDBRANCH  22  23
ENDBRANCH  21  22
ENDBRANCH  16  21
ENDBRANCH   1  16
TORSDOF 10
ENDMDL
MODEL 2
REMARK VINA RESULT:      -7.6      1.896      2.189
REMARK  Name = Enalaprilat
REMARK  11 active torsions:
REMARK  status: ('A' for Active; 'I' for Inactive)
REMARK    1  A    between atoms: C_2  and  C_3
REMARK    2  A    between atoms: C_2  and  N_4
REMARK    3  A    between atoms: C_2  and  C_18
REMARK    4  A    between atoms: N_4  and  C_5
REMARK    5  A    between atoms: C_5  and  C_7
REMARK    6  A    between atoms: C_5  and  C_15
REMARK    7  A    between atoms: C_7  and  C_8
REMARK    8  A    between atoms: C_8  and  C_9
REMARK    9  A    between atoms: C_15  and  O_16
REMARK   10  A    between atoms: CA_24  and  C_26
REMARK   11  A    between atoms: C_26  and  O_27
REMARK                            x       y       z     vdW  Elec       q    Type
REMARK                         _______ _______ _______ _____ _____    ______ ____
ROOT
ATOM      1  N   UNK A   1      -8.845   2.196 125.354  0.00  0.00    +0.000 NA
ATOM      2  H   UNK A   1      -8.439   3.101 125.553  0.00  0.00    +0.000 HD
ENDROOT
BRANCH   1   3
ATOM      3  C   UNK A   1      -7.790   1.216 125.720  0.00  0.00    +0.000 C 
ATOM      4  C   UNK A   1      -7.012   1.573 126.992  0.00  0.00    +0.000 C 
BRANCH   3   5
ATOM      5  C   UNK A   1      -8.226  -0.234 125.731  0.00  0.00    +0.000 C 
ATOM      6  O   UNK A   1      -9.129  -0.627 126.473  0.00  0.00    +0.000 OA
ATOM      7  N   PRO A   2      -7.707  -1.084 124.818  0.00  0.00    +0.000 N 
ATOM      8  CD  PRO A   2      -6.361  -1.157 124.324  0.00  0.00    +0.000 C 
ATOM      9  CG  PRO A   2      -6.562  -1.403 122.860  0.00  0.00    +0.000 C 
ATOM     10  CB  PRO A   2      -7.728  -2.387 122.868  0.00  0.00    +0.000 C 
ATOM     11  CA  PRO A   2      -8.580  -2.004 124.093  0.00  0.00    +0.000 C 
BRANCH  11  12
ATOM     12  C   PRO A   2      -8.972  -3.258 124.889  0.00  0.00    +0.000 C 
ATOM     13  OXT PRO A   2      -8.270  -4.256 124.938  0.00  0.00    +0.000 OA
BRANCH  12  14
ATOM     14  O   PRO A   2     -10.135  -3.168 125.579  0.00  0.00    +0.000 OA
ATOM     15  H   PRO A   2     -10.155  -2.375 126.156  0.00  0.00    +0.000 HD
ENDBRANCH  12  14
ENDBRANCH  11  12
ENDBRANCH   3   5
ENDBRANCH   1   3
BRANCH   1  16
ATOM     16  C   UNK A   1      -9.061   2.303 123.884  0.00  0.00    +0.000 C 
BRANCH  16  17
ATOM     17  C   UNK A   1     -10.209   1.352 123.453  0.00  0.00    +0.000 C 
ATOM     18  O   UNK A   1     -11.213   1.164 124.108  0.00  0.00    +0.000 OA
BRANCH  17  19
ATOM     19  O   UNK A   1      -9.970   0.690 122.288  0.00  0.00    +0.000 OA
ATOM     20  H   UNK A   1     -10.552  -0.092 122.207  0.00  0.00    +0.000 HD
ENDBRANCH  17  19
ENDBRANCH  16  17
BRANCH  16  21
ATOM     21  C   UNK A   1      -7.839   2.023 123.023  0.00  0.00    +0.000 C 
BRANCH  21  22
ATOM     22  C   UNK A   1      -6.890   3.197 122.770  0.00  0.00    +0.000 C 
BRANCH  22  23
ATOM     23  C   UNK A   1      -6.875   3.765 121.404  0.00  0.00    +0.000 A 
ATOM     24  C   UNK A   1      -8.079   3.789 120.681  0.00  0.00    +0.000 A 
ATOM     25  C   UNK A   1      -8.063   4.234 119.375  0.00  0.00    +0.000 A 
ATOM     26  C   UNK A   1      -6.878   4.744 118.844  0.00  0.00    +0.000 A 
ATOM     27  C   UNK A   1      -5.712   4.804 119.604  0.00  0.00    +0.000 A 
ATOM     28  C   UNK A   1      -5.712   4.318 120.889  0.00  0.00    +0.000 A 
ENDBRANCH  22  23
ENDBRANCH  21  22
ENDBRANCH  16  21
ENDBRANCH   1  16
TORSDOF 10
ENDMDL
MODEL 3
REMARK VINA RESULT:      -7.2      6.138     10.252
REMARK  Name = Enalaprilat
REMARK  11 active torsions:
REMARK  status: ('A' for Active; 'I' for Inactive)
REMARK    1  A    between atoms: C_2  and  C_3
REMARK    2  A    between atoms: C_2  and  N_4
REMARK    3  A    between atoms: C_2  and  C_18
REMARK    4  A    between atoms: N_4  and  C_5
REMARK    5  A    between atoms: C_5  and  C_7
REMARK    6  A    between atoms: C_5  and  C_15
REMARK    7  A    between atoms: C_7  and  C_8
REMARK    8  A    between atoms: C_8  and  C_9
REMARK    9  A    between atoms: C_15  and  O_16
REMARK   10  A    between atoms: CA_24  and  C_26
REMARK   11  A    between atoms: C_26  and  O_27
REMARK                            x       y       z     vdW  Elec       q    Type
REMARK                         _______ _______ _______ _____ _____    ______ ____
ROOT
ATOM      1  N   UNK A   1      -9.861   3.398 129.979  0.00  0.00    +0.000 NA
ATOM      2  H   UNK A   1     -10.133   3.327 129.007  0.00  0.00    +0.000 HD
ENDROOT
BRANCH   1   3
ATOM      3  C   UNK A   1      -9.470   4.820 130.163  0.00  0.00    +0.000 C 
ATOM      4  C   UNK A   1      -8.004   5.022 130.562  0.00  0.00    +0.000 C 
BRANCH   3   5
ATOM      5  C   UNK A   1      -9.870   5.753 129.041  0.00  0.00    +0.000 C 
ATOM      6  O   UNK A   1      -9.323   5.701 127.937  0.00  0.00    +0.000 OA
ATOM      7  N   PRO A   2     -10.934   6.569 129.211  0.00  0.00    +0.000 N 
ATOM      8  CD  PRO A   2     -11.332   7.290 130.386  0.00  0.00    +0.000 C 
ATOM      9  CG  PRO A   2     -12.820   7.115 130.388  0.00  0.00    +0.000 C 
ATOM     10  CB  PRO A   2     -13.152   7.264 128.907  0.00  0.00    +0.000 C 
ATOM     11  CA  PRO A   2     -11.934   6.698 128.154  0.00  0.00    +0.000 C 
BRANCH  11  12
ATOM     12  C   PRO A   2     -11.523   7.638 127.010  0.00  0.00    +0.000 C 
ATOM     13  OXT PRO A   2     -10.891   8.666 127.196  0.00  0.00    +0.000 OA
BRANCH  12  14
ATOM     14  O   PRO A   2     -11.869   7.226 125.767  0.00  0.00    +0.000 OA
ATOM     15  H   PRO A   2     -11.243   6.555 125.419  0.00  0.00    +0.000 HD
ENDBRANCH  12  14
ENDBRANCH  11  12
ENDBRANCH   3   5
ENDBRANCH   1   3
BRANCH   1  16
ATOM     16  C   UNK A   1      -8.703   2.461 130.014  0.00  0.00    +0.000 C 
BRANCH  16  17
ATOM     17  C   UNK A   1      -8.493   1.836 128.608  0.00  0.00    +0.000 C 
ATOM     18  O   UNK A   1      -8.098   0.704 128.425  0.00  0.00    +0.000 OA
BRANCH  17  19
ATOM     19  O   UNK A   1      -8.741   2.693 127.581  0.00  0.00    +0.000 OA
ATOM     20  H   UNK A   1      -9.298   3.440 127.879  0.00  0.00    +0.000 HD
ENDBRANCH  17  19
ENDBRANCH  16  17
BRANCH  16  21
ATOM     21  C   UNK A   1      -8.799   1.344 131.041  0.00  0.00    +0.000 C 
BRANCH  21  22
ATOM     22  C   UNK A   1      -9.378   1.713 132.409  0.00  0.00    +0.000 C 
BRANCH  22  23
ATOM     23  C   UNK A   1      -8.555   2.588 133.273  0.00  0.00    +0.000 A 
ATOM     24  C   UNK A   1      -9.165   3.715 133.849  0.00  0.00    +0.000 A 
ATOM     25  C   UNK A   1      -8.389   4.588 134.584  0.00  0.00    +0.000 A 
ATOM     26  C   UNK A   1      -7.050   4.275 134.822  0.00  0.00    +0.000 A 
ATOM     27  C   UNK A   1      -6.483   3.104 134.326  0.00  0.00    +0.000 A 
ATOM     28  C   UNK A   1      -7.239   2.256 133.553  0.00  0.00    +0.000 A 
ENDBRANCH  22  23
ENDBRANCH  21  22
ENDBRANCH  16  21
ENDBRANCH   1  16
TORSDOF 10
ENDMDL
MODEL 4
REMARK VINA RESULT:      -7.1      3.261      6.321
REMARK  Name = Enalaprilat
REMARK  11 active torsions:
REMARK  status: ('A' for Active; 'I' for Inactive)
REMARK    1  A    between atoms: C_2  and  C_3
REMARK    2  A    between atoms: C_2  and  N_4
REMARK    3  A    between atoms: C_2  and  C_18
REMARK    4  A    between atoms: N_4  and  C_5
REMARK    5  A    between atoms: C_5  and  C_7
REMARK    6  A    between atoms: C_5  and  C_15
REMARK    7  A    between atoms: C_7  and  C_8
REMARK    8  A    between atoms: C_8  and  C_9
REMARK    9  A    between atoms: C_15  and  O_16
REMARK   10  A    between atoms: CA_24  and  C_26
REMARK   11  A    between atoms: C_26  and  O_27
REMARK                            x       y       z     vdW  Elec       q    Type
REMARK                         _______ _______ _______ _____ _____    ______ ____
ROOT
ATOM      1  N   UNK A   1      -4.917   0.186 126.489  0.00  0.00    +0.000 NA
ATOM      2  H   UNK A   1      -4.020   0.044 126.937  0.00  0.00    +0.000 HD
ENDROOT
BRANCH   1   3
ATOM      3  C   UNK A   1      -5.324   1.561 126.876  0.00  0.00    +0.000 C 
ATOM      4  C   UNK A   1      -4.173   2.440 127.378  0.00  0.00    +0.000 C 
BRANCH   3   5
ATOM      5  C   UNK A   1      -6.176   2.295 125.863  0.00  0.00    +0.000 C 
ATOM      6  O   UNK A   1      -5.694   3.157 125.122  0.00  0.00    +0.000 OA
ATOM      7  N   PRO A   2      -7.456   1.907 125.675  0.00  0.00    +0.000 N 
ATOM      8  CD  PRO A   2      -8.416   1.480 126.653  0.00  0.00    +0.000 C 
ATOM      9  CG  PRO A   2      -9.094   0.334 125.968  0.00  0.00    +0.000 C 
ATOM     10  CB  PRO A   2      -9.217   0.854 124.539  0.00  0.00    +0.000 C 
ATOM     11  CA  PRO A   2      -7.985   1.752 124.322  0.00  0.00    +0.000 C 
BRANCH  11  12
ATOM     12  C   PRO A   2      -8.391   3.071 123.650  0.00  0.00    +0.000 C 
ATOM     13  OXT PRO A   2      -8.740   3.137 122.481  0.00  0.00    +0.000 OA
BRANCH  12  14
ATOM     14  O   PRO A   2      -8.384   4.161 124.455  0.00  0.00    +0.000 OA
ATOM     15  H   PRO A   2      -7.890   3.995 125.286  0.00  0.00    +0.000 HD
ENDBRANCH  12  14
ENDBRANCH  11  12
ENDBRANCH   3   5
ENDBRANCH   1   3
BRANCH   1  16
ATOM     16  C   UNK A   1      -5.729  -0.875 127.150  0.00  0.00    +0.000 C 
BRANCH  16  17
ATOM     17  C   UNK A   1      -5.376  -0.939 128.660  0.00  0.00    +0.000 C 
ATOM     18  O   UNK A   1      -6.110  -0.545 129.542  0.00  0.00    +0.000 OA
BRANCH  17  19
ATOM     19  O   UNK A   1      -4.133  -1.430 128.916  0.00  0.00    +0.000 OA
ATOM     20  H   UNK A   1      -3.993  -1.534 129.879  0.00  0.00    +0.000 HD
ENDBRANCH  17  19
ENDBRANCH  16  17
BRANCH  16  21
ATOM     21  C   UNK A   1      -5.593  -2.267 126.552  0.00  0.00    +0.000 C 
BRANCH  21  22
ATOM     22  C   UNK A   1      -5.609  -2.366 125.024  0.00  0.00    +0.000 C 
BRANCH  22  23
ATOM     23  C   UNK A   1      -6.924  -2.569 124.379  0.00  0.00    +0.000 A 
ATOM     24  C   UNK A   1      -7.139  -1.996 123.114  0.00  0.00    +0.000 A 
ATOM     25  C   UNK A   1      -8.389  -2.102 122.538  0.00  0.00    +0.000 A 
ATOM     26  C   UNK A   1      -9.370  -2.862 123.177  0.00  0.00    +0.000 A 
ATOM     27  C   UNK A   1      -9.114  -3.506 124.384  0.00  0.00    +0.000 A 
ATOM     28  C   UNK A   1      -7.886  -3.363 124.984  0.00  0.00    +0.000 A 
ENDBRANCH  22  23
ENDBRANCH  21  22
ENDBRANCH  16  21
ENDBRANCH   1  16
TORSDOF 10
ENDMDL
MODEL 5
REMARK VINA RESULT:      -7.0      2.274      7.871
REMARK  Name = Enalaprilat
REMARK  11 active torsions:
REMARK  status: ('A' for Active; 'I' for Inactive)
REMARK    1  A    between atoms: C_2  and  C_3
REMARK    2  A    between atoms: C_2  and  N_4
REMARK    3  A    between atoms: C_2  and  C_18
REMARK    4  A    between atoms: N_4  and  C_5
REMARK    5  A    between atoms: C_5  and  C_7
REMARK    6  A    between atoms: C_5  and  C_15
REMARK    7  A    between atoms: C_7  and  C_8
REMARK    8  A    between atoms: C_8  and  C_9
REMARK    9  A    between atoms: C_15  and  O_16
REMARK   10  A    between atoms: CA_24  and  C_26
REMARK   11  A    between atoms: C_26  and  O_27
REMARK                            x       y       z     vdW  Elec       q    Type
REMARK                         _______ _______ _______ _____ _____    ______ ____
ROOT
ATOM      1  N   UNK A   1      -9.398  -0.732 124.444  0.00  0.00    +0.000 NA
ATOM      2  H   UNK A   1     -10.136  -1.226 123.959  0.00  0.00    +0.000 HD
ENDROOT
BRANCH   1   3
ATOM      3  C   UNK A   1      -9.149   0.482 123.624  0.00  0.00    +0.000 C 
ATOM      4  C   UNK A   1     -10.190   0.725 122.526  0.00  0.00    +0.000 C 
BRANCH   3   5
ATOM      5  C   UNK A   1      -8.869   1.747 124.406  0.00  0.00    +0.000 C 
ATOM      6  O   UNK A   1      -9.305   1.905 125.550  0.00  0.00    +0.000 OA
ATOM      7  N   PRO A   2      -8.018   2.664 123.894  0.00  0.00    +0.000 N 
ATOM      8  CD  PRO A   2      -7.874   3.090 122.531  0.00  0.00    +0.000 C 
ATOM      9  CG  PRO A   2      -6.388   3.197 122.377  0.00  0.00    +0.000 C 
ATOM     10  CB  PRO A   2      -5.980   3.809 123.713  0.00  0.00    +0.000 C 
ATOM     11  CA  PRO A   2      -6.989   3.262 124.740  0.00  0.00    +0.000 C 
BRANCH  11  12
ATOM     12  C   PRO A   2      -7.498   4.390 125.649  0.00  0.00    +0.000 C 
ATOM     13  OXT PRO A   2      -7.071   4.572 126.779  0.00  0.00    +0.000 OA
BRANCH  12  14
ATOM     14  O   PRO A   2      -8.425   5.209 125.096  0.00  0.00    +0.000 OA
ATOM     15  H   PRO A   2      -8.379   5.200 124.116  0.00  0.00    +0.000 HD
ENDBRANCH  12  14
ENDBRANCH  11  12
ENDBRANCH   3   5
ENDBRANCH   1   3
BRANCH   1  16
ATOM     16  C   UNK A   1      -8.295  -1.730 124.365  0.00  0.00    +0.000 C 
BRANCH  16  17
ATOM     17  C   UNK A   1      -8.889  -3.157 124.222  0.00  0.00    +0.000 C 
ATOM     18  O   UNK A   1      -8.321  -4.165 124.587  0.00  0.00    +0.000 OA
BRANCH  17  19
ATOM     19  O   UNK A   1     -10.096  -3.191 123.593  0.00  0.00    +0.000 OA
ATOM     20  H   UNK A   1     -10.119  -3.908 122.928  0.00  0.00    +0.000 HD
ENDBRANCH  17  19
ENDBRANCH  16  17
BRANCH  16  21
ATOM     21  C   UNK A   1      -7.319  -1.717 125.532  0.00  0.00    +0.000 C 
BRANCH  21  22
ATOM     22  C   UNK A   1      -7.926  -1.658 126.937  0.00  0.00    +0.000 C 
BRANCH  22  23
ATOM     23  C   UNK A   1      -7.175  -2.331 128.020  0.00  0.00    +0.000 A 
ATOM     24  C   UNK A   1      -5.777  -2.205 128.036  0.00  0.00    +0.000 A 
ATOM     25  C   UNK A   1      -5.056  -2.897 128.987  0.00  0.00    +0.000 A 
ATOM     26  C   UNK A   1      -5.740  -3.618 129.968  0.00  0.00    +0.000 A 
ATOM     27  C   UNK A   1      -7.132  -3.655 129.998  0.00  0.00    +0.000 A 
ATOM     28  C   UNK A   1      -7.851  -3.006 129.024  0.00  0.00    +0.000 A 
ENDBRANCH  22  23
ENDBRANCH  21  22
ENDBRANCH  16  21
ENDBRANCH   1  16
TORSDOF 10
ENDMDL
MODEL 6
REMARK VINA RESULT:      -7.0      7.576      9.705
REMARK  Name = Enalaprilat
REMARK  11 active torsions:
REMARK  status: ('A' for Active; 'I' for Inactive)
REMARK    1  A    between atoms: C_2  and  C_3
REMARK    2  A    between atoms: C_2  and  N_4
REMARK    3  A    between atoms: C_2  and  C_18
REMARK    4  A    between atoms: N_4  and  C_5
REMARK    5  A    between atoms: C_5  and  C_7
REMARK    6  A    between atoms: C_5  and  C_15
REMARK    7  A    between atoms: C_7  and  C_8
REMARK    8  A    between atoms: C_8  and  C_9
REMARK    9  A    between atoms: C_15  and  O_16
REMARK   10  A    between atoms: CA_24  and  C_26
REMARK   11  A    between atoms: C_26  and  O_27
REMARK                            x       y       z     vdW  Elec       q    Type
REMARK                         _______ _______ _______ _____ _____    ______ ____
ROOT
ATOM      1  N   UNK A   1      -8.190   4.747 131.561  0.00  0.00    +0.000 NA
ATOM      2  H   UNK A   1      -8.574   4.371 132.419  0.00  0.00    +0.000 HD
ENDROOT
BRANCH   1   3
ATOM      3  C   UNK A   1      -7.384   5.921 131.986  0.00  0.00    +0.000 C 
ATOM      4  C   UNK A   1      -6.661   5.737 133.324  0.00  0.00    +0.000 C 
BRANCH   3   5
ATOM      5  C   UNK A   1      -6.457   6.487 130.932  0.00  0.00    +0.000 C 
ATOM      6  O   UNK A   1      -6.635   7.612 130.457  0.00  0.00    +0.000 OA
ATOM      7  N   PRO A   2      -5.340   5.803 130.601  0.00  0.00    +0.000 N 
ATOM      8  CD  PRO A   2      -5.168   4.386 130.453  0.00  0.00    +0.000 C 
ATOM      9  CG  PRO A   2      -3.834   4.149 131.092  0.00  0.00    +0.000 C 
ATOM     10  CB  PRO A   2      -3.038   5.356 130.605  0.00  0.00    +0.000 C 
ATOM     11  CA  PRO A   2      -4.062   6.500 130.480  0.00  0.00    +0.000 C 
BRANCH  11  12
ATOM     12  C   PRO A   2      -3.875   7.247 129.152  0.00  0.00    +0.000 C 
ATOM     13  OXT PRO A   2      -3.499   6.694 128.130  0.00  0.00    +0.000 OA
BRANCH  12  14
ATOM     14  O   PRO A   2      -4.204   8.562 129.173  0.00  0.00    +0.000 OA
ATOM     15  H   PRO A   2      -4.727   8.819 128.384  0.00  0.00    +0.000 HD
ENDBRANCH  12  14
ENDBRANCH  11  12
ENDBRANCH   3   5
ENDBRANCH   1   3
BRANCH   1  16
ATOM     16  C   UNK A   1      -9.437   5.122 130.837  0.00  0.00    +0.000 C 
BRANCH  16  17
ATOM     17  C   UNK A   1      -9.210   5.002 129.306  0.00  0.00    +0.000 C 
ATOM     18  O   UNK A   1      -9.323   5.929 128.532  0.00  0.00    +0.000 OA
BRANCH  17  19
ATOM     19  O   UNK A   1      -8.923   3.739 128.888  0.00  0.00    +0.000 OA
ATOM     20  H   UNK A   1      -9.115   3.089 129.593  0.00  0.00    +0.000 HD
ENDBRANCH  17  19
ENDBRANCH  16  17
BRANCH  16  21
ATOM     21  C   UNK A   1      -9.979   6.508 131.148  0.00  0.00    +0.000 C 
BRANCH  21  22
ATOM     22  C   UNK A   1     -11.498   6.638 131.292  0.00  0.00    +0.000 C 
BRANCH  22  23
ATOM     23  C   UNK A   1     -12.232   7.230 130.151  0.00  0.00    +0.000 A 
ATOM     24  C   UNK A   1     -12.752   6.363 129.176  0.00  0.00    +0.000 A 
ATOM     25  C   UNK A   1     -13.362   6.904 128.062  0.00  0.00    +0.000 A 
ATOM     26  C   UNK A   1     -13.538   8.286 127.986  0.00  0.00    +0.000 A 
ATOM     27  C   UNK A   1     -13.103   9.127 129.007  0.00  0.00    +0.000 A 
ATOM     28  C   UNK A   1     -12.453   8.597 130.095  0.00  0.00    +0.000 A 
ENDBRANCH  22  23
ENDBRANCH  21  22
ENDBRANCH  16  21
ENDBRANCH   1  16
TORSDOF 10
ENDMDL
MODEL 7
REMARK VINA RESULT:      -7.0      1.810      2.343
REMARK  Name = Enalaprilat
REMARK  11 active torsions:
REMARK  status: ('A' for Active; 'I' for Inactive)
REMARK    1  A    between atoms: C_2  and  C_3
REMARK    2  A    between atoms: C_2  and  N_4
REMARK    3  A    between atoms: C_2  and  C_18
REMARK    4  A    between atoms: N_4  and  C_5
REMARK    5  A    between atoms: C_5  and  C_7
REMARK    6  A    between atoms: C_5  and  C_15
REMARK    7  A    between atoms: C_7  and  C_8
REMARK    8  A    between atoms: C_8  and  C_9
REMARK    9  A    between atoms: C_15  and  O_16
REMARK   10  A    between atoms: CA_24  and  C_26
REMARK   11  A    between atoms: C_26  and  O_27
REMARK                            x       y       z     vdW  Elec       q    Type
REMARK                         _______ _______ _______ _____ _____    ______ ____
ROOT
ATOM      1  N   UNK A   1      -7.353   2.897 126.235  0.00  0.00    +0.000 NA
ATOM      2  H   UNK A   1      -6.927   3.227 127.091  0.00  0.00    +0.000 HD
ENDROOT
BRANCH   1   3
ATOM      3  C   UNK A   1      -7.860   1.539 126.559  0.00  0.00    +0.000 C 
ATOM      4  C   UNK A   1      -8.538   1.431 127.929  0.00  0.00    +0.000 C 
BRANCH   3   5
ATOM      5  C   UNK A   1      -8.691   0.881 125.479  0.00  0.00    +0.000 C 
ATOM      6  O   UNK A   1      -9.795   1.328 125.157  0.00  0.00    +0.000 OA
ATOM      7  N   PRO A   2      -8.159  -0.134 124.764  0.00  0.00    +0.000 N 
ATOM      8  CD  PRO A   2      -7.317  -1.205 125.218  0.00  0.00    +0.000 C 
ATOM      9  CG  PRO A   2      -6.310  -1.319 124.115  0.00  0.00    +0.000 C 
ATOM     10  CB  PRO A   2      -7.182  -1.127 122.878  0.00  0.00    +0.000 C 
ATOM     11  CA  PRO A   2      -8.301  -0.162 123.311  0.00  0.00    +0.000 C 
BRANCH  11  12
ATOM     12  C   PRO A   2      -9.667  -0.667 122.822  0.00  0.00    +0.000 C 
ATOM     13  OXT PRO A   2     -10.457   0.043 122.221  0.00  0.00    +0.000 OA
BRANCH  12  14
ATOM     14  O   PRO A   2      -9.922  -1.976 123.061  0.00  0.00    +0.000 OA
ATOM     15  H   PRO A   2     -10.852  -2.209 122.853  0.00  0.00    +0.000 HD
ENDBRANCH  12  14
ENDBRANCH  11  12
ENDBRANCH   3   5
ENDBRANCH   1   3
BRANCH   1  16
ATOM     16  C   UNK A   1      -6.173   2.882 125.324  0.00  0.00    +0.000 C 
BRANCH  16  17
ATOM     17  C   UNK A   1      -4.902   3.308 126.107  0.00  0.00    +0.000 C 
ATOM     18  O   UNK A   1      -4.732   3.088 127.288  0.00  0.00    +0.000 OA
BRANCH  17  19
ATOM     19  O   UNK A   1      -4.004   4.008 125.362  0.00  0.00    +0.000 OA
ATOM     20  H   UNK A   1      -3.251   3.440 125.105  0.00  0.00    +0.000 HD
ENDBRANCH  17  19
ENDBRANCH  16  17
BRANCH  16  21
ATOM     21  C   UNK A   1      -6.299   3.748 124.080  0.00  0.00    +0.000 C 
BRANCH  21  22
ATOM     22  C   UNK A   1      -6.564   3.022 122.758  0.00  0.00    +0.000 C 
BRANCH  22  23
ATOM     23  C   UNK A   1      -6.287   3.772 121.514  0.00  0.00    +0.000 A 
ATOM     24  C   UNK A   1      -5.058   4.444 121.403  0.00  0.00    +0.000 A 
ATOM     25  C   UNK A   1      -4.821   5.219 120.287  0.00  0.00    +0.000 A 
ATOM     26  C   UNK A   1      -5.760   5.231 119.254  0.00  0.00    +0.000 A 
ATOM     27  C   UNK A   1      -6.932   4.482 119.334  0.00  0.00    +0.000 A 
ATOM     28  C   UNK A   1      -7.193   3.747 120.465  0.00  0.00    +0.000 A 
ENDBRANCH  22  23
ENDBRANCH  21  22
ENDBRANCH  16  21
ENDBRANCH   1  16
TORSDOF 10
ENDMDL
MODEL 8
REMARK VINA RESULT:      -6.9      3.978      7.646
REMARK  Name = Enalaprilat
REMARK  11 active torsions:
REMARK  status: ('A' for Active; 'I' for Inactive)
REMARK    1  A    between atoms: C_2  and  C_3
REMARK    2  A    between atoms: C_2  and  N_4
REMARK    3  A    between atoms: C_2  and  C_18
REMARK    4  A    between atoms: N_4  and  C_5
REMARK    5  A    between atoms: C_5  and  C_7
REMARK    6  A    between atoms: C_5  and  C_15
REMARK    7  A    between atoms: C_7  and  C_8
REMARK    8  A    between atoms: C_8  and  C_9
REMARK    9  A    between atoms: C_15  and  O_16
REMARK   10  A    between atoms: CA_24  and  C_26
REMARK   11  A    between atoms: C_26  and  O_27
REMARK                            x       y       z     vdW  Elec       q    Type
REMARK                         _______ _______ _______ _____ _____    ______ ____
ROOT
ATOM      1  N   UNK A   1      -8.507   2.610 127.296  0.00  0.00    +0.000 NA
ATOM      2  H   UNK A   1      -9.099   3.430 127.252  0.00  0.00    +0.000 HD
ENDROOT
BRANCH   1   3
ATOM      3  C   UNK A   1      -7.572   2.874 128.420  0.00  0.00    +0.000 C 
ATOM      4  C   UNK A   1      -6.093   2.686 128.066  0.00  0.00    +0.000 C 
BRANCH   3   5
ATOM      5  C   UNK A   1      -7.800   4.173 129.162  0.00  0.00    +0.000 C 
ATOM      6  O   UNK A   1      -7.050   5.140 129.010  0.00  0.00    +0.000 OA
ATOM      7  N   PRO A   2      -8.920   4.320 129.904  0.00  0.00    +0.000 N 
ATOM      8  CD  PRO A   2      -9.576   3.354 130.739  0.00  0.00    +0.000 C 
ATOM      9  CG  PRO A   2     -11.024   3.597 130.446  0.00  0.00    +0.000 C 
ATOM     10  CB  PRO A   2     -11.074   5.120 130.371  0.00  0.00    +0.000 C 
ATOM     11  CA  PRO A   2      -9.705   5.549 129.812  0.00  0.00    +0.000 C 
BRANCH  11  12
ATOM     12  C   PRO A   2      -9.135   6.722 130.623  0.00  0.00    +0.000 C 
ATOM     13  OXT PRO A   2      -8.613   7.694 130.099  0.00  0.00    +0.000 OA
BRANCH  12  14
ATOM     14  O   PRO A   2      -9.292   6.631 131.965  0.00  0.00    +0.000 OA
ATOM     15  H   PRO A   2      -8.428   6.591 132.430  0.00  0.00    +0.000 HD
ENDBRANCH  12  14
ENDBRANCH  11  12
ENDBRANCH   3   5
ENDBRANCH   1   3
BRANCH   1  16
ATOM     16  C   UNK A   1      -7.850   2.667 125.960  0.00  0.00    +0.000 C 
BRANCH  16  17
ATOM     17  C   UNK A   1      -8.325   3.932 125.197  0.00  0.00    +0.000 C 
ATOM     18  O   UNK A   1      -8.777   4.918 125.741  0.00  0.00    +0.000 OA
BRANCH  17  19
ATOM     19  O   UNK A   1      -8.244   3.824 123.843  0.00  0.00    +0.000 OA
ATOM     20  H   UNK A   1      -7.322   3.652 123.564  0.00  0.00    +0.000 HD
ENDBRANCH  17  19
ENDBRANCH  16  17
BRANCH  16  21
ATOM     21  C   UNK A   1      -8.066   1.448 125.076  0.00  0.00    +0.000 C 
BRANCH  21  22
ATOM     22  C   UNK A   1      -9.151   0.461 125.514  0.00  0.00    +0.000 C 
BRANCH  22  23
ATOM     23  C   UNK A   1      -9.071  -0.911 124.966  0.00  0.00    +0.000 A 
ATOM     24  C   UNK A   1      -8.861  -1.063 123.586  0.00  0.00    +0.000 A 
ATOM     25  C   UNK A   1      -8.871  -2.333 123.046  0.00  0.00    +0.000 A 
ATOM     26  C   UNK A   1      -8.984  -3.433 123.898  0.00  0.00    +0.000 A 
ATOM     27  C   UNK A   1      -9.094  -3.272 125.277  0.00  0.00    +0.000 A 
ATOM     28  C   UNK A   1      -9.133  -2.007 125.812  0.00  0.00    +0.000 A 
ENDBRANCH  22  23
ENDBRANCH  21  22
ENDBRANCH  16  21
ENDBRANCH   1  16
TORSDOF 10
ENDMDL
MODEL 9
REMARK VINA RESULT:      -6.9      7.345     11.065
REMARK  Name = Enalaprilat
REMARK  11 active torsions:
REMARK  status: ('A' for Active; 'I' for Inactive)
REMARK    1  A    between atoms: C_2  and  C_3
REMARK    2  A    between atoms: C_2  and  N_4
REMARK    3  A    between atoms: C_2  and  C_18
REMARK    4  A    between atoms: N_4  and  C_5
REMARK    5  A    between atoms: C_5  and  C_7
REMARK    6  A    between atoms: C_5  and  C_15
REMARK    7  A    between atoms: C_7  and  C_8
REMARK    8  A    between atoms: C_8  and  C_9
REMARK    9  A    between atoms: C_15  and  O_16
REMARK   10  A    between atoms: CA_24  and  C_26
REMARK   11  A    between atoms: C_26  and  O_27
REMARK                            x       y       z     vdW  Elec       q    Type
REMARK                         _______ _______ _______ _____ _____    ______ ____
ROOT
ATOM      1  N   UNK A   1     -10.199   4.685 131.428  0.00  0.00    +0.000 NA
ATOM      2  H   UNK A   1     -10.617   4.390 130.554  0.00  0.00    +0.000 HD
ENDROOT
BRANCH   1   3
ATOM      3  C   UNK A   1      -9.801   6.099 131.202  0.00  0.00    +0.000 C 
ATOM      4  C   UNK A   1      -8.376   6.432 131.657  0.00  0.00    +0.000 C 
BRANCH   3   5
ATOM      5  C   UNK A   1     -10.077   6.637 129.815  0.00  0.00    +0.000 C 
ATOM      6  O   UNK A   1      -9.266   6.489 128.896  0.00  0.00    +0.000 OA
ATOM      7  N   PRO A   2     -11.287   7.173 129.544  0.00  0.00    +0.000 N 
ATOM      8  CD  PRO A   2     -12.106   8.004 130.380  0.00  0.00    +0.000 C 
ATOM      9  CG  PRO A   2     -13.481   7.463 130.133  0.00  0.00    +0.000 C 
ATOM     10  CB  PRO A   2     -13.446   7.201 128.630  0.00  0.00    +0.000 C 
ATOM     11  CA  PRO A   2     -11.990   6.814 128.315  0.00  0.00    +0.000 C 
BRANCH  11  12
ATOM     12  C   PRO A   2     -11.493   7.559 127.066  0.00  0.00    +0.000 C 
ATOM     13  OXT PRO A   2     -11.731   7.177 125.931  0.00  0.00    +0.000 OA
BRANCH  12  14
ATOM     14  O   PRO A   2     -10.808   8.703 127.306  0.00  0.00    +0.000 OA
ATOM     15  H   PRO A   2     -10.915   9.003 128.234  0.00  0.00    +0.000 HD
ENDBRANCH  12  14
ENDBRANCH  11  12
ENDBRANCH   3   5
ENDBRANCH   1   3
BRANCH   1  16
ATOM     16  C   UNK A   1      -9.039   3.754 131.509  0.00  0.00    +0.000 C 
BRANCH  16  17
ATOM     17  C   UNK A   1      -9.093   2.745 130.331  0.00  0.00    +0.000 C 
ATOM     18  O   UNK A   1      -9.007   1.543 130.467  0.00  0.00    +0.000 OA
BRANCH  17  19
ATOM     19  O   UNK A   1      -9.191   3.332 129.107  0.00  0.00    +0.000 OA
ATOM     20  H   UNK A   1     -10.075   3.733 128.985  0.00  0.00    +0.000 HD
ENDBRANCH  17  19
ENDBRANCH  16  17
BRANCH  16  21
ATOM     21  C   UNK A   1      -8.913   2.982 132.814  0.00  0.00    +0.000 C 
BRANCH  21  22
ATOM     22  C   UNK A   1      -9.030   3.792 134.108  0.00  0.00    +0.000 C 
BRANCH  22  23
ATOM     23  C   UNK A   1      -7.773   4.301 134.697  0.00  0.00    +0.000 A 
ATOM     24  C   UNK A   1      -7.834   5.450 135.503  0.00  0.00    +0.000 A 
ATOM     25  C   UNK A   1      -6.659   5.988 135.987  0.00  0.00    +0.000 A 
ATOM     26  C   UNK A   1      -5.457   5.319 135.753  0.00  0.00    +0.000 A 
ATOM     27  C   UNK A   1      -5.421   4.127 135.034  0.00  0.00    +0.000 A 
ATOM     28  C   UNK A   1      -6.583   3.614 134.509  0.00  0.00    +0.000 A 
ENDBRANCH  22  23
ENDBRANCH  21  22
ENDBRANCH  16  21
ENDBRANCH   1  16
TORSDOF 10
ENDMDL
