MODEL 1
REMARK VINA RESULT:      -7.4      0.000      0.000
REMARK  Name = Enalapril
REMARK  13 active torsions:
REMARK  status: ('A' for Active; 'I' for Inactive)
REMARK    1  A    between atoms: C_1  and  C_2
REMARK    2  A    between atoms: C_2  and  O_3
REMARK    3  A    between atoms: O_3  and  C_4
REMARK    4  A    between atoms: C_4  and  C_6
REMARK    5  A    between atoms: C_6  and  C_7
REMARK    6  A    between atoms: C_6  and  N_15
REMARK    7  A    between atoms: C_7  and  C_8
REMARK    8  A    between atoms: C_8  and  C_9
REMARK    9  A    between atoms: N_15  and  CA_16
REMARK   10  A    between atoms: CA_16  and  CB_17
REMARK   11  A    between atoms: CA_16  and  C_18
REMARK   12  A    between atoms: CA_24  and  C_25
REMARK   13  A    between atoms: C_25  and  O_26
REMARK                            x       y       z     vdW  Elec       q    Type
REMARK                         _______ _______ _______ _____ _____    ______ ____
ROOT
ATOM      1  N   ALA A   1      -6.936   1.868 126.245  0.00  0.00    +0.000 NA
ATOM      2  H   ALA A   1      -7.890   1.516 126.370  0.00  0.00    +0.000 HD
ENDROOT
BRANCH   1   3
ATOM      3  CA  ALA A   1      -6.171   0.700 125.751  0.00  0.00    +0.000 C 
ATOM      4  CB  ALA A   1      -5.017   0.538 126.642  0.00  0.00    +0.000 C 
BRANCH   3   5
ATOM      5  C   ALA A   1      -7.025  -0.593 125.808  0.00  0.00    +0.000 C 
ATOM      6  O   ALA A   1      -7.831  -0.806 126.718  0.00  0.00    +0.000 OA
ATOM      7  N   PRO A   2      -7.010  -1.462 124.728  0.00  0.00    +0.000 N 
ATOM      8  CD  PRO A   2      -5.933  -1.985 123.891  0.00  0.00    +0.000 C 
ATOM      9  CG  PRO A   2      -6.463  -1.778 122.494  0.00  0.00    +0.000 C 
ATOM     10  CB  PRO A   2      -7.905  -2.240 122.669  0.00  0.00    +0.000 C 
ATOM     11  CA  PRO A   2      -8.288  -1.846 124.118  0.00  0.00    +0.000 C 
BRANCH  11  12
ATOM     12  C   PRO A   2      -8.968  -3.037 124.808  0.00  0.00    +0.000 C 
ATOM     13  OXT PRO A   2      -8.532  -4.171 124.750  0.00  0.00    +0.000 OA
BRANCH  12  14
ATOM     14  O   PRO A   2     -10.062  -2.720 125.544  0.00  0.00    +0.000 OA
ATOM     15  H   PRO A   2      -9.821  -2.502 126.470  0.00  0.00    +0.000 HD
ENDBRANCH  12  14
ENDBRANCH  11  12
ENDBRANCH   3   5
ENDBRANCH   1   3
BRANCH   1  16
ATOM     16  C   UNK A   0      -6.963   3.094 125.376  0.00  0.00    +0.000 C 
BRANCH  16  17
ATOM     17  C   UNK A   0      -8.389   3.694 124.957  0.00  0.00    +0.000 C 
ATOM     18  O   UNK A   0      -8.926   4.587 125.590  0.00  0.00    +0.000 OA
BRANCH  17  19
ATOM     19  O   UNK A   0      -8.993   3.087 123.879  0.00  0.00    +0.000 OA
BRANCH  19  21
ATOM     20  C   UNK A   0     -10.018   1.053 122.750  0.00  0.00    +0.000 C 
ATOM     21  C   UNK A   0      -9.688   1.808 124.070  0.00  0.00    +0.000 C 
ENDBRANCH  19  21
ENDBRANCH  17  19
ENDBRANCH  16  17
BRANCH  16  22
ATOM     22  C   UNK A   0      -6.211   2.859 124.050  0.00  0.00    +0.000 C 
BRANCH  22  23
ATOM     23  C   UNK A   0      -5.425   4.064 123.512  0.00  0.00    +0.000 C 
BRANCH  23  24
ATOM     24  C   UNK A   0      -5.649   4.173 122.035  0.00  0.00    +0.000 A 
ATOM     25  C   UNK A   0      -4.789   4.934 121.242  0.00  0.00    +0.000 A 
ATOM     26  C   UNK A   0      -5.159   5.245 119.939  0.00  0.00    +0.000 A 
ATOM     27  C   UNK A   0      -6.337   4.722 119.402  0.00  0.00    +0.000 A 
ATOM     28  C   UNK A   0      -7.163   3.907 120.173  0.00  0.00    +0.000 A 
ATOM     29  C   UNK A   0      -6.820   3.633 121.491  0.00  0.00    +0.000 A 
ENDBRANCH  23  24
ENDBRANCH  22  23
ENDBRANCH  16  22
ENDBRANCH   1  16
TORSDOF 11
ENDMDL
MODEL 2
REMARK VINA RESULT:      -7.1      3.105      6.287
REMARK  Name = Enalapril
REMARK  13 active torsions:
REMARK  status: ('A' for Active; 'I' for Inactive)
REMARK    1  A    between atoms: C_1  and  C_2
REMARK    2  A    between atoms: C_2  and  O_3
REMARK    3  A    between atoms: O_3  and  C_4
REMARK    4  A    between atoms: C_4  and  C_6
REMARK    5  A    between atoms: C_6  and  C_7
REMARK    6  A    between atoms: C_6  and  N_15
REMARK    7  A    between atoms: C_7  and  C_8
REMARK    8  A    between atoms: C_8  and  C_9
REMARK    9  A    between atoms: N_15  and  CA_16
REMARK   10  A    between atoms: CA_16  and  CB_17
REMARK   11  A    between atoms: CA_16  and  C_18
REMARK   12  A    between atoms: CA_24  and  C_25
REMARK   13  A    between atoms: C_25  and  O_26
REMARK                            x       y       z     vdW  Elec       q    Type
REMARK                         _______ _______ _______ _____ _____    ______ ____
ROOT
ATOM      1  N   ALA A   1      -4.974   0.250 126.800  0.00  0.00    +0.000 NA
ATOM      2  H   ALA A   1      -5.054   0.450 125.798  0.00  0.00    +0.000 HD
ENDROOT
BRANCH   1   3
ATOM      3  CA  ALA A   1      -5.400   1.504 127.463  0.00  0.00    +0.000 C 
ATOM      4  CB  ALA A   1      -4.184   2.280 127.729  0.00  0.00    +0.000 C 
BRANCH   3   5
ATOM      5  C   ALA A   1      -6.326   2.338 126.540  0.00  0.00    +0.000 C 
ATOM      6  O   ALA A   1      -5.926   3.339 125.941  0.00  0.00    +0.000 OA
ATOM      7  N   PRO A   2      -7.594   1.860 126.246  0.00  0.00    +0.000 N 
ATOM      8  CD  PRO A   2      -8.640   1.253 127.065  0.00  0.00    +0.000 C 
ATOM      9  CG  PRO A   2      -9.039   0.043 126.258  0.00  0.00    +0.000 C 
ATOM     10  CB  PRO A   2      -9.090   0.643 124.857  0.00  0.00    +0.000 C 
ATOM     11  CA  PRO A   2      -7.986   1.730 124.838  0.00  0.00    +0.000 C 
BRANCH  11  12
ATOM     12  C   PRO A   2      -8.552   3.022 124.233  0.00  0.00    +0.000 C 
ATOM     13  OXT PRO A   2      -8.684   3.189 123.035  0.00  0.00    +0.000 OA
BRANCH  12  14
ATOM     14  O   PRO A   2      -8.959   3.946 125.139  0.00  0.00    +0.000 OA
ATOM     15  H   PRO A   2      -9.716   3.619 125.671  0.00  0.00    +0.000 HD
ENDBRANCH  12  14
ENDBRANCH  11  12
ENDBRANCH   3   5
ENDBRANCH   1   3
BRANCH   1  16
ATOM     16  C   UNK A   0      -5.742  -1.000 127.126  0.00  0.00    +0.000 C 
BRANCH  16  17
ATOM     17  C   UNK A   0      -5.554  -1.644 128.582  0.00  0.00    +0.000 C 
ATOM     18  O   UNK A   0      -4.512  -2.178 128.924  0.00  0.00    +0.000 OA
BRANCH  17  19
ATOM     19  O   UNK A   0      -6.667  -1.613 129.391  0.00  0.00    +0.000 OA
BRANCH  19  21
ATOM     20  C   UNK A   0      -8.215  -3.447 128.551  0.00  0.00    +0.000 C 
ATOM     21  C   UNK A   0      -7.356  -2.869 129.714  0.00  0.00    +0.000 C 
ENDBRANCH  19  21
ENDBRANCH  17  19
ENDBRANCH  16  17
BRANCH  16  22
ATOM     22  C   UNK A   0      -5.421  -2.132 126.130  0.00  0.00    +0.000 C 
BRANCH  22  23
ATOM     23  C   UNK A   0      -5.531  -1.759 124.645  0.00  0.00    +0.000 C 
BRANCH  23  24
ATOM     24  C   UNK A   0      -6.798  -2.334 124.089  0.00  0.00    +0.000 A 
ATOM     25  C   UNK A   0      -7.327  -1.855 122.889  0.00  0.00    +0.000 A 
ATOM     26  C   UNK A   0      -8.624  -2.201 122.530  0.00  0.00    +0.000 A 
ATOM     27  C   UNK A   0      -9.354  -3.093 123.318  0.00  0.00    +0.000 A 
ATOM     28  C   UNK A   0      -8.801  -3.623 124.482  0.00  0.00    +0.000 A 
ATOM     29  C   UNK A   0      -7.523  -3.242 124.869  0.00  0.00    +0.000 A 
ENDBRANCH  23  24
ENDBRANCH  22  23
ENDBRANCH  16  22
ENDBRANCH   1  16
TORSDOF 11
ENDMDL
MODEL 3
REMARK VINA RESULT:      -7.0      2.474      7.572
REMARK  Name = Enalapril
REMARK  13 active torsions:
REMARK  status: ('A' for Active; 'I' for Inactive)
REMARK    1  A    between atoms: C_1  and  C_2
REMARK    2  A    between atoms: C_2  and  O_3
REMARK    3  A    between atoms: O_3  and  C_4
REMARK    4  A    between atoms: C_4  and  C_6
REMARK    5  A    between atoms: C_6  and  C_7
REMARK    6  A    between atoms: C_6  and  N_15
REMARK    7  A    between atoms: C_7  and  C_8
REMARK    8  A    between atoms: C_8  and  C_9
REMARK    9  A    between atoms: N_15  and  CA_16
REMARK   10  A    between atoms: CA_16  and  CB_17
REMARK   11  A    between atoms: CA_16  and  C_18
REMARK   12  A    between atoms: CA_24  and  C_25
REMARK   13  A    between atoms: C_25  and  O_26
REMARK                            x       y       z     vdW  Elec       q    Type
REMARK                         _______ _______ _______ _____ _____    ______ ____
ROOT
ATOM      1  N   ALA A   1      -9.253  -0.772 124.169  0.00  0.00    +0.000 NA
ATOM      2  H   ALA A   1      -9.771  -0.407 124.975  0.00  0.00    +0.000 HD
ENDROOT
BRANCH   1   3
ATOM      3  CA  ALA A   1      -9.098   0.394 123.270  0.00  0.00    +0.000 C 
ATOM      4  CB  ALA A   1     -10.309   0.459 122.444  0.00  0.00    +0.000 C 
BRANCH   3   5
ATOM      5  C   ALA A   1      -8.978   1.712 124.078  0.00  0.00    +0.000 C 
ATOM      6  O   ALA A   1      -9.506   1.853 125.184  0.00  0.00    +0.000 OA
ATOM      7  N   PRO A   2      -8.122   2.706 123.628  0.00  0.00    +0.000 N 
ATOM      8  CD  PRO A   2      -7.867   3.271 122.305  0.00  0.00    +0.000 C 
ATOM      9  CG  PRO A   2      -6.361   3.265 122.222  0.00  0.00    +0.000 C 
ATOM     10  CB  PRO A   2      -6.001   3.775 123.612  0.00  0.00    +0.000 C 
ATOM     11  CA  PRO A   2      -7.106   3.227 124.549  0.00  0.00    +0.000 C 
BRANCH  11  12
ATOM     12  C   PRO A   2      -7.615   4.357 125.455  0.00  0.00    +0.000 C 
ATOM     13  OXT PRO A   2      -6.894   4.962 126.225  0.00  0.00    +0.000 OA
BRANCH  12  14
ATOM     14  O   PRO A   2      -8.922   4.678 125.285  0.00  0.00    +0.000 OA
ATOM     15  H   PRO A   2      -9.031   5.420 124.653  0.00  0.00    +0.000 HD
ENDBRANCH  12  14
ENDBRANCH  11  12
ENDBRANCH   3   5
ENDBRANCH   1   3
BRANCH   1  16
ATOM     16  C   UNK A   0      -7.998  -1.450 124.644  0.00  0.00    +0.000 C 
BRANCH  16  17
ATOM     17  C   UNK A   0      -6.823  -1.694 123.582  0.00  0.00    +0.000 C 
ATOM     18  O   UNK A   0      -6.483  -0.837 122.784  0.00  0.00    +0.000 OA
BRANCH  17  19
ATOM     19  O   UNK A   0      -6.271  -2.956 123.588  0.00  0.00    +0.000 OA
BRANCH  19  21
ATOM     20  C   UNK A   0      -4.294  -4.554 123.593  0.00  0.00    +0.000 C 
ATOM     21  C   UNK A   0      -4.828  -3.109 123.367  0.00  0.00    +0.000 C 
ENDBRANCH  19  21
ENDBRANCH  17  19
ENDBRANCH  16  17
BRANCH  16  22
ATOM     22  C   UNK A   0      -8.303  -2.837 125.246  0.00  0.00    +0.000 C 
BRANCH  22  23
ATOM     23  C   UNK A   0      -9.039  -2.826 126.592  0.00  0.00    +0.000 C 
BRANCH  23  24
ATOM     24  C   UNK A   0      -8.033  -2.753 127.700  0.00  0.00    +0.000 A 
ATOM     25  C   UNK A   0      -6.726  -2.335 127.444  0.00  0.00    +0.000 A 
ATOM     26  C   UNK A   0      -5.746  -2.530 128.410  0.00  0.00    +0.000 A 
ATOM     27  C   UNK A   0      -6.089  -3.053 129.658  0.00  0.00    +0.000 A 
ATOM     28  C   UNK A   0      -7.407  -3.409 129.937  0.00  0.00    +0.000 A 
ATOM     29  C   UNK A   0      -8.379  -3.260 128.958  0.00  0.00    +0.000 A 
ENDBRANCH  23  24
ENDBRANCH  22  23
ENDBRANCH  16  22
ENDBRANCH   1  16
TORSDOF 11
ENDMDL
MODEL 4
REMARK VINA RESULT:      -6.9      2.440      6.833
REMARK  Name = Enalapril
REMARK  13 active torsions:
REMARK  status: ('A' for Active; 'I' for Inactive)
REMARK    1  A    between atoms: C_1  and  C_2
REMARK    2  A    between atoms: C_2  and  O_3
REMARK    3  A    between atoms: O_3  and  C_4
REMARK    4  A    between atoms: C_4  and  C_6
REMARK    5  A    between atoms: C_6  and  C_7
REMARK    6  A    between atoms: C_6  and  N_15
REMARK    7  A    between atoms: C_7  and  C_8
REMARK    8  A    between atoms: C_8  and  C_9
REMARK    9  A    between atoms: N_15  and  CA_16
REMARK   10  A    between atoms: CA_16  and  CB_17
REMARK   11  A    between atoms: CA_16  and  C_18
REMARK   12  A    between atoms: CA_24  and  C_25
REMARK   13  A    between atoms: C_25  and  O_26
REMARK                            x       y       z     vdW  Elec       q    Type
REMARK                         _______ _______ _______ _____ _____    ______ ____
ROOT
ATOM      1  N   ALA A   1      -7.673   0.033 127.011  0.00  0.00    +0.000 NA
ATOM      2  H   ALA A   1      -7.251   0.823 127.510  0.00  0.00    +0.000 HD
ENDROOT
BRANCH   1   3
ATOM      3  CA  ALA A   1      -8.194   0.625 125.757  0.00  0.00    +0.000 C 
ATOM      4  CB  ALA A   1      -9.614   0.269 125.675  0.00  0.00    +0.000 C 
BRANCH   3   5
ATOM      5  C   ALA A   1      -8.071   2.171 125.774  0.00  0.00    +0.000 C 
ATOM      6  O   ALA A   1      -8.157   2.824 126.818  0.00  0.00    +0.000 OA
ATOM      7  N   PRO A   2      -7.692   2.832 124.616  0.00  0.00    +0.000 N 
ATOM      8  CD  PRO A   2      -8.090   2.690 123.217  0.00  0.00    +0.000 C 
ATOM      9  CG  PRO A   2      -6.767   2.661 122.493  0.00  0.00    +0.000 C 
ATOM     10  CB  PRO A   2      -6.028   3.784 123.212  0.00  0.00    +0.000 C 
ATOM     11  CA  PRO A   2      -6.545   3.745 124.672  0.00  0.00    +0.000 C 
BRANCH  11  12
ATOM     12  C   PRO A   2      -6.909   5.166 125.123  0.00  0.00    +0.000 C 
ATOM     13  OXT PRO A   2      -6.100   6.074 125.164  0.00  0.00    +0.000 OA
BRANCH  12  14
ATOM     14  O   PRO A   2      -8.221   5.354 125.412  0.00  0.00    +0.000 OA
ATOM     15  H   PRO A   2      -8.716   4.508 125.403  0.00  0.00    +0.000 HD
ENDBRANCH  12  14
ENDBRANCH  11  12
ENDBRANCH   3   5
ENDBRANCH   1   3
BRANCH   1  16
ATOM     16  C   UNK A   0      -6.669  -1.078 126.887  0.00  0.00    +0.000 C 
BRANCH  16  17
ATOM     17  C   UNK A   0      -5.714  -1.377 128.138  0.00  0.00    +0.000 C 
ATOM     18  O   UNK A   0      -5.085  -0.495 128.697  0.00  0.00    +0.000 OA
BRANCH  17  19
ATOM     19  O   UNK A   0      -5.601  -2.703 128.493  0.00  0.00    +0.000 OA
BRANCH  19  21
ATOM     20  C   UNK A   0      -3.325  -3.688 129.051  0.00  0.00    +0.000 C 
ATOM     21  C   UNK A   0      -4.666  -3.083 129.560  0.00  0.00    +0.000 C 
ENDBRANCH  19  21
ENDBRANCH  17  19
ENDBRANCH  16  17
BRANCH  16  22
ATOM     22  C   UNK A   0      -5.723  -0.848 125.691  0.00  0.00    +0.000 C 
BRANCH  22  23
ATOM     23  C   UNK A   0      -5.481  -2.070 124.794  0.00  0.00    +0.000 C 
BRANCH  23  24
ATOM     24  C   UNK A   0      -6.770  -2.457 124.138  0.00  0.00    +0.000 A 
ATOM     25  C   UNK A   0      -7.267  -1.721 123.060  0.00  0.00    +0.000 A 
ATOM     26  C   UNK A   0      -8.577  -1.922 122.642  0.00  0.00    +0.000 A 
ATOM     27  C   UNK A   0      -9.356  -2.917 123.237  0.00  0.00    +0.000 A 
ATOM     28  C   UNK A   0      -8.838  -3.698 124.269  0.00  0.00    +0.000 A 
ATOM     29  C   UNK A   0      -7.546  -3.467 124.720  0.00  0.00    +0.000 A 
ENDBRANCH  23  24
ENDBRANCH  22  23
ENDBRANCH  16  22
ENDBRANCH   1  16
TORSDOF 11
ENDMDL
MODEL 5
REMARK VINA RESULT:      -6.8      5.958      8.796
REMARK  Name = Enalapril
REMARK  13 active torsions:
REMARK  status: ('A' for Active; 'I' for Inactive)
REMARK    1  A    between atoms: C_1  and  C_2
REMARK    2  A    between atoms: C_2  and  O_3
REMARK    3  A    between atoms: O_3  and  C_4
REMARK    4  A    between atoms: C_4  and  C_6
REMARK    5  A    between atoms: C_6  and  C_7
REMARK    6  A    between atoms: C_6  and  N_15
REMARK    7  A    between atoms: C_7  and  C_8
REMARK    8  A    between atoms: C_8  and  C_9
REMARK    9  A    between atoms: N_15  and  CA_16
REMARK   10  A    between atoms: CA_16  and  CB_17
REMARK   11  A    between atoms: CA_16  and  C_18
REMARK   12  A    between atoms: CA_24  and  C_25
REMARK   13  A    between atoms: C_25  and  O_26
REMARK                            x       y       z     vdW  Elec       q    Type
REMARK                         _______ _______ _______ _____ _____    ______ ____
ROOT
ATOM      1  N   ALA A   1      -9.587   4.874 129.431  0.00  0.00    +0.000 NA
ATOM      2  H   ALA A   1      -9.200   5.671 128.915  0.00  0.00    +0.000 HD
ENDROOT
BRANCH   1   3
ATOM      3  CA  ALA A   1      -8.449   3.937 129.572  0.00  0.00    +0.000 C 
ATOM      4  CB  ALA A   1      -9.008   2.581 129.548  0.00  0.00    +0.000 C 
BRANCH   3   5
ATOM      5  C   ALA A   1      -7.454   4.083 128.392  0.00  0.00    +0.000 C 
ATOM      6  O   ALA A   1      -7.770   4.628 127.331  0.00  0.00    +0.000 OA
ATOM      7  N   PRO A   2      -6.123   3.742 128.583  0.00  0.00    +0.000 N 
ATOM      8  CD  PRO A   2      -5.474   2.609 129.239  0.00  0.00    +0.000 C 
ATOM      9  CG  PRO A   2      -4.436   3.274 130.107  0.00  0.00    +0.000 C 
ATOM     10  CB  PRO A   2      -3.887   4.317 129.141  0.00  0.00    +0.000 C 
ATOM     11  CA  PRO A   2      -5.091   4.733 128.260  0.00  0.00    +0.000 C 
BRANCH  11  12
ATOM     12  C   PRO A   2      -4.671   4.728 126.784  0.00  0.00    +0.000 C 
ATOM     13  OXT PRO A   2      -3.779   4.021 126.353  0.00  0.00    +0.000 OA
BRANCH  12  14
ATOM     14  O   PRO A   2      -5.413   5.526 125.977  0.00  0.00    +0.000 OA
ATOM     15  H   PRO A   2      -4.998   6.407 125.861  0.00  0.00    +0.000 HD
ENDBRANCH  12  14
ENDBRANCH  11  12
ENDBRANCH   3   5
ENDBRANCH   1   3
BRANCH   1  16
ATOM     16  C   UNK A   0     -10.241   5.363 130.693  0.00  0.00    +0.000 C 
BRANCH  16  17
ATOM     17  C   UNK A   0     -11.731   5.944 130.597  0.00  0.00    +0.000 C 
ATOM     18  O   UNK A   0     -12.318   6.385 131.570  0.00  0.00    +0.000 OA
BRANCH  17  19
ATOM     19  O   UNK A   0     -12.324   5.851 129.357  0.00  0.00    +0.000 OA
BRANCH  19  21
ATOM     20  C   UNK A   0     -11.782   8.229 128.639  0.00  0.00    +0.000 C 
ATOM     21  C   UNK A   0     -12.819   7.069 128.705  0.00  0.00    +0.000 C 
ENDBRANCH  19  21
ENDBRANCH  17  19
ENDBRANCH  16  17
BRANCH  16  22
ATOM     22  C   UNK A   0      -9.408   6.475 131.362  0.00  0.00    +0.000 C 
BRANCH  22  23
ATOM     23  C   UNK A   0      -8.571   6.037 132.573  0.00  0.00    +0.000 C 
BRANCH  23  24
ATOM     24  C   UNK A   0      -7.118   6.172 132.237  0.00  0.00    +0.000 A 
ATOM     25  C   UNK A   0      -6.139   5.733 133.131  0.00  0.00    +0.000 A 
ATOM     26  C   UNK A   0      -4.816   6.107 132.931  0.00  0.00    +0.000 A 
ATOM     27  C   UNK A   0      -4.458   6.836 131.795  0.00  0.00    +0.000 A 
ATOM     28  C   UNK A   0      -5.426   7.216 130.867  0.00  0.00    +0.000 A 
ATOM     29  C   UNK A   0      -6.756   6.886 131.089  0.00  0.00    +0.000 A 
ENDBRANCH  23  24
ENDBRANCH  22  23
ENDBRANCH  16  22
ENDBRANCH   1  16
TORSDOF 11
ENDMDL
MODEL 6
REMARK VINA RESULT:      -6.7      1.925      2.737
REMARK  Name = Enalapril
REMARK  13 active torsions:
REMARK  status: ('A' for Active; 'I' for Inactive)
REMARK    1  A    between atoms: C_1  and  C_2
REMARK    2  A    between atoms: C_2  and  O_3
REMARK    3  A    between atoms: O_3  and  C_4
REMARK    4  A    between atoms: C_4  and  C_6
REMARK    5  A    between atoms: C_6  and  C_7
REMARK    6  A    between atoms: C_6  and  N_15
REMARK    7  A    between atoms: C_7  and  C_8
REMARK    8  A    between atoms: C_8  and  C_9
REMARK    9  A    between atoms: N_15  and  CA_16
REMARK   10  A    between atoms: CA_16  and  CB_17
REMARK   11  A    between atoms: CA_16  and  C_18
REMARK   12  A    between atoms: CA_24  and  C_25
REMARK   13  A    between atoms: C_25  and  O_26
REMARK                            x       y       z     vdW  Elec       q    Type
REMARK                         _______ _______ _______ _____ _____    ______ ____
ROOT
ATOM      1  N   ALA A   1      -8.508   2.147 125.948  0.00  0.00    +0.000 NA
ATOM      2  H   ALA A   1      -8.749   1.937 124.974  0.00  0.00    +0.000 HD
ENDROOT
BRANCH   1   3
ATOM      3  CA  ALA A   1      -7.923   0.888 126.464  0.00  0.00    +0.000 C 
ATOM      4  CB  ALA A   1      -8.201   0.847 127.904  0.00  0.00    +0.000 C 
BRANCH   3   5
ATOM      5  C   ALA A   1      -8.580  -0.349 125.798  0.00  0.00    +0.000 C 
ATOM      6  O   ALA A   1      -9.781  -0.382 125.517  0.00  0.00    +0.000 OA
ATOM      7  N   PRO A   2      -7.773  -1.386 125.355  0.00  0.00    +0.000 N 
ATOM      8  CD  PRO A   2      -6.629  -2.075 125.946  0.00  0.00    +0.000 C 
ATOM      9  CG  PRO A   2      -5.626  -2.087 124.820  0.00  0.00    +0.000 C 
ATOM     10  CB  PRO A   2      -6.522  -2.467 123.648  0.00  0.00    +0.000 C 
ATOM     11  CA  PRO A   2      -7.898  -1.825 123.960  0.00  0.00    +0.000 C 
BRANCH  11  12
ATOM     12  C   PRO A   2      -9.008  -2.862 123.736  0.00  0.00    +0.000 C 
ATOM     13  OXT PRO A   2     -10.008  -2.628 123.085  0.00  0.00    +0.000 OA
BRANCH  12  14
ATOM     14  O   PRO A   2      -8.760  -4.086 124.266  0.00  0.00    +0.000 OA
ATOM     15  H   PRO A   2      -9.478  -4.367 124.872  0.00  0.00    +0.000 HD
ENDBRANCH  12  14
ENDBRANCH  11  12
ENDBRANCH   3   5
ENDBRANCH   1   3
BRANCH   1  16
ATOM     16  C   UNK A   0      -7.651   3.380 125.999  0.00  0.00    +0.000 C 
BRANCH  16  17
ATOM     17  C   UNK A   0      -8.263   4.699 126.674  0.00  0.00    +0.000 C 
ATOM     18  O   UNK A   0      -9.016   5.444 126.071  0.00  0.00    +0.000 OA
BRANCH  17  19
ATOM     19  O   UNK A   0      -7.828   4.966 127.953  0.00  0.00    +0.000 OA
BRANCH  19  21
ATOM     20  C   UNK A   0      -9.385   4.702 129.945  0.00  0.00    +0.000 C 
ATOM     21  C   UNK A   0      -8.261   4.097 129.054  0.00  0.00    +0.000 C 
ENDBRANCH  19  21
ENDBRANCH  17  19
ENDBRANCH  16  17
BRANCH  16  22
ATOM     22  C   UNK A   0      -7.201   3.810 124.588  0.00  0.00    +0.000 C 
BRANCH  22  23
ATOM     23  C   UNK A   0      -6.760   2.671 123.659  0.00  0.00    +0.000 C 
BRANCH  23  24
ATOM     24  C   UNK A   0      -7.030   3.065 122.240  0.00  0.00    +0.000 A 
ATOM     25  C   UNK A   0      -5.981   3.418 121.389  0.00  0.00    +0.000 A 
ATOM     26  C   UNK A   0      -6.264   4.034 120.176  0.00  0.00    +0.000 A 
ATOM     27  C   UNK A   0      -7.589   4.213 119.774  0.00  0.00    +0.000 A 
ATOM     28  C   UNK A   0      -8.637   3.800 120.595  0.00  0.00    +0.000 A 
ATOM     29  C   UNK A   0      -8.358   3.228 121.828  0.00  0.00    +0.000 A 
ENDBRANCH  23  24
ENDBRANCH  22  23
ENDBRANCH  16  22
ENDBRANCH   1  16
TORSDOF 11
ENDMDL
MODEL 7
REMARK VINA RESULT:      -6.6      1.957      2.916
REMARK  Name = Enalapril
REMARK  13 active torsions:
REMARK  status: ('A' for Active; 'I' for Inactive)
REMARK    1  A    between atoms: C_1  and  C_2
REMARK    2  A    between atoms: C_2  and  O_3
REMARK    3  A    between atoms: O_3  and  C_4
REMARK    4  A    between atoms: C_4  and  C_6
REMARK    5  A    between atoms: C_6  and  C_7
REMARK    6  A    between atoms: C_6  and  N_15
REMARK    7  A    between atoms: C_7  and  C_8
REMARK    8  A    between atoms: C_8  and  C_9
REMARK    9  A    between atoms: N_15  and  CA_16
REMARK   10  A    between atoms: CA_16  and  CB_17
REMARK   11  A    between atoms: CA_16  and  C_18
REMARK   12  A    between atoms: CA_24  and  C_25
REMARK   13  A    between atoms: C_25  and  O_26
REMARK                            x       y       z     vdW  Elec       q    Type
REMARK                         _______ _______ _______ _____ _____    ______ ____
ROOT
ATOM      1  N   ALA A   1      -7.872   1.396 126.156  0.00  0.00    +0.000 NA
ATOM      2  H   ALA A   1      -8.460   0.895 125.482  0.00  0.00    +0.000 HD
ENDROOT
BRANCH   1   3
ATOM      3  CA  ALA A   1      -7.016   0.345 126.753  0.00  0.00    +0.000 C 
ATOM      4  CB  ALA A   1      -7.904  -0.557 127.495  0.00  0.00    +0.000 C 
BRANCH   3   5
ATOM      5  C   ALA A   1      -6.286  -0.472 125.656  0.00  0.00    +0.000 C 
ATOM      6  O   ALA A   1      -5.056  -0.476 125.551  0.00  0.00    +0.000 OA
ATOM      7  N   PRO A   2      -7.014  -1.353 124.871  0.00  0.00    +0.000 N 
ATOM      8  CD  PRO A   2      -8.306  -1.246 124.198  0.00  0.00    +0.000 C 
ATOM      9  CG  PRO A   2      -8.998  -2.526 124.594  0.00  0.00    +0.000 C 
ATOM     10  CB  PRO A   2      -7.862  -3.526 124.420  0.00  0.00    +0.000 C 
ATOM     11  CA  PRO A   2      -6.573  -2.750 124.790  0.00  0.00    +0.000 C 
BRANCH  11  12
ATOM     12  C   PRO A   2      -5.502  -2.998 123.718  0.00  0.00    +0.000 C 
ATOM     13  OXT PRO A   2      -4.549  -3.732 123.894  0.00  0.00    +0.000 OA
BRANCH  12  14
ATOM     14  O   PRO A   2      -5.732  -2.385 122.530  0.00  0.00    +0.000 OA
ATOM     15  H   PRO A   2      -5.291  -2.855 121.791  0.00  0.00    +0.000 HD
ENDBRANCH  12  14
ENDBRANCH  11  12
ENDBRANCH   3   5
ENDBRANCH   1   3
BRANCH   1  16
ATOM     16  C   UNK A   0      -7.183   2.541 125.468  0.00  0.00    +0.000 C 
BRANCH  16  17
ATOM     17  C   UNK A   0      -7.669   4.030 125.807  0.00  0.00    +0.000 C 
ATOM     18  O   UNK A   0      -8.758   4.451 125.454  0.00  0.00    +0.000 OA
BRANCH  17  19
ATOM     19  O   UNK A   0      -6.750   4.818 126.462  0.00  0.00    +0.000 OA
BRANCH  19  21
ATOM     20  C   UNK A   0      -4.289   4.236 126.201  0.00  0.00    +0.000 C 
ATOM     21  C   UNK A   0      -5.575   4.190 127.078  0.00  0.00    +0.000 C 
ENDBRANCH  19  21
ENDBRANCH  17  19
ENDBRANCH  16  17
BRANCH  16  22
ATOM     22  C   UNK A   0      -7.281   2.415 123.934  0.00  0.00    +0.000 C 
BRANCH  22  23
ATOM     23  C   UNK A   0      -6.338   3.324 123.134  0.00  0.00    +0.000 C 
BRANCH  23  24
ATOM     24  C   UNK A   0      -6.895   3.517 121.757  0.00  0.00    +0.000 A 
ATOM     25  C   UNK A   0      -6.072   3.938 120.711  0.00  0.00    +0.000 A 
ATOM     26  C   UNK A   0      -6.647   4.369 119.522  0.00  0.00    +0.000 A 
ATOM     27  C   UNK A   0      -8.031   4.293 119.346  0.00  0.00    +0.000 A 
ATOM     28  C   UNK A   0      -8.847   3.809 120.366  0.00  0.00    +0.000 A 
ATOM     29  C   UNK A   0      -8.280   3.423 121.573  0.00  0.00    +0.000 A 
ENDBRANCH  23  24
ENDBRANCH  22  23
ENDBRANCH  16  22
ENDBRANCH   1  16
TORSDOF 11
ENDMDL
MODEL 8
REMARK VINA RESULT:      -6.6      6.620      8.723
REMARK  Name = Enalapril
REMARK  13 active torsions:
REMARK  status: ('A' for Active; 'I' for Inactive)
REMARK    1  A    between atoms: C_1  and  C_2
REMARK    2  A    between atoms: C_2  and  O_3
REMARK    3  A    between atoms: O_3  and  C_4
REMARK    4  A    between atoms: C_4  and  C_6
REMARK    5  A    between atoms: C_6  and  C_7
REMARK    6  A    between atoms: C_6  and  N_15
REMARK    7  A    between atoms: C_7  and  C_8
REMARK    8  A    between atoms: C_8  and  C_9
REMARK    9  A    between atoms: N_15  and  CA_16
REMARK   10  A    between atoms: CA_16  and  CB_17
REMARK   11  A    between atoms: CA_16  and  C_18
REMARK   12  A    between atoms: CA_24  and  C_25
REMARK   13  A    between atoms: C_25  and  O_26
REMARK                            x       y       z     vdW  Elec       q    Type
REMARK                         _______ _______ _______ _____ _____    ______ ____
ROOT
ATOM      1  N   ALA A   1      -6.836   6.100 130.400  0.00  0.00    +0.000 NA
ATOM      2  H   ALA A   1      -6.679   7.009 130.847  0.00  0.00    +0.000 HD
ENDROOT
BRANCH   1   3
ATOM      3  CA  ALA A   1      -5.859   5.195 131.049  0.00  0.00    +0.000 C 
ATOM      4  CB  ALA A   1      -6.617   4.334 131.964  0.00  0.00    +0.000 C 
BRANCH   3   5
ATOM      5  C   ALA A   1      -5.145   4.300 130.004  0.00  0.00    +0.000 C 
ATOM      6  O   ALA A   1      -5.725   3.377 129.426  0.00  0.00    +0.000 OA
ATOM      7  N   PRO A   2      -3.869   4.640 129.581  0.00  0.00    +0.000 N 
ATOM      8  CD  PRO A   2      -2.674   5.087 130.294  0.00  0.00    +0.000 C 
ATOM      9  CG  PRO A   2      -2.225   6.276 129.481  0.00  0.00    +0.000 C 
ATOM     10  CB  PRO A   2      -2.399   5.734 128.068  0.00  0.00    +0.000 C 
ATOM     11  CA  PRO A   2      -3.621   4.783 128.142  0.00  0.00    +0.000 C 
BRANCH  11  12
ATOM     12  C   PRO A   2      -3.282   3.461 127.440  0.00  0.00    +0.000 C 
ATOM     13  OXT PRO A   2      -3.051   3.386 126.248  0.00  0.00    +0.000 OA
BRANCH  12  14
ATOM     14  O   PRO A   2      -3.195   2.385 128.261  0.00  0.00    +0.000 OA
ATOM     15  H   PRO A   2      -2.982   2.650 129.180  0.00  0.00    +0.000 HD
ENDBRANCH  12  14
ENDBRANCH  11  12
ENDBRANCH   3   5
ENDBRANCH   1   3
BRANCH   1  16
ATOM     16  C   UNK A   0      -8.290   5.734 130.502  0.00  0.00    +0.000 C 
BRANCH  16  17
ATOM     17  C   UNK A   0      -8.956   4.937 129.281  0.00  0.00    +0.000 C 
ATOM     18  O   UNK A   0      -8.758   5.249 128.120  0.00  0.00    +0.000 OA
BRANCH  17  19
ATOM     19  O   UNK A   0      -9.815   3.922 129.636  0.00  0.00    +0.000 OA
BRANCH  19  21
ATOM     20  C   UNK A   0      -9.864   2.297 131.591  0.00  0.00    +0.000 C 
ATOM     21  C   UNK A   0      -9.268   2.684 130.206  0.00  0.00    +0.000 C 
ENDBRANCH  19  21
ENDBRANCH  17  19
ENDBRANCH  16  17
BRANCH  16  22
ATOM     22  C   UNK A   0      -9.170   6.983 130.706  0.00  0.00    +0.000 C 
BRANCH  22  23
ATOM     23  C   UNK A   0     -10.637   6.707 131.066  0.00  0.00    +0.000 C 
BRANCH  23  24
ATOM     24  C   UNK A   0     -11.515   7.237 129.975  0.00  0.00    +0.000 A 
ATOM     25  C   UNK A   0     -12.830   6.787 129.841  0.00  0.00    +0.000 A 
ATOM     26  C   UNK A   0     -13.536   7.078 128.680  0.00  0.00    +0.000 A 
ATOM     27  C   UNK A   0     -12.964   7.891 127.698  0.00  0.00    +0.000 A 
ATOM     28  C   UNK A   0     -11.676   8.395 127.862  0.00  0.00    +0.000 A 
ATOM     29  C   UNK A   0     -10.951   8.067 128.999  0.00  0.00    +0.000 A 
ENDBRANCH  23  24
ENDBRANCH  22  23
ENDBRANCH  16  22
ENDBRANCH   1  16
TORSDOF 11
ENDMDL
MODEL 9
REMARK VINA RESULT:      -6.5      4.496      8.962
REMARK  Name = Enalapril
REMARK  13 active torsions:
REMARK  status: ('A' for Active; 'I' for Inactive)
REMARK    1  A    between atoms: C_1  and  C_2
REMARK    2  A    between atoms: C_2  and  O_3
REMARK    3  A    between atoms: O_3  and  C_4
REMARK    4  A    between atoms: C_4  and  C_6
REMARK    5  A    between atoms: C_6  and  C_7
REMARK    6  A    between atoms: C_6  and  N_15
REMARK    7  A    between atoms: C_7  and  C_8
REMARK    8  A    between atoms: C_8  and  C_9
REMARK    9  A    between atoms: N_15  and  CA_16
REMARK   10  A    between atoms: CA_16  and  CB_17
REMARK   11  A    between atoms: CA_16  and  C_18
REMARK   12  A    between atoms: CA_24  and  C_25
REMARK   13  A    between atoms: C_25  and  O_26
REMARK                            x       y       z     vdW  Elec       q    Type
REMARK                         _______ _______ _______ _____ _____    ______ ____
ROOT
ATOM      1  N   ALA A   1      -9.199   2.923 129.289  0.00  0.00    +0.000 NA
ATOM      2  H   ALA A   1      -9.609   2.335 130.021  0.00  0.00    +0.000 HD
ENDROOT
BRANCH   1   3
ATOM      3  CA  ALA A   1      -8.753   4.143 130.001  0.00  0.00    +0.000 C 
ATOM      4  CB  ALA A   1      -7.286   4.139 129.974  0.00  0.00    +0.000 C 
BRANCH   3   5
ATOM      5  C   ALA A   1      -9.258   5.424 129.288  0.00  0.00    +0.000 C 
ATOM      6  O   ALA A   1      -8.998   5.662 128.106  0.00  0.00    +0.000 OA
ATOM      7  N   PRO A   2     -10.162   6.248 129.941  0.00  0.00    +0.000 N 
ATOM      8  CD  PRO A   2     -10.235   6.752 131.310  0.00  0.00    +0.000 C 
ATOM      9  CG  PRO A   2     -11.669   6.481 131.691  0.00  0.00    +0.000 C 
ATOM     10  CB  PRO A   2     -12.387   6.928 130.423  0.00  0.00    +0.000 C 
ATOM     11  CA  PRO A   2     -11.418   6.588 129.263  0.00  0.00    +0.000 C 
BRANCH  11  12
ATOM     12  C   PRO A   2     -11.304   7.796 128.322  0.00  0.00    +0.000 C 
ATOM     13  OXT PRO A   2     -12.237   8.205 127.656  0.00  0.00    +0.000 OA
BRANCH  12  14
ATOM     14  O   PRO A   2     -10.099   8.417 128.335  0.00  0.00    +0.000 OA
ATOM     15  H   PRO A   2      -9.972   8.973 127.537  0.00  0.00    +0.000 HD
ENDBRANCH  12  14
ENDBRANCH  11  12
ENDBRANCH   3   5
ENDBRANCH   1   3
BRANCH   1  16
ATOM     16  C   UNK A   0      -8.158   2.140 128.539  0.00  0.00    +0.000 C 
BRANCH  16  17
ATOM     17  C   UNK A   0      -8.197   2.171 126.937  0.00  0.00    +0.000 C 
ATOM     18  O   UNK A   0      -9.049   1.577 126.299  0.00  0.00    +0.000 OA
BRANCH  17  19
ATOM     19  O   UNK A   0      -7.167   2.857 126.333  0.00  0.00    +0.000 OA
BRANCH  19  21
ATOM     20  C   UNK A   0      -4.903   1.701 126.293  0.00  0.00    +0.000 C 
ATOM     21  C   UNK A   0      -6.190   2.118 125.523  0.00  0.00    +0.000 C 
ENDBRANCH  19  21
ENDBRANCH  17  19
ENDBRANCH  16  17
BRANCH  16  22
ATOM     22  C   UNK A   0      -8.194   0.647 128.923  0.00  0.00    +0.000 C 
BRANCH  22  23
ATOM     23  C   UNK A   0      -7.083  -0.220 128.313  0.00  0.00    +0.000 C 
BRANCH  23  24
ATOM     24  C   UNK A   0      -7.613  -1.601 128.081  0.00  0.00    +0.000 A 
ATOM     25  C   UNK A   0      -8.082  -1.980 126.822  0.00  0.00    +0.000 A 
ATOM     26  C   UNK A   0      -8.811  -3.155 126.690  0.00  0.00    +0.000 A 
ATOM     27  C   UNK A   0      -8.992  -3.994 127.792  0.00  0.00    +0.000 A 
ATOM     28  C   UNK A   0      -8.466  -3.648 129.036  0.00  0.00    +0.000 A 
ATOM     29  C   UNK A   0      -7.779  -2.452 129.181  0.00  0.00    +0.000 A 
ENDBRANCH  23  24
ENDBRANCH  22  23
ENDBRANCH  16  22
ENDBRANCH   1  16
TORSDOF 11
ENDMDL
