MODEL 1
REMARK VINA RESULT:      -9.4      0.000      0.000
REMARK  Name = Enasidenib
REMARK  9 active torsions:
REMARK  status: ('A' for Active; 'I' for Inactive)
REMARK    1  A    between atoms: C_1  and  C_2
REMARK    2  A    between atoms: C_2  and  C_3
REMARK    3  A    between atoms: C_2  and  O_4
REMARK    4  A    between atoms: C_2  and  C_5
REMARK    5  A    between atoms: C_5  and  N_6
REMARK    6  A    between atoms: C_9  and  C_24
REMARK    7  A    between atoms: N_12  and  C_13
REMARK    8  A    between atoms: C_15  and  C_19
REMARK    9  A    between atoms: C_26  and  C_30
REMARK                            x       y       z     vdW  Elec       q    Type
REMARK                         _______ _______ _______ _____ _____    ______ ____
ROOT
ATOM      1  N   UNL     1      -5.368   3.710 125.845  0.00  0.00    +0.000 N 
ATOM      2  C   UNL     1      -6.437   3.432 126.682  0.00  0.00    +0.000 A 
ATOM      3  N   UNL     1      -6.855   4.367 127.507  0.00  0.00    +0.000 NA
ATOM      4  C   UNL     1      -7.979   4.079 128.172  0.00  0.00    +0.000 A 
ATOM      5  N   UNL     1      -8.663   2.936 128.076  0.00  0.00    +0.000 NA
ATOM      6  C   UNL     1      -8.136   2.046 127.248  0.00  0.00    +0.000 A 
ATOM      7  N   UNL     1      -8.812   0.834 127.093  0.00  0.00    +0.000 N 
ATOM      8  N   UNL     1      -7.039   2.268 126.515  0.00  0.00    +0.000 NA
ATOM      9  H   UNL     1      -5.206   2.913 125.238  0.00  0.00    +0.000 HD
ATOM     10  H   UNL     1      -9.667   0.788 127.628  0.00  0.00    +0.000 HD
ENDROOT
BRANCH   7  11
ATOM     11  C   UNL     1      -8.394  -0.317 126.415  0.00  0.00    +0.000 A 
ATOM     12  C   UNL     1      -8.932  -0.672 125.174  0.00  0.00    +0.000 A 
ATOM     13  C   UNL     1      -8.507  -1.840 124.540  0.00  0.00    +0.000 A 
ATOM     14  N   UNL     1      -7.598  -2.677 125.119  0.00  0.00    +0.000 NA
ATOM     15  C   UNL     1      -7.109  -2.330 126.327  0.00  0.00    +0.000 A 
ATOM     16  C   UNL     1      -7.458  -1.168 126.995  0.00  0.00    +0.000 A 
BRANCH  13  17
ATOM     17  C   UNL     1      -9.050  -2.188 123.161  0.00  0.00    +0.000 C 
ATOM     18  F   UNL     1      -8.063  -2.432 122.250  0.00  0.00    +0.000 F 
ATOM     19  F   UNL     1      -9.846  -3.295 123.158  0.00  0.00    +0.000 F 
ATOM     20  F   UNL     1      -9.809  -1.194 122.608  0.00  0.00    +0.000 F 
ENDBRANCH  13  17
ENDBRANCH   7  11
BRANCH   4  21
ATOM     21  C   UNL     1      -8.461   5.138 129.076  0.00  0.00    +0.000 A 
ATOM     22  N   UNL     1      -9.357   6.020 128.557  0.00  0.00    +0.000 NA
ATOM     23  C   UNL     1      -9.967   6.906 129.398  0.00  0.00    +0.000 A 
ATOM     24  C   UNL     1      -9.684   6.941 130.764  0.00  0.00    +0.000 A 
ATOM     25  C   UNL     1      -8.739   6.062 131.281  0.00  0.00    +0.000 A 
ATOM     26  C   UNL     1      -8.122   5.149 130.431  0.00  0.00    +0.000 A 
BRANCH  23  27
ATOM     27  C   UNL     1     -10.997   7.862 128.815  0.00  0.00    +0.000 C 
ATOM     28  F   UNL     1     -10.439   8.839 128.046  0.00  0.00    +0.000 F 
ATOM     29  F   UNL     1     -11.919   7.238 128.027  0.00  0.00    +0.000 F 
ATOM     30  F   UNL     1     -11.722   8.520 129.769  0.00  0.00    +0.000 F 
ENDBRANCH  23  27
ENDBRANCH   4  21
BRANCH   1  31
ATOM     31  C   UNL     1      -4.148   4.165 126.514  0.00  0.00    +0.000 C 
BRANCH  31  33
ATOM     32  C   UNL     1      -3.445   2.758 128.507  0.00  0.00    +0.000 C 
ATOM     33  C   UNL     1      -3.325   2.935 126.990  0.00  0.00    +0.000 C 
ATOM     34  C   UNL     1      -1.853   3.084 126.601  0.00  0.00    +0.000 C 
BRANCH  33  35
ATOM     35  O   UNL     1      -3.848   1.757 126.357  0.00  0.00    +0.000 OA
ATOM     36  H   UNL     1      -3.125   1.109 126.286  0.00  0.00    +0.000 HD
ENDBRANCH  33  35
ENDBRANCH  31  33
ENDBRANCH   1  31
TORSDOF 7
ENDMDL
MODEL 2
REMARK VINA RESULT:      -8.9      3.643      4.606
REMARK  Name = Enasidenib
REMARK  9 active torsions:
REMARK  status: ('A' for Active; 'I' for Inactive)
REMARK    1  A    between atoms: C_1  and  C_2
REMARK    2  A    between atoms: C_2  and  C_3
REMARK    3  A    between atoms: C_2  and  O_4
REMARK    4  A    between atoms: C_2  and  C_5
REMARK    5  A    between atoms: C_5  and  N_6
REMARK    6  A    between atoms: C_9  and  C_24
REMARK    7  A    between atoms: N_12  and  C_13
REMARK    8  A    between atoms: C_15  and  C_19
REMARK    9  A    between atoms: C_26  and  C_30
REMARK                            x       y       z     vdW  Elec       q    Type
REMARK                         _______ _______ _______ _____ _____    ______ ____
ROOT
ATOM      1  N   UNL     1      -7.824   2.785 127.495  0.00  0.00    +0.000 N 
ATOM      2  C   UNL     1      -8.435   2.968 128.725  0.00  0.00    +0.000 A 
ATOM      3  N   UNL     1      -9.133   4.064 128.928  0.00  0.00    +0.000 NA
ATOM      4  C   UNL     1      -9.814   4.101 130.078  0.00  0.00    +0.000 A 
ATOM      5  N   UNL     1      -9.810   3.144 131.011  0.00  0.00    +0.000 NA
ATOM      6  C   UNL     1      -9.044   2.101 130.727  0.00  0.00    +0.000 A 
ATOM      7  N   UNL     1      -9.006   1.060 131.657  0.00  0.00    +0.000 N 
ATOM      8  N   UNL     1      -8.362   1.966 129.584  0.00  0.00    +0.000 NA
ATOM      9  H   UNL     1      -7.375   1.875 127.480  0.00  0.00    +0.000 HD
ATOM     10  H   UNL     1      -9.610   1.218 132.451  0.00  0.00    +0.000 HD
ENDROOT
BRANCH   7  11
ATOM     11  C   UNL     1      -8.171  -0.063 131.675  0.00  0.00    +0.000 A 
ATOM     12  C   UNL     1      -8.252  -1.052 130.690  0.00  0.00    +0.000 A 
ATOM     13  C   UNL     1      -7.418  -2.170 130.756  0.00  0.00    +0.000 A 
ATOM     14  N   UNL     1      -6.542  -2.347 131.786  0.00  0.00    +0.000 NA
ATOM     15  C   UNL     1      -6.496  -1.394 132.740  0.00  0.00    +0.000 A 
ATOM     16  C   UNL     1      -7.266  -0.244 132.717  0.00  0.00    +0.000 A 
BRANCH  13  17
ATOM     17  C   UNL     1      -7.467  -3.210 129.647  0.00  0.00    +0.000 C 
ATOM     18  F   UNL     1      -6.748  -4.333 129.942  0.00  0.00    +0.000 F 
ATOM     19  F   UNL     1      -8.730  -3.637 129.362  0.00  0.00    +0.000 F 
ATOM     20  F   UNL     1      -6.958  -2.764 128.458  0.00  0.00    +0.000 F 
ENDBRANCH  13  17
ENDBRANCH   7  11
BRANCH   4  21
ATOM     21  C   UNL     1     -10.618   5.317 130.292  0.00  0.00    +0.000 A 
ATOM     22  N   UNL     1     -11.115   5.921 129.180  0.00  0.00    +0.000 NA
ATOM     23  C   UNL     1     -12.009   6.942 129.333  0.00  0.00    +0.000 A 
ATOM     24  C   UNL     1     -12.410   7.390 130.592  0.00  0.00    +0.000 A 
ATOM     25  C   UNL     1     -11.869   6.792 131.725  0.00  0.00    +0.000 A 
ATOM     26  C   UNL     1     -10.966   5.744 131.576  0.00  0.00    +0.000 A 
BRANCH  23  27
ATOM     27  C   UNL     1     -12.590   7.586 128.082  0.00  0.00    +0.000 C 
ATOM     28  F   UNL     1     -13.887   7.974 128.238  0.00  0.00    +0.000 F 
ATOM     29  F   UNL     1     -11.906   8.697 127.687  0.00  0.00    +0.000 F 
ATOM     30  F   UNL     1     -12.587   6.754 126.998  0.00  0.00    +0.000 F 
ENDBRANCH  23  27
ENDBRANCH   4  21
BRANCH   1  31
ATOM     31  C   UNL     1      -6.927   3.862 127.074  0.00  0.00    +0.000 C 
BRANCH  31  33
ATOM     32  C   UNL     1      -7.926   3.394 124.787  0.00  0.00    +0.000 C 
ATOM     33  C   UNL     1      -7.447   4.486 125.748  0.00  0.00    +0.000 C 
ATOM     34  C   UNL     1      -6.355   5.323 125.078  0.00  0.00    +0.000 C 
BRANCH  33  35
ATOM     35  O   UNL     1      -8.560   5.343 126.048  0.00  0.00    +0.000 OA
ATOM     36  H   UNL     1      -9.212   4.823 126.550  0.00  0.00    +0.000 HD
ENDBRANCH  33  35
ENDBRANCH  31  33
ENDBRANCH   1  31
TORSDOF 7
ENDMDL
MODEL 3
REMARK VINA RESULT:      -8.7      1.921      2.363
REMARK  Name = Enasidenib
REMARK  9 active torsions:
REMARK  status: ('A' for Active; 'I' for Inactive)
REMARK    1  A    between atoms: C_1  and  C_2
REMARK    2  A    between atoms: C_2  and  C_3
REMARK    3  A    between atoms: C_2  and  O_4
REMARK    4  A    between atoms: C_2  and  C_5
REMARK    5  A    between atoms: C_5  and  N_6
REMARK    6  A    between atoms: C_9  and  C_24
REMARK    7  A    between atoms: N_12  and  C_13
REMARK    8  A    between atoms: C_15  and  C_19
REMARK    9  A    between atoms: C_26  and  C_30
REMARK                            x       y       z     vdW  Elec       q    Type
REMARK                         _______ _______ _______ _____ _____    ______ ____
ROOT
ATOM      1  N   UNL     1      -4.719   3.869 128.196  0.00  0.00    +0.000 N 
ATOM      2  C   UNL     1      -6.085   3.650 128.292  0.00  0.00    +0.000 A 
ATOM      3  N   UNL     1      -6.845   4.599 128.793  0.00  0.00    +0.000 NA
ATOM      4  C   UNL     1      -8.160   4.375 128.714  0.00  0.00    +0.000 A 
ATOM      5  N   UNL     1      -8.730   3.281 128.203  0.00  0.00    +0.000 NA
ATOM      6  C   UNL     1      -7.875   2.370 127.762  0.00  0.00    +0.000 A 
ATOM      7  N   UNL     1      -8.408   1.206 127.203  0.00  0.00    +0.000 N 
ATOM      8  N   UNL     1      -6.547   2.529 127.766  0.00  0.00    +0.000 NA
ATOM      9  H   UNL     1      -4.286   3.072 127.742  0.00  0.00    +0.000 HD
ATOM     10  H   UNL     1      -9.418   1.209 127.175  0.00  0.00    +0.000 HD
ENDROOT
BRANCH   7  11
ATOM     11  C   UNL     1      -7.740   0.040 126.813  0.00  0.00    +0.000 A 
ATOM     12  C   UNL     1      -7.485  -0.244 125.469  0.00  0.00    +0.000 A 
ATOM     13  C   UNL     1      -6.837  -1.430 125.118  0.00  0.00    +0.000 A 
ATOM     14  N   UNL     1      -6.472  -2.349 126.058  0.00  0.00    +0.000 NA
ATOM     15  C   UNL     1      -6.749  -2.068 127.349  0.00  0.00    +0.000 A 
ATOM     16  C   UNL     1      -7.355  -0.896 127.769  0.00  0.00    +0.000 A 
BRANCH  13  17
ATOM     17  C   UNL     1      -6.506  -1.703 123.659  0.00  0.00    +0.000 C 
ATOM     18  F   UNL     1      -6.445  -0.564 122.907  0.00  0.00    +0.000 F 
ATOM     19  F   UNL     1      -5.309  -2.332 123.485  0.00  0.00    +0.000 F 
ATOM     20  F   UNL     1      -7.427  -2.495 123.030  0.00  0.00    +0.000 F 
ENDBRANCH  13  17
ENDBRANCH   7  11
BRANCH   4  21
ATOM     21  C   UNL     1      -9.012   5.451 129.252  0.00  0.00    +0.000 A 
ATOM     22  N   UNL     1      -9.718   6.179 128.346  0.00  0.00    +0.000 NA
ATOM     23  C   UNL     1     -10.653   7.063 128.801  0.00  0.00    +0.000 A 
ATOM     24  C   UNL     1     -10.890   7.251 130.162  0.00  0.00    +0.000 A 
ATOM     25  C   UNL     1     -10.138   6.532 131.084  0.00  0.00    +0.000 A 
ATOM     26  C   UNL     1      -9.191   5.620 130.627  0.00  0.00    +0.000 A 
BRANCH  23  27
ATOM     27  C   UNL     1     -11.465   7.844 127.778  0.00  0.00    +0.000 C 
ATOM     28  F   UNL     1     -12.415   7.085 127.162  0.00  0.00    +0.000 F 
ATOM     29  F   UNL     1     -12.123   8.910 128.319  0.00  0.00    +0.000 F 
ATOM     30  F   UNL     1     -10.704   8.363 126.769  0.00  0.00    +0.000 F 
ENDBRANCH  23  27
ENDBRANCH   4  21
BRANCH   1  31
ATOM     31  C   UNL     1      -4.054   4.235 129.448  0.00  0.00    +0.000 C 
BRANCH  31  33
ATOM     32  C   UNL     1      -2.552   5.754 128.076  0.00  0.00    +0.000 C 
ATOM     33  C   UNL     1      -3.443   5.658 129.318  0.00  0.00    +0.000 C 
ATOM     34  C   UNL     1      -2.632   6.017 130.565  0.00  0.00    +0.000 C 
BRANCH  33  35
ATOM     35  O   UNL     1      -4.512   6.608 129.179  0.00  0.00    +0.000 OA
ATOM     36  H   UNL     1      -4.448   7.004 128.293  0.00  0.00    +0.000 HD
ENDBRANCH  33  35
ENDBRANCH  31  33
ENDBRANCH   1  31
TORSDOF 7
ENDMDL
MODEL 4
REMARK VINA RESULT:      -8.6      5.031      8.130
REMARK  Name = Enasidenib
REMARK  9 active torsions:
REMARK  status: ('A' for Active; 'I' for Inactive)
REMARK    1  A    between atoms: C_1  and  C_2
REMARK    2  A    between atoms: C_2  and  C_3
REMARK    3  A    between atoms: C_2  and  O_4
REMARK    4  A    between atoms: C_2  and  C_5
REMARK    5  A    between atoms: C_5  and  N_6
REMARK    6  A    between atoms: C_9  and  C_24
REMARK    7  A    between atoms: N_12  and  C_13
REMARK    8  A    between atoms: C_15  and  C_19
REMARK    9  A    between atoms: C_26  and  C_30
REMARK                            x       y       z     vdW  Elec       q    Type
REMARK                         _______ _______ _______ _____ _____    ______ ____
ROOT
ATOM      1  N   UNL     1      -4.932   4.548 128.095  0.00  0.00    +0.000 N 
ATOM      2  C   UNL     1      -5.038   5.291 129.261  0.00  0.00    +0.000 A 
ATOM      3  N   UNL     1      -3.938   5.662 129.878  0.00  0.00    +0.000 NA
ATOM      4  C   UNL     1      -4.116   6.498 130.906  0.00  0.00    +0.000 A 
ATOM      5  N   UNL     1      -5.296   6.942 131.347  0.00  0.00    +0.000 NA
ATOM      6  C   UNL     1      -6.343   6.477 130.681  0.00  0.00    +0.000 A 
ATOM      7  N   UNL     1      -7.606   6.913 131.085  0.00  0.00    +0.000 N 
ATOM      8  N   UNL     1      -6.253   5.670 129.618  0.00  0.00    +0.000 NA
ATOM      9  H   UNL     1      -5.860   4.391 127.716  0.00  0.00    +0.000 HD
ATOM     10  H   UNL     1      -7.570   7.578 131.846  0.00  0.00    +0.000 HD
ENDROOT
BRANCH   7  11
ATOM     11  C   UNL     1      -8.862   6.462 130.663  0.00  0.00    +0.000 A 
ATOM     12  C   UNL     1      -9.714   7.270 129.903  0.00  0.00    +0.000 A 
ATOM     13  C   UNL     1     -10.968   6.792 129.521  0.00  0.00    +0.000 A 
ATOM     14  N   UNL     1     -11.409   5.559 129.902  0.00  0.00    +0.000 NA
ATOM     15  C   UNL     1     -10.583   4.804 130.655  0.00  0.00    +0.000 A 
ATOM     16  C   UNL     1      -9.312   5.200 131.038  0.00  0.00    +0.000 A 
BRANCH  13  17
ATOM     17  C   UNL     1     -11.864   7.652 128.642  0.00  0.00    +0.000 C 
ATOM     18  F   UNL     1     -12.848   8.285 129.346  0.00  0.00    +0.000 F 
ATOM     19  F   UNL     1     -11.188   8.633 127.977  0.00  0.00    +0.000 F 
ATOM     20  F   UNL     1     -12.519   6.943 127.673  0.00  0.00    +0.000 F 
ENDBRANCH  13  17
ENDBRANCH   7  11
BRANCH   4  21
ATOM     21  C   UNL     1      -2.880   6.935 131.579  0.00  0.00    +0.000 A 
ATOM     22  N   UNL     1      -2.868   8.206 132.063  0.00  0.00    +0.000 NA
ATOM     23  C   UNL     1      -1.822   8.598 132.849  0.00  0.00    +0.000 A 
ATOM     24  C   UNL     1      -0.764   7.740 133.151  0.00  0.00    +0.000 A 
ATOM     25  C   UNL     1      -0.764   6.455 132.622  0.00  0.00    +0.000 A 
ATOM     26  C   UNL     1      -1.833   6.045 131.830  0.00  0.00    +0.000 A 
BRANCH  23  27
ATOM     27  C   UNL     1      -1.837  10.009 133.418  0.00  0.00    +0.000 C 
ATOM     28  F   UNL     1      -2.642  10.133 134.511  0.00  0.00    +0.000 F 
ATOM     29  F   UNL     1      -0.602  10.442 133.805  0.00  0.00    +0.000 F 
ATOM     30  F   UNL     1      -2.286  10.944 132.529  0.00  0.00    +0.000 F 
ENDBRANCH  23  27
ENDBRANCH   4  21
BRANCH   1  31
ATOM     31  C   UNL     1      -4.152   3.315 128.206  0.00  0.00    +0.000 C 
BRANCH  31  33
ATOM     32  C   UNL     1      -1.996   3.084 126.886  0.00  0.00    +0.000 C 
ATOM     33  C   UNL     1      -3.522   2.970 126.827  0.00  0.00    +0.000 C 
ATOM     34  C   UNL     1      -4.067   3.893 125.735  0.00  0.00    +0.000 C 
BRANCH  33  35
ATOM     35  O   UNL     1      -3.860   1.615 126.491  0.00  0.00    +0.000 OA
ATOM     36  H   UNL     1      -3.191   1.032 126.890  0.00  0.00    +0.000 HD
ENDBRANCH  33  35
ENDBRANCH  31  33
ENDBRANCH   1  31
TORSDOF 7
ENDMDL
MODEL 5
REMARK VINA RESULT:      -8.5      2.871      3.849
REMARK  Name = Enasidenib
REMARK  9 active torsions:
REMARK  status: ('A' for Active; 'I' for Inactive)
REMARK    1  A    between atoms: C_1  and  C_2
REMARK    2  A    between atoms: C_2  and  C_3
REMARK    3  A    between atoms: C_2  and  O_4
REMARK    4  A    between atoms: C_2  and  C_5
REMARK    5  A    between atoms: C_5  and  N_6
REMARK    6  A    between atoms: C_9  and  C_24
REMARK    7  A    between atoms: N_12  and  C_13
REMARK    8  A    between atoms: C_15  and  C_19
REMARK    9  A    between atoms: C_26  and  C_30
REMARK                            x       y       z     vdW  Elec       q    Type
REMARK                         _______ _______ _______ _____ _____    ______ ____
ROOT
ATOM      1  N   UNL     1      -6.635  -0.325 129.798  0.00  0.00    +0.000 N 
ATOM      2  C   UNL     1      -7.422   0.629 129.172  0.00  0.00    +0.000 A 
ATOM      3  N   UNL     1      -7.885   1.633 129.883  0.00  0.00    +0.000 NA
ATOM      4  C   UNL     1      -8.507   2.588 129.183  0.00  0.00    +0.000 A 
ATOM      5  N   UNL     1      -8.703   2.575 127.861  0.00  0.00    +0.000 NA
ATOM      6  C   UNL     1      -8.232   1.500 127.245  0.00  0.00    +0.000 A 
ATOM      7  N   UNL     1      -8.394   1.432 125.860  0.00  0.00    +0.000 N 
ATOM      8  N   UNL     1      -7.564   0.520 127.862  0.00  0.00    +0.000 NA
ATOM      9  H   UNL     1      -6.314  -0.996 129.107  0.00  0.00    +0.000 HD
ATOM     10  H   UNL     1      -8.841   2.251 125.474  0.00  0.00    +0.000 HD
ENDROOT
BRANCH   7  11
ATOM     11  C   UNL     1      -8.135   0.356 125.003  0.00  0.00    +0.000 A 
ATOM     12  C   UNL     1      -8.773  -0.877 125.162  0.00  0.00    +0.000 A 
ATOM     13  C   UNL     1      -8.469  -1.934 124.301  0.00  0.00    +0.000 A 
ATOM     14  N   UNL     1      -7.529  -1.808 123.320  0.00  0.00    +0.000 NA
ATOM     15  C   UNL     1      -6.907  -0.618 123.199  0.00  0.00    +0.000 A 
ATOM     16  C   UNL     1      -7.186   0.482 123.992  0.00  0.00    +0.000 A 
BRANCH  13  17
ATOM     17  C   UNL     1      -9.213  -3.254 124.440  0.00  0.00    +0.000 C 
ATOM     18  F   UNL     1     -10.056  -3.277 125.514  0.00  0.00    +0.000 F 
ATOM     19  F   UNL     1      -9.980  -3.558 123.354  0.00  0.00    +0.000 F 
ATOM     20  F   UNL     1      -8.387  -4.330 124.612  0.00  0.00    +0.000 F 
ENDBRANCH  13  17
ENDBRANCH   7  11
BRANCH   4  21
ATOM     21  C   UNL     1      -9.002   3.726 129.977  0.00  0.00    +0.000 A 
ATOM     22  N   UNL     1      -9.591   4.739 129.287  0.00  0.00    +0.000 NA
ATOM     23  C   UNL     1     -10.224   5.727 129.986  0.00  0.00    +0.000 A 
ATOM     24  C   UNL     1     -10.266   5.733 131.380  0.00  0.00    +0.000 A 
ATOM     25  C   UNL     1      -9.629   4.715 132.080  0.00  0.00    +0.000 A 
ATOM     26  C   UNL     1      -8.993   3.699 131.374  0.00  0.00    +0.000 A 
BRANCH  23  27
ATOM     27  C   UNL     1     -10.915   6.835 129.204  0.00  0.00    +0.000 C 
ATOM     28  F   UNL     1     -12.130   6.461 128.713  0.00  0.00    +0.000 F 
ATOM     29  F   UNL     1     -11.134   7.957 129.948  0.00  0.00    +0.000 F 
ATOM     30  F   UNL     1     -10.198   7.255 128.119  0.00  0.00    +0.000 F 
ENDBRANCH  23  27
ENDBRANCH   4  21
BRANCH   1  31
ATOM     31  C   UNL     1      -7.238  -0.966 130.968  0.00  0.00    +0.000 C 
BRANCH  31  33
ATOM     32  C   UNL     1      -5.706  -2.949 130.559  0.00  0.00    +0.000 C 
ATOM     33  C   UNL     1      -7.150  -2.511 130.819  0.00  0.00    +0.000 C 
ATOM     34  C   UNL     1      -8.051  -2.999 129.683  0.00  0.00    +0.000 C 
BRANCH  33  35
ATOM     35  O   UNL     1      -7.591  -3.118 132.044  0.00  0.00    +0.000 OA
ATOM     36  H   UNL     1      -8.238  -2.521 132.458  0.00  0.00    +0.000 HD
ENDBRANCH  33  35
ENDBRANCH  31  33
ENDBRANCH   1  31
TORSDOF 7
ENDMDL
MODEL 6
REMARK VINA RESULT:      -8.5      2.801      3.646
REMARK  Name = Enasidenib
REMARK  9 active torsions:
REMARK  status: ('A' for Active; 'I' for Inactive)
REMARK    1  A    between atoms: C_1  and  C_2
REMARK    2  A    between atoms: C_2  and  C_3
REMARK    3  A    between atoms: C_2  and  O_4
REMARK    4  A    between atoms: C_2  and  C_5
REMARK    5  A    between atoms: C_5  and  N_6
REMARK    6  A    between atoms: C_9  and  C_24
REMARK    7  A    between atoms: N_12  and  C_13
REMARK    8  A    between atoms: C_15  and  C_19
REMARK    9  A    between atoms: C_26  and  C_30
REMARK                            x       y       z     vdW  Elec       q    Type
REMARK                         _______ _______ _______ _____ _____    ______ ____
ROOT
ATOM      1  N   UNL     1      -6.478   1.151 130.975  0.00  0.00    +0.000 N 
ATOM      2  C   UNL     1      -7.151   1.819 129.963  0.00  0.00    +0.000 A 
ATOM      3  N   UNL     1      -7.690   2.989 130.227  0.00  0.00    +0.000 NA
ATOM      4  C   UNL     1      -8.189   3.638 129.169  0.00  0.00    +0.000 A 
ATOM      5  N   UNL     1      -8.198   3.180 127.915  0.00  0.00    +0.000 NA
ATOM      6  C   UNL     1      -7.666   1.975 127.764  0.00  0.00    +0.000 A 
ATOM      7  N   UNL     1      -7.633   1.445 126.472  0.00  0.00    +0.000 N 
ATOM      8  N   UNL     1      -7.110   1.276 128.759  0.00  0.00    +0.000 NA
ATOM      9  H   UNL     1      -6.077   0.298 130.599  0.00  0.00    +0.000 HD
ATOM     10  H   UNL     1      -8.006   2.076 125.777  0.00  0.00    +0.000 HD
ENDROOT
BRANCH   7  11
ATOM     11  C   UNL     1      -7.277   0.153 126.069  0.00  0.00    +0.000 A 
ATOM     12  C   UNL     1      -8.152  -0.927 126.213  0.00  0.00    +0.000 A 
ATOM     13  C   UNL     1      -7.750  -2.205 125.820  0.00  0.00    +0.000 A 
ATOM     14  N   UNL     1      -6.500  -2.441 125.327  0.00  0.00    +0.000 NA
ATOM     15  C   UNL     1      -5.662  -1.390 125.219  0.00  0.00    +0.000 A 
ATOM     16  C   UNL     1      -6.007  -0.091 125.554  0.00  0.00    +0.000 A 
BRANCH  13  17
ATOM     17  C   UNL     1      -8.730  -3.365 125.920  0.00  0.00    +0.000 C 
ATOM     18  F   UNL     1      -8.635  -4.037 127.105  0.00  0.00    +0.000 F 
ATOM     19  F   UNL     1     -10.034  -2.982 125.810  0.00  0.00    +0.000 F 
ATOM     20  F   UNL     1      -8.549  -4.317 124.955  0.00  0.00    +0.000 F 
ENDBRANCH  13  17
ENDBRANCH   7  11
BRANCH   4  21
ATOM     21  C   UNL     1      -8.769   4.960 129.462  0.00  0.00    +0.000 A 
ATOM     22  N   UNL     1      -9.379   5.598 128.428  0.00  0.00    +0.000 NA
ATOM     23  C   UNL     1     -10.086   6.738 128.686  0.00  0.00    +0.000 A 
ATOM     24  C   UNL     1     -10.182   7.271 129.972  0.00  0.00    +0.000 A 
ATOM     25  C   UNL     1      -9.525   6.633 131.018  0.00  0.00    +0.000 A 
ATOM     26  C   UNL     1      -8.813   5.465 130.764  0.00  0.00    +0.000 A 
BRANCH  23  27
ATOM     27  C   UNL     1     -10.798   7.424 127.530  0.00  0.00    +0.000 C 
ATOM     28  F   UNL     1     -10.248   7.129 126.317  0.00  0.00    +0.000 F 
ATOM     29  F   UNL     1     -12.117   7.089 127.440  0.00  0.00    +0.000 F 
ATOM     30  F   UNL     1     -10.776   8.788 127.616  0.00  0.00    +0.000 F 
ENDBRANCH  23  27
ENDBRANCH   4  21
BRANCH   1  31
ATOM     31  C   UNL     1      -7.251   0.919 132.195  0.00  0.00    +0.000 C 
BRANCH  31  33
ATOM     32  C   UNL     1      -7.364   2.832 133.861  0.00  0.00    +0.000 C 
ATOM     33  C   UNL     1      -6.554   1.619 133.396  0.00  0.00    +0.000 C 
ATOM     34  C   UNL     1      -5.136   2.057 133.019  0.00  0.00    +0.000 C 
BRANCH  33  35
ATOM     35  O   UNL     1      -6.468   0.688 134.486  0.00  0.00    +0.000 OA
ATOM     36  H   UNL     1      -6.727   1.155 135.300  0.00  0.00    +0.000 HD
ENDBRANCH  33  35
ENDBRANCH  31  33
ENDBRANCH   1  31
TORSDOF 7
ENDMDL
MODEL 7
REMARK VINA RESULT:      -8.5      5.023      6.705
REMARK  Name = Enasidenib
REMARK  9 active torsions:
REMARK  status: ('A' for Active; 'I' for Inactive)
REMARK    1  A    between atoms: C_1  and  C_2
REMARK    2  A    between atoms: C_2  and  C_3
REMARK    3  A    between atoms: C_2  and  O_4
REMARK    4  A    between atoms: C_2  and  C_5
REMARK    5  A    between atoms: C_5  and  N_6
REMARK    6  A    between atoms: C_9  and  C_24
REMARK    7  A    between atoms: N_12  and  C_13
REMARK    8  A    between atoms: C_15  and  C_19
REMARK    9  A    between atoms: C_26  and  C_30
REMARK                            x       y       z     vdW  Elec       q    Type
REMARK                         _______ _______ _______ _____ _____    ______ ____
ROOT
ATOM      1  N   UNL     1      -4.107   1.741 127.793  0.00  0.00    +0.000 N 
ATOM      2  C   UNL     1      -5.315   1.358 127.231  0.00  0.00    +0.000 A 
ATOM      3  N   UNL     1      -5.745   1.990 126.161  0.00  0.00    +0.000 NA
ATOM      4  C   UNL     1      -6.836   1.468 125.592  0.00  0.00    +0.000 A 
ATOM      5  N   UNL     1      -7.508   0.403 126.038  0.00  0.00    +0.000 NA
ATOM      6  C   UNL     1      -7.016  -0.135 127.144  0.00  0.00    +0.000 A 
ATOM      7  N   UNL     1      -7.666  -1.260 127.656  0.00  0.00    +0.000 N 
ATOM      8  N   UNL     1      -5.907   0.299 127.755  0.00  0.00    +0.000 NA
ATOM      9  H   UNL     1      -3.893   1.126 128.571  0.00  0.00    +0.000 HD
ATOM     10  H   UNL     1      -8.445  -1.558 127.086  0.00  0.00    +0.000 HD
ENDROOT
BRANCH   7  11
ATOM     11  C   UNL     1      -7.450  -1.914 128.874  0.00  0.00    +0.000 A 
ATOM     12  C   UNL     1      -7.741  -1.301 130.096  0.00  0.00    +0.000 A 
ATOM     13  C   UNL     1      -7.489  -1.978 131.291  0.00  0.00    +0.000 A 
ATOM     14  N   UNL     1      -6.926  -3.220 131.303  0.00  0.00    +0.000 NA
ATOM     15  C   UNL     1      -6.629  -3.784 130.114  0.00  0.00    +0.000 A 
ATOM     16  C   UNL     1      -6.887  -3.187 128.892  0.00  0.00    +0.000 A 
BRANCH  13  17
ATOM     17  C   UNL     1      -7.867  -1.331 132.615  0.00  0.00    +0.000 C 
ATOM     18  F   UNL     1      -8.576  -2.167 133.430  0.00  0.00    +0.000 F 
ATOM     19  F   UNL     1      -6.789  -0.922 133.344  0.00  0.00    +0.000 F 
ATOM     20  F   UNL     1      -8.652  -0.220 132.475  0.00  0.00    +0.000 F 
ENDBRANCH  13  17
ENDBRANCH   7  11
BRANCH   4  21
ATOM     21  C   UNL     1      -7.301   2.161 124.377  0.00  0.00    +0.000 A 
ATOM     22  N   UNL     1      -6.348   2.769 123.621  0.00  0.00    +0.000 NA
ATOM     23  C   UNL     1      -6.700   3.268 122.400  0.00  0.00    +0.000 A 
ATOM     24  C   UNL     1      -8.006   3.186 121.918  0.00  0.00    +0.000 A 
ATOM     25  C   UNL     1      -8.984   2.597 122.712  0.00  0.00    +0.000 A 
ATOM     26  C   UNL     1      -8.629   2.076 123.953  0.00  0.00    +0.000 A 
BRANCH  23  27
ATOM     27  C   UNL     1      -5.618   3.912 121.544  0.00  0.00    +0.000 C 
ATOM     28  F   UNL     1      -4.726   4.638 122.275  0.00  0.00    +0.000 F 
ATOM     29  F   UNL     1      -4.883   3.004 120.840  0.00  0.00    +0.000 F 
ATOM     30  F   UNL     1      -6.114   4.778 120.612  0.00  0.00    +0.000 F 
ENDBRANCH  23  27
ENDBRANCH   4  21
BRANCH   1  31
ATOM     31  C   UNL     1      -4.002   3.157 128.149  0.00  0.00    +0.000 C 
BRANCH  31  33
ATOM     32  C   UNL     1      -1.815   2.953 126.874  0.00  0.00    +0.000 C 
ATOM     33  C   UNL     1      -3.006   3.864 127.187  0.00  0.00    +0.000 C 
ATOM     34  C   UNL     1      -2.507   5.178 127.794  0.00  0.00    +0.000 C 
BRANCH  33  35
ATOM     35  O   UNL     1      -3.684   4.159 125.956  0.00  0.00    +0.000 OA
ATOM     36  H   UNL     1      -3.904   5.107 125.955  0.00  0.00    +0.000 HD
ENDBRANCH  33  35
ENDBRANCH  31  33
ENDBRANCH   1  31
TORSDOF 7
ENDMDL
MODEL 8
REMARK VINA RESULT:      -8.3      5.356      8.707
REMARK  Name = Enasidenib
REMARK  9 active torsions:
REMARK  status: ('A' for Active; 'I' for Inactive)
REMARK    1  A    between atoms: C_1  and  C_2
REMARK    2  A    between atoms: C_2  and  C_3
REMARK    3  A    between atoms: C_2  and  O_4
REMARK    4  A    between atoms: C_2  and  C_5
REMARK    5  A    between atoms: C_5  and  N_6
REMARK    6  A    between atoms: C_9  and  C_24
REMARK    7  A    between atoms: N_12  and  C_13
REMARK    8  A    between atoms: C_15  and  C_19
REMARK    9  A    between atoms: C_26  and  C_30
REMARK                            x       y       z     vdW  Elec       q    Type
REMARK                         _______ _______ _______ _____ _____    ______ ____
ROOT
ATOM      1  N   UNL     1      -7.009   2.579 130.627  0.00  0.00    +0.000 N 
ATOM      2  C   UNL     1      -6.637   3.877 130.944  0.00  0.00    +0.000 A 
ATOM      3  N   UNL     1      -5.390   4.112 131.288  0.00  0.00    +0.000 NA
ATOM      4  C   UNL     1      -5.072   5.402 131.432  0.00  0.00    +0.000 A 
ATOM      5  N   UNL     1      -5.915   6.428 131.281  0.00  0.00    +0.000 NA
ATOM      6  C   UNL     1      -7.156   6.081 130.974  0.00  0.00    +0.000 A 
ATOM      7  N   UNL     1      -8.083   7.108 130.791  0.00  0.00    +0.000 N 
ATOM      8  N   UNL     1      -7.549   4.818 130.772  0.00  0.00    +0.000 NA
ATOM      9  H   UNL     1      -7.980   2.576 130.332  0.00  0.00    +0.000 HD
ATOM     10  H   UNL     1      -7.678   8.028 130.889  0.00  0.00    +0.000 HD
ENDROOT
BRANCH   7  11
ATOM     11  C   UNL     1      -9.469   7.012 130.619  0.00  0.00    +0.000 A 
ATOM     12  C   UNL     1     -10.112   7.582 129.516  0.00  0.00    +0.000 A 
ATOM     13  C   UNL     1     -11.499   7.485 129.393  0.00  0.00    +0.000 A 
ATOM     14  N   UNL     1     -12.260   6.876 130.347  0.00  0.00    +0.000 NA
ATOM     15  C   UNL     1     -11.624   6.354 131.416  0.00  0.00    +0.000 A 
ATOM     16  C   UNL     1     -10.250   6.381 131.584  0.00  0.00    +0.000 A 
BRANCH  13  17
ATOM     17  C   UNL     1     -12.186   8.052 128.159  0.00  0.00    +0.000 C 
ATOM     18  F   UNL     1     -13.018   9.095 128.448  0.00  0.00    +0.000 F 
ATOM     19  F   UNL     1     -11.312   8.517 127.221  0.00  0.00    +0.000 F 
ATOM     20  F   UNL     1     -12.969   7.141 127.504  0.00  0.00    +0.000 F 
ENDBRANCH  13  17
ENDBRANCH   7  11
BRANCH   4  21
ATOM     21  C   UNL     1      -3.668   5.666 131.791  0.00  0.00    +0.000 A 
ATOM     22  N   UNL     1      -3.355   6.947 132.124  0.00  0.00    +0.000 NA
ATOM     23  C   UNL     1      -2.115   7.207 132.635  0.00  0.00    +0.000 A 
ATOM     24  C   UNL     1      -1.162   6.203 132.806  0.00  0.00    +0.000 A 
ATOM     25  C   UNL     1      -1.476   4.902 132.429  0.00  0.00    +0.000 A 
ATOM     26  C   UNL     1      -2.741   4.628 131.918  0.00  0.00    +0.000 A 
BRANCH  23  27
ATOM     27  C   UNL     1      -1.788   8.637 133.041  0.00  0.00    +0.000 C 
ATOM     28  F   UNL     1      -2.426   9.566 132.273  0.00  0.00    +0.000 F 
ATOM     29  F   UNL     1      -2.124   8.916 134.333  0.00  0.00    +0.000 F 
ATOM     30  F   UNL     1      -0.458   8.934 132.940  0.00  0.00    +0.000 F 
ENDBRANCH  23  27
ENDBRANCH   4  21
BRANCH   1  31
ATOM     31  C   UNL     1      -6.729   1.577 131.656  0.00  0.00    +0.000 C 
BRANCH  31  33
ATOM     32  C   UNL     1      -8.211  -0.206 130.621  0.00  0.00    +0.000 C 
ATOM     33  C   UNL     1      -7.976   0.671 131.855  0.00  0.00    +0.000 C 
ATOM     34  C   UNL     1      -9.222   1.515 132.134  0.00  0.00    +0.000 C 
BRANCH  33  35
ATOM     35  O   UNL     1      -7.746  -0.190 132.981  0.00  0.00    +0.000 OA
ATOM     36  H   UNL     1      -7.223   0.306 133.635  0.00  0.00    +0.000 HD
ENDBRANCH  33  35
ENDBRANCH  31  33
ENDBRANCH   1  31
TORSDOF 7
ENDMDL
MODEL 9
REMARK VINA RESULT:      -8.3      4.141      6.118
REMARK  Name = Enasidenib
REMARK  9 active torsions:
REMARK  status: ('A' for Active; 'I' for Inactive)
REMARK    1  A    between atoms: C_1  and  C_2
REMARK    2  A    between atoms: C_2  and  C_3
REMARK    3  A    between atoms: C_2  and  O_4
REMARK    4  A    between atoms: C_2  and  C_5
REMARK    5  A    between atoms: C_5  and  N_6
REMARK    6  A    between atoms: C_9  and  C_24
REMARK    7  A    between atoms: N_12  and  C_13
REMARK    8  A    between atoms: C_15  and  C_19
REMARK    9  A    between atoms: C_26  and  C_30
REMARK                            x       y       z     vdW  Elec       q    Type
REMARK                         _______ _______ _______ _____ _____    ______ ____
ROOT
ATOM      1  N   UNL     1      -8.828   4.127 129.637  0.00  0.00    +0.000 N 
ATOM      2  C   UNL     1      -7.661   3.958 128.908  0.00  0.00    +0.000 A 
ATOM      3  N   UNL     1      -6.629   4.726 129.178  0.00  0.00    +0.000 NA
ATOM      4  C   UNL     1      -5.498   4.406 128.541  0.00  0.00    +0.000 A 
ATOM      5  N   UNL     1      -5.361   3.410 127.662  0.00  0.00    +0.000 NA
ATOM      6  C   UNL     1      -6.470   2.722 127.431  0.00  0.00    +0.000 A 
ATOM      7  N   UNL     1      -6.390   1.659 126.529  0.00  0.00    +0.000 N 
ATOM      8  N   UNL     1      -7.632   2.950 128.053  0.00  0.00    +0.000 NA
ATOM      9  H   UNL     1      -9.504   3.427 129.348  0.00  0.00    +0.000 HD
ATOM     10  H   UNL     1      -5.458   1.516 126.169  0.00  0.00    +0.000 HD
ENDROOT
BRANCH   7  11
ATOM     11  C   UNL     1      -7.429   0.885 125.998  0.00  0.00    +0.000 A 
ATOM     12  C   UNL     1      -8.262   1.372 124.987  0.00  0.00    +0.000 A 
ATOM     13  C   UNL     1      -9.302   0.579 124.500  0.00  0.00    +0.000 A 
ATOM     14  N   UNL     1      -9.557  -0.659 125.014  0.00  0.00    +0.000 NA
ATOM     15  C   UNL     1      -8.758  -1.101 126.006  0.00  0.00    +0.000 A 
ATOM     16  C   UNL     1      -7.686  -0.383 126.510  0.00  0.00    +0.000 A 
BRANCH  13  17
ATOM     17  C   UNL     1     -10.165   1.090 123.356  0.00  0.00    +0.000 C 
ATOM     18  F   UNL     1     -11.435   1.403 123.749  0.00  0.00    +0.000 F 
ATOM     19  F   UNL     1      -9.667   2.214 122.764  0.00  0.00    +0.000 F 
ATOM     20  F   UNL     1     -10.318   0.185 122.342  0.00  0.00    +0.000 F 
ENDBRANCH  13  17
ENDBRANCH   7  11
BRANCH   4  21
ATOM     21  C   UNL     1      -4.335   5.250 128.865  0.00  0.00    +0.000 A 
ATOM     22  N   UNL     1      -3.799   5.098 130.106  0.00  0.00    +0.000 NA
ATOM     23  C   UNL     1      -2.619   5.723 130.391  0.00  0.00    +0.000 A 
ATOM     24  C   UNL     1      -1.962   6.522 129.455  0.00  0.00    +0.000 A 
ATOM     25  C   UNL     1      -2.534   6.704 128.202  0.00  0.00    +0.000 A 
ATOM     26  C   UNL     1      -3.731   6.061 127.901  0.00  0.00    +0.000 A 
BRANCH  23  27
ATOM     27  C   UNL     1      -2.007   5.515 131.769  0.00  0.00    +0.000 C 
ATOM     28  F   UNL     1      -0.724   5.968 131.855  0.00  0.00    +0.000 F 
ATOM     29  F   UNL     1      -2.699   6.144 132.762  0.00  0.00    +0.000 F 
ATOM     30  F   UNL     1      -1.953   4.201 132.142  0.00  0.00    +0.000 F 
ENDBRANCH  23  27
ENDBRANCH   4  21
BRANCH   1  31
ATOM     31  C   UNL     1      -9.381   5.481 129.630  0.00  0.00    +0.000 C 
BRANCH  31  33
ATOM     32  C   UNL     1     -11.806   6.229 129.725  0.00  0.00    +0.000 C 
ATOM     33  C   UNL     1     -10.680   5.519 130.484  0.00  0.00    +0.000 C 
ATOM     34  C   UNL     1     -10.432   6.224 131.819  0.00  0.00    +0.000 C 
BRANCH  33  35
ATOM     35  O   UNL     1     -11.097   4.170 130.750  0.00  0.00    +0.000 OA
ATOM     36  H   UNL     1     -11.446   4.139 131.657  0.00  0.00    +0.000 HD
ENDBRANCH  33  35
ENDBRANCH  31  33
ENDBRANCH   1  31
TORSDOF 7
ENDMDL
