MODEL 1
REMARK VINA RESULT:      -8.0      0.000      0.000
REMARK  Name = Encainide
REMARK  8 active torsions:
REMARK  status: ('A' for Active; 'I' for Inactive)
REMARK    1  A    between atoms: C_1  and  O_2
REMARK    2  A    between atoms: O_2  and  C_3
REMARK    3  A    between atoms: C_6  and  C_9
REMARK    4  A    between atoms: N_11  and  C_12
REMARK    5  A    between atoms: C_17  and  C_18
REMARK    6  A    between atoms: C_18  and  C_19
REMARK    7  A    between atoms: C_19  and  C_20
REMARK    8  A    between atoms: N_25  and  C_26
REMARK                            x       y       z     vdW  Elec       q    Type
REMARK                         _______ _______ _______ _____ _____    ______ ____
ROOT
ATOM      1  C   UNL     1      -8.262   5.760 132.883  0.00  0.00    +0.000 A 
ATOM      2  C   UNL     1      -8.491   5.194 134.148  0.00  0.00    +0.000 A 
ATOM      3  C   UNL     1      -7.437   4.783 134.980  0.00  0.00    +0.000 A 
ATOM      4  C   UNL     1      -6.117   4.907 134.566  0.00  0.00    +0.000 A 
ATOM      5  C   UNL     1      -5.846   5.510 133.349  0.00  0.00    +0.000 A 
ATOM      6  C   UNL     1      -6.885   5.966 132.504  0.00  0.00    +0.000 A 
ENDROOT
BRANCH   1   9
ATOM      7  C   UNL     1      -9.922   5.960 130.904  0.00  0.00    +0.000 C 
ATOM      8  O   UNL     1      -9.579   4.989 130.255  0.00  0.00    +0.000 OA
ATOM      9  N   UNL     1      -9.459   6.250 132.215  0.00  0.00    +0.000 N 
ATOM     10  H   UNL     1      -9.999   6.890 132.774  0.00  0.00    +0.000 HD
BRANCH   7  14
ATOM     11  C   UNL     1     -12.615   8.870 129.077  0.00  0.00    +0.000 A 
ATOM     12  C   UNL     1     -13.026   8.099 130.149  0.00  0.00    +0.000 A 
ATOM     13  C   UNL     1     -12.118   7.219 130.756  0.00  0.00    +0.000 A 
ATOM     14  C   UNL     1     -10.832   6.979 130.222  0.00  0.00    +0.000 A 
ATOM     15  C   UNL     1     -10.495   7.653 129.054  0.00  0.00    +0.000 A 
ATOM     16  C   UNL     1     -11.363   8.622 128.511  0.00  0.00    +0.000 A 
BRANCH  11  18
ATOM     17  C   UNL     1     -13.552  10.969 129.664  0.00  0.00    +0.000 C 
ATOM     18  O   UNL     1     -13.470   9.883 128.760  0.00  0.00    +0.000 OA
ENDBRANCH  11  18
ENDBRANCH   7  14
ENDBRANCH   1   9
BRANCH   6  19
ATOM     19  C   UNL     1      -6.318   6.688 131.278  0.00  0.00    +0.000 C 
BRANCH  19  20
ATOM     20  C   UNL     1      -4.867   6.876 131.492  0.00  0.00    +0.000 C 
BRANCH  20  21
ATOM     21  C   UNL     1      -3.821   6.521 130.478  0.00  0.00    +0.000 C 
ATOM     22  C   UNL     1      -4.019   5.035 130.052  0.00  0.00    +0.000 C 
ATOM     23  C   UNL     1      -2.956   4.669 129.038  0.00  0.00    +0.000 C 
ATOM     24  C   UNL     1      -3.031   5.605 127.839  0.00  0.00    +0.000 C 
ATOM     25  C   UNL     1      -2.963   7.072 128.275  0.00  0.00    +0.000 C 
ATOM     26  N   UNL     1      -3.958   7.395 129.292  0.00  0.00    +0.000 NA
ATOM     27  C   UNL     1      -3.981   8.836 129.560  0.00  0.00    +0.000 C 
ENDBRANCH  20  21
ENDBRANCH  19  20
ENDBRANCH   6  19
TORSDOF 6
ENDMDL
MODEL 2
REMARK VINA RESULT:      -7.8      8.416     11.418
REMARK  Name = Encainide
REMARK  8 active torsions:
REMARK  status: ('A' for Active; 'I' for Inactive)
REMARK    1  A    between atoms: C_1  and  O_2
REMARK    2  A    between atoms: O_2  and  C_3
REMARK    3  A    between atoms: C_6  and  C_9
REMARK    4  A    between atoms: N_11  and  C_12
REMARK    5  A    between atoms: C_17  and  C_18
REMARK    6  A    between atoms: C_18  and  C_19
REMARK    7  A    between atoms: C_19  and  C_20
REMARK    8  A    between atoms: N_25  and  C_26
REMARK                            x       y       z     vdW  Elec       q    Type
REMARK                         _______ _______ _______ _____ _____    ______ ____
ROOT
ATOM      1  C   UNL     1      -5.853   1.065 126.691  0.00  0.00    +0.000 A 
ATOM      2  C   UNL     1      -4.854   1.917 126.189  0.00  0.00    +0.000 A 
ATOM      3  C   UNL     1      -5.165   3.116 125.528  0.00  0.00    +0.000 A 
ATOM      4  C   UNL     1      -6.486   3.495 125.329  0.00  0.00    +0.000 A 
ATOM      5  C   UNL     1      -7.499   2.711 125.856  0.00  0.00    +0.000 A 
ATOM      6  C   UNL     1      -7.217   1.515 126.557  0.00  0.00    +0.000 A 
ENDROOT
BRANCH   1   9
ATOM      7  C   UNL     1      -5.423  -1.448 127.153  0.00  0.00    +0.000 C 
ATOM      8  O   UNL     1      -5.604  -1.892 126.036  0.00  0.00    +0.000 OA
ATOM      9  N   UNL     1      -5.351  -0.064 127.462  0.00  0.00    +0.000 N 
ATOM     10  H   UNL     1      -4.920   0.203 128.332  0.00  0.00    +0.000 HD
BRANCH   7  14
ATOM     11  C   UNL     1      -5.416  -4.320 130.441  0.00  0.00    +0.000 A 
ATOM     12  C   UNL     1      -6.598  -3.760 129.991  0.00  0.00    +0.000 A 
ATOM     13  C   UNL     1      -6.576  -2.891 128.891  0.00  0.00    +0.000 A 
ATOM     14  C   UNL     1      -5.368  -2.445 128.309  0.00  0.00    +0.000 A 
ATOM     15  C   UNL     1      -4.185  -2.902 128.877  0.00  0.00    +0.000 A 
ATOM     16  C   UNL     1      -4.209  -3.865 129.906  0.00  0.00    +0.000 A 
BRANCH  11  18
ATOM     17  C   UNL     1      -5.218  -5.142 132.657  0.00  0.00    +0.000 C 
ATOM     18  O   UNL     1      -5.587  -5.358 131.308  0.00  0.00    +0.000 OA
ENDBRANCH  11  18
ENDBRANCH   7  14
ENDBRANCH   1   9
BRANCH   6  19
ATOM     19  C   UNL     1      -8.498   0.899 127.127  0.00  0.00    +0.000 C 
BRANCH  19  20
ATOM     20  C   UNL     1      -9.272   0.335 126.001  0.00  0.00    +0.000 C 
BRANCH  20  21
ATOM     21  C   UNL     1      -8.814  -0.825 125.171  0.00  0.00    +0.000 C 
ATOM     22  C   UNL     1      -9.180  -2.148 125.910  0.00  0.00    +0.000 C 
ATOM     23  C   UNL     1      -8.707  -3.322 125.079  0.00  0.00    +0.000 C 
ATOM     24  C   UNL     1      -9.333  -3.269 123.691  0.00  0.00    +0.000 C 
ATOM     25  C   UNL     1      -9.076  -1.917 123.018  0.00  0.00    +0.000 C 
ATOM     26  N   UNL     1      -9.488  -0.794 123.854  0.00  0.00    +0.000 NA
ATOM     27  C   UNL     1      -9.390   0.468 123.116  0.00  0.00    +0.000 C 
ENDBRANCH  20  21
ENDBRANCH  19  20
ENDBRANCH   6  19
TORSDOF 6
ENDMDL
MODEL 3
REMARK VINA RESULT:      -7.7      8.497     10.495
REMARK  Name = Encainide
REMARK  8 active torsions:
REMARK  status: ('A' for Active; 'I' for Inactive)
REMARK    1  A    between atoms: C_1  and  O_2
REMARK    2  A    between atoms: O_2  and  C_3
REMARK    3  A    between atoms: C_6  and  C_9
REMARK    4  A    between atoms: N_11  and  C_12
REMARK    5  A    between atoms: C_17  and  C_18
REMARK    6  A    between atoms: C_18  and  C_19
REMARK    7  A    between atoms: C_19  and  C_20
REMARK    8  A    between atoms: N_25  and  C_26
REMARK                            x       y       z     vdW  Elec       q    Type
REMARK                         _______ _______ _______ _____ _____    ______ ____
ROOT
ATOM      1  C   UNL     1      -8.202  -0.837 124.194  0.00  0.00    +0.000 A 
ATOM      2  C   UNL     1      -8.625  -1.836 123.300  0.00  0.00    +0.000 A 
ATOM      3  C   UNL     1      -9.223  -3.026 123.746  0.00  0.00    +0.000 A 
ATOM      4  C   UNL     1      -9.403  -3.265 125.102  0.00  0.00    +0.000 A 
ATOM      5  C   UNL     1      -9.050  -2.283 126.013  0.00  0.00    +0.000 A 
ATOM      6  C   UNL     1      -8.477  -1.060 125.593  0.00  0.00    +0.000 A 
ENDROOT
BRANCH   1   9
ATOM      7  C   UNL     1      -8.383   1.636 123.445  0.00  0.00    +0.000 C 
ATOM      8  O   UNL     1      -9.295   1.998 124.164  0.00  0.00    +0.000 OA
ATOM      9  N   UNL     1      -7.727   0.382 123.555  0.00  0.00    +0.000 N 
ATOM     10  H   UNL     1      -6.820   0.285 123.129  0.00  0.00    +0.000 HD
BRANCH   7  14
ATOM     11  C   UNL     1      -7.106   4.219 120.165  0.00  0.00    +0.000 A 
ATOM     12  C   UNL     1      -6.194   3.745 121.091  0.00  0.00    +0.000 A 
ATOM     13  C   UNL     1      -6.622   2.865 122.095  0.00  0.00    +0.000 A 
ATOM     14  C   UNL     1      -7.987   2.554 122.290  0.00  0.00    +0.000 A 
ATOM     15  C   UNL     1      -8.904   3.163 121.441  0.00  0.00    +0.000 A 
ATOM     16  C   UNL     1      -8.463   3.955 120.361  0.00  0.00    +0.000 A 
BRANCH  11  18
ATOM     17  C   UNL     1      -5.410   5.641 119.313  0.00  0.00    +0.000 C 
ATOM     18  O   UNL     1      -6.538   4.818 119.080  0.00  0.00    +0.000 OA
ENDBRANCH  11  18
ENDBRANCH   7  14
ENDBRANCH   1   9
BRANCH   6  19
ATOM     19  C   UNL     1      -8.283  -0.110 126.778  0.00  0.00    +0.000 C 
BRANCH  19  20
ATOM     20  C   UNL     1      -7.320  -0.734 127.710  0.00  0.00    +0.000 C 
BRANCH  20  21
ATOM     21  C   UNL     1      -7.296  -0.473 129.185  0.00  0.00    +0.000 C 
ATOM     22  C   UNL     1      -8.101   0.830 129.477  0.00  0.00    +0.000 C 
ATOM     23  C   UNL     1      -8.068   1.105 130.966  0.00  0.00    +0.000 C 
ATOM     24  C   UNL     1      -8.636  -0.082 131.731  0.00  0.00    +0.000 C 
ATOM     25  C   UNL     1      -7.924  -1.383 131.347  0.00  0.00    +0.000 C 
ATOM     26  N   UNL     1      -7.918  -1.606 129.905  0.00  0.00    +0.000 NA
ATOM     27  C   UNL     1      -7.386  -2.934 129.586  0.00  0.00    +0.000 C 
ENDBRANCH  20  21
ENDBRANCH  19  20
ENDBRANCH   6  19
TORSDOF 6
ENDMDL
MODEL 4
REMARK VINA RESULT:      -7.6      1.557      2.331
REMARK  Name = Encainide
REMARK  8 active torsions:
REMARK  status: ('A' for Active; 'I' for Inactive)
REMARK    1  A    between atoms: C_1  and  O_2
REMARK    2  A    between atoms: O_2  and  C_3
REMARK    3  A    between atoms: C_6  and  C_9
REMARK    4  A    between atoms: N_11  and  C_12
REMARK    5  A    between atoms: C_17  and  C_18
REMARK    6  A    between atoms: C_18  and  C_19
REMARK    7  A    between atoms: C_19  and  C_20
REMARK    8  A    between atoms: N_25  and  C_26
REMARK                            x       y       z     vdW  Elec       q    Type
REMARK                         _______ _______ _______ _____ _____    ______ ____
ROOT
ATOM      1  C   UNL     1      -9.052   4.249 132.256  0.00  0.00    +0.000 A 
ATOM      2  C   UNL     1      -9.392   2.903 132.475  0.00  0.00    +0.000 A 
ATOM      3  C   UNL     1      -8.469   1.981 132.994  0.00  0.00    +0.000 A 
ATOM      4  C   UNL     1      -7.170   2.368 133.295  0.00  0.00    +0.000 A 
ATOM      5  C   UNL     1      -6.811   3.697 133.145  0.00  0.00    +0.000 A 
ATOM      6  C   UNL     1      -7.728   4.658 132.656  0.00  0.00    +0.000 A 
ENDROOT
BRANCH   1   9
ATOM      7  C   UNL     1     -10.655   5.326 130.528  0.00  0.00    +0.000 C 
ATOM      8  O   UNL     1     -10.449   4.594 129.579  0.00  0.00    +0.000 OA
ATOM      9  N   UNL     1     -10.164   5.092 131.840  0.00  0.00    +0.000 N 
ATOM     10  H   UNL     1     -10.611   5.573 132.603  0.00  0.00    +0.000 HD
BRANCH   7  14
ATOM     11  C   UNL     1     -12.745   9.053 129.636  0.00  0.00    +0.000 A 
ATOM     12  C   UNL     1     -11.679   8.634 128.860  0.00  0.00    +0.000 A 
ATOM     13  C   UNL     1     -11.070   7.401 129.131  0.00  0.00    +0.000 A 
ATOM     14  C   UNL     1     -11.407   6.628 130.265  0.00  0.00    +0.000 A 
ATOM     15  C   UNL     1     -12.377   7.144 131.117  0.00  0.00    +0.000 A 
ATOM     16  C   UNL     1     -13.070   8.325 130.782  0.00  0.00    +0.000 A 
BRANCH  11  18
ATOM     17  C   UNL     1     -13.594  11.249 129.927  0.00  0.00    +0.000 C 
ATOM     18  O   UNL     1     -13.436  10.104 129.110  0.00  0.00    +0.000 OA
ENDBRANCH  11  18
ENDBRANCH   7  14
ENDBRANCH   1   9
BRANCH   6  19
ATOM     19  C   UNL     1      -7.119   6.063 132.690  0.00  0.00    +0.000 C 
BRANCH  19  20
ATOM     20  C   UNL     1      -6.810   6.459 131.300  0.00  0.00    +0.000 C 
BRANCH  20  21
ATOM     21  C   UNL     1      -5.429   6.462 130.720  0.00  0.00    +0.000 C 
ATOM     22  C   UNL     1      -4.416   6.858 131.837  0.00  0.00    +0.000 C 
ATOM     23  C   UNL     1      -3.020   6.875 131.252  0.00  0.00    +0.000 C 
ATOM     24  C   UNL     1      -2.685   5.515 130.655  0.00  0.00    +0.000 C 
ATOM     25  C   UNL     1      -3.751   5.072 129.648  0.00  0.00    +0.000 C 
ATOM     26  N   UNL     1      -5.097   5.113 130.211  0.00  0.00    +0.000 NA
ATOM     27  C   UNL     1      -6.068   4.524 129.284  0.00  0.00    +0.000 C 
ENDBRANCH  20  21
ENDBRANCH  19  20
ENDBRANCH   6  19
TORSDOF 6
ENDMDL
MODEL 5
REMARK VINA RESULT:      -7.6      7.393      9.205
REMARK  Name = Encainide
REMARK  8 active torsions:
REMARK  status: ('A' for Active; 'I' for Inactive)
REMARK    1  A    between atoms: C_1  and  O_2
REMARK    2  A    between atoms: O_2  and  C_3
REMARK    3  A    between atoms: C_6  and  C_9
REMARK    4  A    between atoms: N_11  and  C_12
REMARK    5  A    between atoms: C_17  and  C_18
REMARK    6  A    between atoms: C_18  and  C_19
REMARK    7  A    between atoms: C_19  and  C_20
REMARK    8  A    between atoms: N_25  and  C_26
REMARK                            x       y       z     vdW  Elec       q    Type
REMARK                         _______ _______ _______ _____ _____    ______ ____
ROOT
ATOM      1  C   UNL     1      -7.923   2.736 127.816  0.00  0.00    +0.000 A 
ATOM      2  C   UNL     1      -8.281   3.628 128.841  0.00  0.00    +0.000 A 
ATOM      3  C   UNL     1      -8.588   3.182 130.138  0.00  0.00    +0.000 A 
ATOM      4  C   UNL     1      -8.565   1.830 130.448  0.00  0.00    +0.000 A 
ATOM      5  C   UNL     1      -8.165   0.923 129.480  0.00  0.00    +0.000 A 
ATOM      6  C   UNL     1      -7.816   1.343 128.175  0.00  0.00    +0.000 A 
ENDROOT
BRANCH   1   9
ATOM      7  C   UNL     1      -8.075   3.244 125.280  0.00  0.00    +0.000 C 
ATOM      8  O   UNL     1      -9.203   2.845 125.062  0.00  0.00    +0.000 OA
ATOM      9  N   UNL     1      -7.510   3.378 126.576  0.00  0.00    +0.000 N 
ATOM     10  H   UNL     1      -6.705   3.973 126.679  0.00  0.00    +0.000 HD
BRANCH   7  14
ATOM     11  C   UNL     1      -5.632   4.007 121.743  0.00  0.00    +0.000 A 
ATOM     12  C   UNL     1      -6.800   3.273 121.653  0.00  0.00    +0.000 A 
ATOM     13  C   UNL     1      -7.598   3.100 122.793  0.00  0.00    +0.000 A 
ATOM     14  C   UNL     1      -7.180   3.524 124.075  0.00  0.00    +0.000 A 
ATOM     15  C   UNL     1      -5.929   4.125 124.166  0.00  0.00    +0.000 A 
ATOM     16  C   UNL     1      -5.181   4.403 123.004  0.00  0.00    +0.000 A 
BRANCH  11  18
ATOM     17  C   UNL     1      -5.967   4.950 119.593  0.00  0.00    +0.000 C 
ATOM     18  O   UNL     1      -5.098   4.355 120.537  0.00  0.00    +0.000 OA
ENDBRANCH  11  18
ENDBRANCH   7  14
ENDBRANCH   1   9
BRANCH   6  19
ATOM     19  C   UNL     1      -7.307   0.166 127.338  0.00  0.00    +0.000 C 
BRANCH  19  20
ATOM     20  C   UNL     1      -8.425  -0.311 126.496  0.00  0.00    +0.000 C 
BRANCH  20  21
ATOM     21  C   UNL     1      -8.272  -0.736 125.067  0.00  0.00    +0.000 C 
ATOM     22  C   UNL     1      -6.930  -0.167 124.516  0.00  0.00    +0.000 C 
ATOM     23  C   UNL     1      -6.778  -0.584 123.068  0.00  0.00    +0.000 C 
ATOM     24  C   UNL     1      -6.828  -2.101 122.950  0.00  0.00    +0.000 C 
ATOM     25  C   UNL     1      -8.091  -2.667 123.606  0.00  0.00    +0.000 C 
ATOM     26  N   UNL     1      -8.251  -2.213 124.984  0.00  0.00    +0.000 NA
ATOM     27  C   UNL     1      -9.368  -2.905 125.634  0.00  0.00    +0.000 C 
ENDBRANCH  20  21
ENDBRANCH  19  20
ENDBRANCH   6  19
TORSDOF 6
ENDMDL
MODEL 6
REMARK VINA RESULT:      -7.5      8.128     10.225
REMARK  Name = Encainide
REMARK  8 active torsions:
REMARK  status: ('A' for Active; 'I' for Inactive)
REMARK    1  A    between atoms: C_1  and  O_2
REMARK    2  A    between atoms: O_2  and  C_3
REMARK    3  A    between atoms: C_6  and  C_9
REMARK    4  A    between atoms: N_11  and  C_12
REMARK    5  A    between atoms: C_17  and  C_18
REMARK    6  A    between atoms: C_18  and  C_19
REMARK    7  A    between atoms: C_19  and  C_20
REMARK    8  A    between atoms: N_25  and  C_26
REMARK                            x       y       z     vdW  Elec       q    Type
REMARK                         _______ _______ _______ _____ _____    ______ ____
ROOT
ATOM      1  C   UNL     1      -6.635  -3.230 130.444  0.00  0.00    +0.000 A 
ATOM      2  C   UNL     1      -5.944  -4.444 130.291  0.00  0.00    +0.000 A 
ATOM      3  C   UNL     1      -5.492  -5.185 131.396  0.00  0.00    +0.000 A 
ATOM      4  C   UNL     1      -5.700  -4.728 132.690  0.00  0.00    +0.000 A 
ATOM      5  C   UNL     1      -6.424  -3.564 132.886  0.00  0.00    +0.000 A 
ATOM      6  C   UNL     1      -6.923  -2.813 131.795  0.00  0.00    +0.000 A 
ENDROOT
BRANCH   1   9
ATOM      7  C   UNL     1      -8.223  -3.122 128.400  0.00  0.00    +0.000 C 
ATOM      8  O   UNL     1      -9.111  -3.851 128.797  0.00  0.00    +0.000 OA
ATOM      9  N   UNL     1      -7.145  -2.665 129.203  0.00  0.00    +0.000 N 
ATOM     10  H   UNL     1      -6.633  -1.857 128.889  0.00  0.00    +0.000 HD
BRANCH   7  14
ATOM     11  C   UNL     1      -8.069  -2.017 124.179  0.00  0.00    +0.000 A 
ATOM     12  C   UNL     1      -7.224  -1.424 125.099  0.00  0.00    +0.000 A 
ATOM     13  C   UNL     1      -7.251  -1.846 126.436  0.00  0.00    +0.000 A 
ATOM     14  C   UNL     1      -8.217  -2.759 126.917  0.00  0.00    +0.000 A 
ATOM     15  C   UNL     1      -9.156  -3.226 126.005  0.00  0.00    +0.000 A 
ATOM     16  C   UNL     1      -9.056  -2.892 124.639  0.00  0.00    +0.000 A 
BRANCH  11  18
ATOM     17  C   UNL     1      -6.405  -1.891 122.494  0.00  0.00    +0.000 C 
ATOM     18  O   UNL     1      -7.758  -1.745 122.880  0.00  0.00    +0.000 OA
ENDBRANCH  11  18
ENDBRANCH   7  14
ENDBRANCH   1   9
BRANCH   6  19
ATOM     19  C   UNL     1      -7.777  -1.639 132.283  0.00  0.00    +0.000 C 
BRANCH  19  20
ATOM     20  C   UNL     1      -6.999  -0.397 132.088  0.00  0.00    +0.000 C 
BRANCH  20  21
ATOM     21  C   UNL     1      -7.592   0.977 132.140  0.00  0.00    +0.000 C 
ATOM     22  C   UNL     1      -9.119   0.876 131.843  0.00  0.00    +0.000 C 
ATOM     23  C   UNL     1      -9.721   2.265 131.882  0.00  0.00    +0.000 C 
ATOM     24  C   UNL     1      -9.460   2.912 133.235  0.00  0.00    +0.000 C 
ATOM     25  C   UNL     1      -7.967   2.896 133.579  0.00  0.00    +0.000 C 
ATOM     26  N   UNL     1      -7.390   1.559 133.485  0.00  0.00    +0.000 NA
ATOM     27  C   UNL     1      -6.012   1.550 133.984  0.00  0.00    +0.000 C 
ENDBRANCH  20  21
ENDBRANCH  19  20
ENDBRANCH   6  19
TORSDOF 6
ENDMDL
MODEL 7
REMARK VINA RESULT:      -7.5      7.724      8.904
REMARK  Name = Encainide
REMARK  8 active torsions:
REMARK  status: ('A' for Active; 'I' for Inactive)
REMARK    1  A    between atoms: C_1  and  O_2
REMARK    2  A    between atoms: O_2  and  C_3
REMARK    3  A    between atoms: C_6  and  C_9
REMARK    4  A    between atoms: N_11  and  C_12
REMARK    5  A    between atoms: C_17  and  C_18
REMARK    6  A    between atoms: C_18  and  C_19
REMARK    7  A    between atoms: C_19  and  C_20
REMARK    8  A    between atoms: N_25  and  C_26
REMARK                            x       y       z     vdW  Elec       q    Type
REMARK                         _______ _______ _______ _____ _____    ______ ____
ROOT
ATOM      1  C   UNL     1      -7.386  -2.142 130.813  0.00  0.00    +0.000 A 
ATOM      2  C   UNL     1      -6.240  -2.151 131.625  0.00  0.00    +0.000 A 
ATOM      3  C   UNL     1      -5.298  -3.192 131.569  0.00  0.00    +0.000 A 
ATOM      4  C   UNL     1      -5.481  -4.268 130.711  0.00  0.00    +0.000 A 
ATOM      5  C   UNL     1      -6.570  -4.272 129.856  0.00  0.00    +0.000 A 
ATOM      6  C   UNL     1      -7.518  -3.221 129.864  0.00  0.00    +0.000 A 
ENDROOT
BRANCH   1   9
ATOM      7  C   UNL     1      -8.025   0.290 130.190  0.00  0.00    +0.000 C 
ATOM      8  O   UNL     1      -7.421   0.394 129.140  0.00  0.00    +0.000 OA
ATOM      9  N   UNL     1      -8.182  -0.926 130.906  0.00  0.00    +0.000 N 
ATOM     10  H   UNL     1      -8.920  -0.979 131.588  0.00  0.00    +0.000 HD
BRANCH   7  14
ATOM     11  C   UNL     1      -9.520   3.898 132.142  0.00  0.00    +0.000 A 
ATOM     12  C   UNL     1      -9.241   2.759 132.875  0.00  0.00    +0.000 A 
ATOM     13  C   UNL     1      -8.700   1.637 132.230  0.00  0.00    +0.000 A 
ATOM     14  C   UNL     1      -8.564   1.570 130.825  0.00  0.00    +0.000 A 
ATOM     15  C   UNL     1      -8.994   2.671 130.094  0.00  0.00    +0.000 A 
ATOM     16  C   UNL     1      -9.428   3.841 130.750  0.00  0.00    +0.000 A 
BRANCH  11  18
ATOM     17  C   UNL     1     -10.465   6.068 132.293  0.00  0.00    +0.000 C 
ATOM     18  O   UNL     1      -9.759   5.004 132.902  0.00  0.00    +0.000 OA
ENDBRANCH  11  18
ENDBRANCH   7  14
ENDBRANCH   1   9
BRANCH   6  19
ATOM     19  C   UNL     1      -8.556  -3.410 128.753  0.00  0.00    +0.000 C 
BRANCH  19  20
ATOM     20  C   UNL     1      -8.152  -2.569 127.606  0.00  0.00    +0.000 C 
BRANCH  20  21
ATOM     21  C   UNL     1      -8.069  -3.066 126.195  0.00  0.00    +0.000 C 
ATOM     22  C   UNL     1      -9.463  -2.892 125.519  0.00  0.00    +0.000 C 
ATOM     23  C   UNL     1      -9.387  -3.405 124.097  0.00  0.00    +0.000 C 
ATOM     24  C   UNL     1      -8.301  -2.664 123.329  0.00  0.00    +0.000 C 
ATOM     25  C   UNL     1      -6.958  -2.731 124.062  0.00  0.00    +0.000 C 
ATOM     26  N   UNL     1      -7.060  -2.284 125.448  0.00  0.00    +0.000 NA
ATOM     27  C   UNL     1      -5.734  -2.198 126.066  0.00  0.00    +0.000 C 
ENDBRANCH  20  21
ENDBRANCH  19  20
ENDBRANCH   6  19
TORSDOF 6
ENDMDL
MODEL 8
REMARK VINA RESULT:      -7.5      6.776     10.447
REMARK  Name = Encainide
REMARK  8 active torsions:
REMARK  status: ('A' for Active; 'I' for Inactive)
REMARK    1  A    between atoms: C_1  and  O_2
REMARK    2  A    between atoms: O_2  and  C_3
REMARK    3  A    between atoms: C_6  and  C_9
REMARK    4  A    between atoms: N_11  and  C_12
REMARK    5  A    between atoms: C_17  and  C_18
REMARK    6  A    between atoms: C_18  and  C_19
REMARK    7  A    between atoms: C_19  and  C_20
REMARK    8  A    between atoms: N_25  and  C_26
REMARK                            x       y       z     vdW  Elec       q    Type
REMARK                         _______ _______ _______ _____ _____    ______ ____
ROOT
ATOM      1  C   UNL     1      -5.919   3.746 122.832  0.00  0.00    +0.000 A 
ATOM      2  C   UNL     1      -5.022   4.369 121.948  0.00  0.00    +0.000 A 
ATOM      3  C   UNL     1      -5.345   4.595 120.600  0.00  0.00    +0.000 A 
ATOM      4  C   UNL     1      -6.568   4.188 120.086  0.00  0.00    +0.000 A 
ATOM      5  C   UNL     1      -7.502   3.620 120.936  0.00  0.00    +0.000 A 
ATOM      6  C   UNL     1      -7.220   3.410 122.307  0.00  0.00    +0.000 A 
ENDROOT
BRANCH   1   9
ATOM      7  C   UNL     1      -5.664   4.689 125.232  0.00  0.00    +0.000 C 
ATOM      8  O   UNL     1      -6.522   5.551 125.201  0.00  0.00    +0.000 OA
ATOM      9  N   UNL     1      -5.475   3.712 124.219  0.00  0.00    +0.000 N 
ATOM     10  H   UNL     1      -4.953   2.884 124.454  0.00  0.00    +0.000 HD
BRANCH   7  14
ATOM     11  C   UNL     1      -2.896   4.904 128.601  0.00  0.00    +0.000 A 
ATOM     12  C   UNL     1      -3.795   5.926 128.355  0.00  0.00    +0.000 A 
ATOM     13  C   UNL     1      -4.716   5.800 127.305  0.00  0.00    +0.000 A 
ATOM     14  C   UNL     1      -4.667   4.726 126.388  0.00  0.00    +0.000 A 
ATOM     15  C   UNL     1      -3.656   3.788 126.564  0.00  0.00    +0.000 A 
ATOM     16  C   UNL     1      -2.805   3.854 127.686  0.00  0.00    +0.000 A 
BRANCH  11  18
ATOM     17  C   UNL     1      -2.075   6.298 130.336  0.00  0.00    +0.000 C 
ATOM     18  O   UNL     1      -2.260   5.000 129.803  0.00  0.00    +0.000 OA
ENDBRANCH  11  18
ENDBRANCH   7  14
ENDBRANCH   1   9
BRANCH   6  19
ATOM     19  C   UNL     1      -8.450   2.872 123.043  0.00  0.00    +0.000 C 
BRANCH  19  20
ATOM     20  C   UNL     1      -7.999   1.813 123.971  0.00  0.00    +0.000 C 
BRANCH  20  21
ATOM     21  C   UNL     1      -8.156   0.347 123.705  0.00  0.00    +0.000 C 
ATOM     22  C   UNL     1      -6.821  -0.200 123.113  0.00  0.00    +0.000 C 
ATOM     23  C   UNL     1      -6.979  -1.680 122.831  0.00  0.00    +0.000 C 
ATOM     24  C   UNL     1      -7.367  -2.418 124.105  0.00  0.00    +0.000 C 
ATOM     25  C   UNL     1      -8.609  -1.796 124.751  0.00  0.00    +0.000 C 
ATOM     26  N   UNL     1      -8.461  -0.360 124.967  0.00  0.00    +0.000 NA
ATOM     27  C   UNL     1      -9.589   0.169 125.739  0.00  0.00    +0.000 C 
ENDBRANCH  20  21
ENDBRANCH  19  20
ENDBRANCH   6  19
TORSDOF 6
ENDMDL
MODEL 9
REMARK VINA RESULT:      -7.4      4.445      5.447
REMARK  Name = Encainide
REMARK  8 active torsions:
REMARK  status: ('A' for Active; 'I' for Inactive)
REMARK    1  A    between atoms: C_1  and  O_2
REMARK    2  A    between atoms: O_2  and  C_3
REMARK    3  A    between atoms: C_6  and  C_9
REMARK    4  A    between atoms: N_11  and  C_12
REMARK    5  A    between atoms: C_17  and  C_18
REMARK    6  A    between atoms: C_18  and  C_19
REMARK    7  A    between atoms: C_19  and  C_20
REMARK    8  A    between atoms: N_25  and  C_26
REMARK                            x       y       z     vdW  Elec       q    Type
REMARK                         _______ _______ _______ _____ _____    ______ ____
ROOT
ATOM      1  C   UNL     1      -9.410   4.041 132.320  0.00  0.00    +0.000 A 
ATOM      2  C   UNL     1      -8.880   4.815 133.367  0.00  0.00    +0.000 A 
ATOM      3  C   UNL     1      -7.899   4.313 134.238  0.00  0.00    +0.000 A 
ATOM      4  C   UNL     1      -7.428   3.014 134.103  0.00  0.00    +0.000 A 
ATOM      5  C   UNL     1      -7.884   2.237 133.052  0.00  0.00    +0.000 A 
ATOM      6  C   UNL     1      -8.847   2.726 132.137  0.00  0.00    +0.000 A 
ENDROOT
BRANCH   1   9
ATOM      7  C   UNL     1     -10.082   5.222 130.114  0.00  0.00    +0.000 C 
ATOM      8  O   UNL     1      -9.213   4.789 129.382  0.00  0.00    +0.000 OA
ATOM      9  N   UNL     1     -10.316   4.761 131.437  0.00  0.00    +0.000 N 
ATOM     10  H   UNL     1     -11.211   4.959 131.853  0.00  0.00    +0.000 HD
BRANCH   7  14
ATOM     11  C   UNL     1     -12.537   8.580 128.790  0.00  0.00    +0.000 A 
ATOM     12  C   UNL     1     -13.028   7.655 129.693  0.00  0.00    +0.000 A 
ATOM     13  C   UNL     1     -12.195   6.625 130.150  0.00  0.00    +0.000 A 
ATOM     14  C   UNL     1     -10.907   6.404 129.610  0.00  0.00    +0.000 A 
ATOM     15  C   UNL     1     -10.493   7.255 128.592  0.00  0.00    +0.000 A 
ATOM     16  C   UNL     1     -11.284   8.360 128.216  0.00  0.00    +0.000 A 
BRANCH  11  18
ATOM     17  C   UNL     1     -13.410  10.567 129.747  0.00  0.00    +0.000 C 
ATOM     18  O   UNL     1     -13.321   9.686 128.643  0.00  0.00    +0.000 OA
ENDBRANCH  11  18
ENDBRANCH   7  14
ENDBRANCH   1   9
BRANCH   6  19
ATOM     19  C   UNL     1      -9.096   1.716 131.012  0.00  0.00    +0.000 C 
BRANCH  19  20
ATOM     20  C   UNL     1      -8.007   0.717 131.047  0.00  0.00    +0.000 C 
BRANCH  20  21
ATOM     21  C   UNL     1      -8.150  -0.692 130.560  0.00  0.00    +0.000 C 
ATOM     22  C   UNL     1      -7.623  -0.773 129.095  0.00  0.00    +0.000 C 
ATOM     23  C   UNL     1      -7.778  -2.194 128.595  0.00  0.00    +0.000 C 
ATOM     24  C   UNL     1      -7.031  -3.156 129.508  0.00  0.00    +0.000 C 
ATOM     25  C   UNL     1      -7.463  -2.985 130.968  0.00  0.00    +0.000 C 
ATOM     26  N   UNL     1      -7.359  -1.601 131.418  0.00  0.00    +0.000 NA
ATOM     27  C   UNL     1      -7.613  -1.501 132.858  0.00  0.00    +0.000 C 
ENDBRANCH  20  21
ENDBRANCH  19  20
ENDBRANCH   6  19
TORSDOF 6
ENDMDL
