MODEL 1
REMARK VINA RESULT:      -8.5      0.000      0.000
REMARK  Name = Encorafenib
REMARK  14 active torsions:
REMARK  status: ('A' for Active; 'I' for Inactive)
REMARK    1  A    between atoms: C_1  and  O_2
REMARK    2  A    between atoms: O_2  and  C_3
REMARK    3  A    between atoms: N_5  and  C_6
REMARK    4  A    between atoms: C_6  and  C_7
REMARK    5  A    between atoms: C_6  and  C_8
REMARK    6  A    between atoms: C_8  and  N_9
REMARK    7  A    between atoms: C_14  and  C_16
REMARK    8  A    between atoms: N_18  and  C_34
REMARK    9  A    between atoms: C_20  and  C_21
REMARK   10  A    between atoms: C_26  and  N_27
REMARK   11  A    between atoms: N_27  and  S_28
REMARK   12  A    between atoms: S_28  and  C_29
REMARK   13  A    between atoms: C_34  and  C_35
REMARK   14  A    between atoms: C_34  and  C_36
REMARK                            x       y       z     vdW  Elec       q    Type
REMARK                         _______ _______ _______ _____ _____    ______ ____
ROOT
ATOM      1  C   UNL     1      -6.937   3.739 128.322  0.00  0.00    +0.000 A 
ATOM      2  C   UNL     1      -5.748   4.179 128.838  0.00  0.00    +0.000 A 
ATOM      3  N   UNL     1      -4.776   3.773 127.969  0.00  0.00    +0.000 N 
ATOM      4  N   UNL     1      -5.261   3.070 126.921  0.00  0.00    +0.000 NA
ATOM      5  C   UNL     1      -6.590   3.074 127.114  0.00  0.00    +0.000 A 
ENDROOT
BRANCH   1  11
ATOM      6  N   UNL     1     -10.233   6.849 129.458  0.00  0.00    +0.000 N 
ATOM      7  C   UNL     1      -9.813   5.528 129.466  0.00  0.00    +0.000 A 
ATOM      8  N   UNL     1     -10.481   4.644 130.229  0.00  0.00    +0.000 NA
ATOM      9  C   UNL     1     -10.001   3.379 130.280  0.00  0.00    +0.000 A 
ATOM     10  C   UNL     1      -8.848   2.984 129.654  0.00  0.00    +0.000 A 
ATOM     11  C   UNL     1      -8.218   3.976 128.939  0.00  0.00    +0.000 A 
ATOM     12  N   UNL     1      -8.694   5.227 128.809  0.00  0.00    +0.000 NA
ATOM     13  H   UNL     1     -10.967   6.972 130.143  0.00  0.00    +0.000 HD
BRANCH   6  14
ATOM     14  C   UNL     1     -10.431   7.453 128.130  0.00  0.00    +0.000 C 
BRANCH  14  15
ATOM     15  C   UNL     1     -11.949   7.548 127.761  0.00  0.00    +0.000 C 
ATOM     16  C   UNL     1     -12.146   7.135 126.294  0.00  0.00    +0.000 C 
BRANCH  15  19
ATOM     17  C   UNL     1     -12.913   9.309 129.242  0.00  0.00    +0.000 C 
ATOM     18  O   UNL     1     -12.755   8.657 130.275  0.00  0.00    +0.000 OA
ATOM     19  N   UNL     1     -12.552   8.876 127.988  0.00  0.00    +0.000 N 
ATOM     20  H   UNL     1     -12.703   9.523 127.224  0.00  0.00    +0.000 HD
BRANCH  17  22
ATOM     21  C   UNL     1     -13.459  11.223 130.480  0.00  0.00    +0.000 C 
ATOM     22  O   UNL     1     -13.489  10.540 129.213  0.00  0.00    +0.000 OA
ENDBRANCH  17  22
ENDBRANCH  15  19
ENDBRANCH  14  15
ENDBRANCH   6  14
ENDBRANCH   1  11
BRANCH   5  23
ATOM     23  C   UNL     1      -7.519   2.535 126.142  0.00  0.00    +0.000 A 
ATOM     24  C   UNL     1      -7.682   3.098 124.885  0.00  0.00    +0.000 A 
ATOM     25  C   UNL     1      -8.522   2.464 123.972  0.00  0.00    +0.000 A 
ATOM     26 CL   UNL     1      -8.737   3.173 122.417  0.00  0.00    +0.000 Cl
ATOM     27  C   UNL     1      -9.175   1.257 124.291  0.00  0.00    +0.000 A 
ATOM     28  C   UNL     1      -9.013   0.682 125.561  0.00  0.00    +0.000 A 
ATOM     29  C   UNL     1      -8.198   1.361 126.472  0.00  0.00    +0.000 A 
ATOM     30  F   UNL     1      -8.014   0.894 127.713  0.00  0.00    +0.000 F 
BRANCH  28  31
ATOM     31  N   UNL     1      -9.550  -0.631 125.807  0.00  0.00    +0.000 N 
ATOM     32  H   UNL     1     -10.304  -0.754 126.484  0.00  0.00    +0.000 HD
BRANCH  31  33
ATOM     33  S   UNL     1      -8.744  -2.064 125.442  0.00  0.00    +0.000 S 
ATOM     34  C   UNL     1      -8.301  -2.704 127.058  0.00  0.00    +0.000 C 
ATOM     35  O   UNL     1      -9.637  -2.972 124.758  0.00  0.00    +0.000 OA
ATOM     36  O   UNL     1      -7.504  -1.665 124.805  0.00  0.00    +0.000 OA
ENDBRANCH  31  33
ENDBRANCH  28  31
ENDBRANCH   5  23
BRANCH   3  37
ATOM     37  C   UNL     1      -3.336   3.997 128.098  0.00  0.00    +0.000 C 
ATOM     38  C   UNL     1      -2.540   3.160 127.097  0.00  0.00    +0.000 C 
ATOM     39  C   UNL     1      -2.969   5.475 127.923  0.00  0.00    +0.000 C 
ENDBRANCH   3  37
TORSDOF 9
ENDMDL
MODEL 2
REMARK VINA RESULT:      -8.3      3.557      6.955
REMARK  Name = Encorafenib
REMARK  14 active torsions:
REMARK  status: ('A' for Active; 'I' for Inactive)
REMARK    1  A    between atoms: C_1  and  O_2
REMARK    2  A    between atoms: O_2  and  C_3
REMARK    3  A    between atoms: N_5  and  C_6
REMARK    4  A    between atoms: C_6  and  C_7
REMARK    5  A    between atoms: C_6  and  C_8
REMARK    6  A    between atoms: C_8  and  N_9
REMARK    7  A    between atoms: C_14  and  C_16
REMARK    8  A    between atoms: N_18  and  C_34
REMARK    9  A    between atoms: C_20  and  C_21
REMARK   10  A    between atoms: C_26  and  N_27
REMARK   11  A    between atoms: N_27  and  S_28
REMARK   12  A    between atoms: S_28  and  C_29
REMARK   13  A    between atoms: C_34  and  C_35
REMARK   14  A    between atoms: C_34  and  C_36
REMARK                            x       y       z     vdW  Elec       q    Type
REMARK                         _______ _______ _______ _____ _____    ______ ____
ROOT
ATOM      1  C   UNL     1      -8.992   5.749 131.105  0.00  0.00    +0.000 A 
ATOM      2  C   UNL     1      -9.925   6.749 131.160  0.00  0.00    +0.000 A 
ATOM      3  N   UNL     1     -10.960   6.356 130.361  0.00  0.00    +0.000 N 
ATOM      4  N   UNL     1     -10.747   5.160 129.767  0.00  0.00    +0.000 NA
ATOM      5  C   UNL     1      -9.556   4.767 130.245  0.00  0.00    +0.000 A 
ENDROOT
BRANCH   1  11
ATOM      6  N   UNL     1      -4.333   5.470 130.901  0.00  0.00    +0.000 N 
ATOM      7  C   UNL     1      -5.466   5.643 131.682  0.00  0.00    +0.000 A 
ATOM      8  N   UNL     1      -5.342   5.574 133.020  0.00  0.00    +0.000 NA
ATOM      9  C   UNL     1      -6.476   5.666 133.754  0.00  0.00    +0.000 A 
ATOM     10  C   UNL     1      -7.727   5.756 133.202  0.00  0.00    +0.000 A 
ATOM     11  C   UNL     1      -7.744   5.772 131.827  0.00  0.00    +0.000 A 
ATOM     12  N   UNL     1      -6.639   5.747 131.060  0.00  0.00    +0.000 NA
ATOM     13  H   UNL     1      -3.554   5.211 131.492  0.00  0.00    +0.000 HD
BRANCH   6  14
ATOM     14  C   UNL     1      -4.096   6.499 129.875  0.00  0.00    +0.000 C 
BRANCH  14  15
ATOM     15  C   UNL     1      -3.378   5.906 128.617  0.00  0.00    +0.000 C 
ATOM     16  C   UNL     1      -2.291   6.881 128.140  0.00  0.00    +0.000 C 
BRANCH  15  19
ATOM     17  C   UNL     1      -4.959   4.385 127.428  0.00  0.00    +0.000 C 
ATOM     18  O   UNL     1      -4.898   3.502 128.284  0.00  0.00    +0.000 OA
ATOM     19  N   UNL     1      -4.280   5.579 127.495  0.00  0.00    +0.000 N 
ATOM     20  H   UNL     1      -4.443   6.237 126.743  0.00  0.00    +0.000 HD
BRANCH  17  22
ATOM     21  C   UNL     1      -4.952   3.760 125.170  0.00  0.00    +0.000 C 
ATOM     22  O   UNL     1      -5.694   4.278 126.289  0.00  0.00    +0.000 OA
ENDBRANCH  17  22
ENDBRANCH  15  19
ENDBRANCH  14  15
ENDBRANCH   6  14
ENDBRANCH   1  11
BRANCH   5  23
ATOM     23  C   UNL     1      -8.997   3.460 129.963  0.00  0.00    +0.000 A 
ATOM     24  C   UNL     1      -9.142   2.392 130.835  0.00  0.00    +0.000 A 
ATOM     25  C   UNL     1      -8.661   1.143 130.448  0.00  0.00    +0.000 A 
ATOM     26 CL   UNL     1      -8.826  -0.180 131.539  0.00  0.00    +0.000 Cl
ATOM     27  C   UNL     1      -8.066   0.945 129.187  0.00  0.00    +0.000 A 
ATOM     28  C   UNL     1      -7.918   2.022 128.300  0.00  0.00    +0.000 A 
ATOM     29  C   UNL     1      -8.371   3.272 128.730  0.00  0.00    +0.000 A 
ATOM     30  F   UNL     1      -8.242   4.356 127.956  0.00  0.00    +0.000 F 
BRANCH  28  31
ATOM     31  N   UNL     1      -7.465   1.764 126.957  0.00  0.00    +0.000 N 
ATOM     32  H   UNL     1      -6.499   1.969 126.699  0.00  0.00    +0.000 HD
BRANCH  31  33
ATOM     33  S   UNL     1      -8.488   1.600 125.631  0.00  0.00    +0.000 S 
ATOM     34  C   UNL     1      -7.398   0.971 124.352  0.00  0.00    +0.000 C 
ATOM     35  O   UNL     1      -9.532   0.646 125.928  0.00  0.00    +0.000 OA
ATOM     36  O   UNL     1      -8.843   2.950 125.239  0.00  0.00    +0.000 OA
ENDBRANCH  31  33
ENDBRANCH  28  31
ENDBRANCH   5  23
BRANCH   3  37
ATOM     37  C   UNL     1     -12.189   7.101 130.090  0.00  0.00    +0.000 C 
ATOM     38  C   UNL     1     -12.913   7.490 131.379  0.00  0.00    +0.000 C 
ATOM     39  C   UNL     1     -11.924   8.362 129.260  0.00  0.00    +0.000 C 
ENDBRANCH   3  37
TORSDOF 9
ENDMDL
MODEL 3
REMARK VINA RESULT:      -8.2      4.765      8.581
REMARK  Name = Encorafenib
REMARK  14 active torsions:
REMARK  status: ('A' for Active; 'I' for Inactive)
REMARK    1  A    between atoms: C_1  and  O_2
REMARK    2  A    between atoms: O_2  and  C_3
REMARK    3  A    between atoms: N_5  and  C_6
REMARK    4  A    between atoms: C_6  and  C_7
REMARK    5  A    between atoms: C_6  and  C_8
REMARK    6  A    between atoms: C_8  and  N_9
REMARK    7  A    between atoms: C_14  and  C_16
REMARK    8  A    between atoms: N_18  and  C_34
REMARK    9  A    between atoms: C_20  and  C_21
REMARK   10  A    between atoms: C_26  and  N_27
REMARK   11  A    between atoms: N_27  and  S_28
REMARK   12  A    between atoms: S_28  and  C_29
REMARK   13  A    between atoms: C_34  and  C_35
REMARK   14  A    between atoms: C_34  and  C_36
REMARK                            x       y       z     vdW  Elec       q    Type
REMARK                         _______ _______ _______ _____ _____    ______ ____
ROOT
ATOM      1  C   UNL     1      -9.996   4.266 131.072  0.00  0.00    +0.000 A 
ATOM      2  C   UNL     1     -11.133   4.630 130.403  0.00  0.00    +0.000 A 
ATOM      3  N   UNL     1     -11.287   5.971 130.607  0.00  0.00    +0.000 N 
ATOM      4  N   UNL     1     -10.323   6.503 131.392  0.00  0.00    +0.000 NA
ATOM      5  C   UNL     1      -9.509   5.468 131.653  0.00  0.00    +0.000 A 
ENDROOT
BRANCH   1  11
ATOM      6  N   UNL     1      -7.709   0.900 128.774  0.00  0.00    +0.000 N 
ATOM      7  C   UNL     1      -8.339   1.306 129.941  0.00  0.00    +0.000 A 
ATOM      8  N   UNL     1      -8.622   0.380 130.875  0.00  0.00    +0.000 NA
ATOM      9  C   UNL     1      -9.309   0.790 131.969  0.00  0.00    +0.000 A 
ATOM     10  C   UNL     1      -9.777   2.068 132.129  0.00  0.00    +0.000 A 
ATOM     11  C   UNL     1      -9.473   2.923 131.096  0.00  0.00    +0.000 A 
ATOM     12  N   UNL     1      -8.739   2.574 130.023  0.00  0.00    +0.000 NA
ATOM     13  H   UNL     1      -7.637  -0.108 128.765  0.00  0.00    +0.000 HD
BRANCH   6  14
ATOM     14  C   UNL     1      -6.516   1.672 128.386  0.00  0.00    +0.000 C 
BRANCH  14  15
ATOM     15  C   UNL     1      -6.327   1.699 126.833  0.00  0.00    +0.000 C 
ATOM     16  C   UNL     1      -4.827   1.705 126.499  0.00  0.00    +0.000 C 
BRANCH  15  19
ATOM     17  C   UNL     1      -8.321   2.792 125.806  0.00  0.00    +0.000 C 
ATOM     18  O   UNL     1      -9.073   1.844 126.035  0.00  0.00    +0.000 OA
ATOM     19  N   UNL     1      -6.992   2.830 126.155  0.00  0.00    +0.000 N 
ATOM     20  H   UNL     1      -6.490   3.683 125.942  0.00  0.00    +0.000 HD
BRANCH  17  22
ATOM     21  C   UNL     1      -8.241   5.134 125.768  0.00  0.00    +0.000 C 
ATOM     22  O   UNL     1      -8.711   3.919 125.154  0.00  0.00    +0.000 OA
ENDBRANCH  17  22
ENDBRANCH  15  19
ENDBRANCH  14  15
ENDBRANCH   6  14
ENDBRANCH   1  11
BRANCH   5  23
ATOM     23  C   UNL     1      -8.257   5.623 132.366  0.00  0.00    +0.000 A 
ATOM     24  C   UNL     1      -8.170   5.483 133.743  0.00  0.00    +0.000 A 
ATOM     25  C   UNL     1      -6.915   5.550 134.344  0.00  0.00    +0.000 A 
ATOM     26 CL   UNL     1      -6.809   5.392 136.056  0.00  0.00    +0.000 Cl
ATOM     27  C   UNL     1      -5.744   5.723 133.580  0.00  0.00    +0.000 A 
ATOM     28  C   UNL     1      -5.826   5.865 132.187  0.00  0.00    +0.000 A 
ATOM     29  C   UNL     1      -7.101   5.836 131.614  0.00  0.00    +0.000 A 
ATOM     30  F   UNL     1      -7.268   5.992 130.295  0.00  0.00    +0.000 F 
BRANCH  28  31
ATOM     31  N   UNL     1      -4.612   5.870 131.411  0.00  0.00    +0.000 N 
ATOM     32  H   UNL     1      -3.961   5.087 131.480  0.00  0.00    +0.000 HD
BRANCH  31  33
ATOM     33  S   UNL     1      -3.919   7.256 130.754  0.00  0.00    +0.000 S 
ATOM     34  C   UNL     1      -2.599   6.602 129.729  0.00  0.00    +0.000 C 
ATOM     35  O   UNL     1      -4.891   7.961 129.949  0.00  0.00    +0.000 OA
ATOM     36  O   UNL     1      -3.278   7.938 131.862  0.00  0.00    +0.000 OA
ENDBRANCH  31  33
ENDBRANCH  28  31
ENDBRANCH   5  23
BRANCH   3  37
ATOM     37  C   UNL     1     -12.368   6.816 130.100  0.00  0.00    +0.000 C 
ATOM     38  C   UNL     1     -13.023   7.630 131.216  0.00  0.00    +0.000 C 
ATOM     39  C   UNL     1     -11.884   7.768 129.000  0.00  0.00    +0.000 C 
ENDBRANCH   3  37
TORSDOF 9
ENDMDL
MODEL 4
REMARK VINA RESULT:      -8.1      4.922      8.785
REMARK  Name = Encorafenib
REMARK  14 active torsions:
REMARK  status: ('A' for Active; 'I' for Inactive)
REMARK    1  A    between atoms: C_1  and  O_2
REMARK    2  A    between atoms: O_2  and  C_3
REMARK    3  A    between atoms: N_5  and  C_6
REMARK    4  A    between atoms: C_6  and  C_7
REMARK    5  A    between atoms: C_6  and  C_8
REMARK    6  A    between atoms: C_8  and  N_9
REMARK    7  A    between atoms: C_14  and  C_16
REMARK    8  A    between atoms: N_18  and  C_34
REMARK    9  A    between atoms: C_20  and  C_21
REMARK   10  A    between atoms: C_26  and  N_27
REMARK   11  A    between atoms: N_27  and  S_28
REMARK   12  A    between atoms: S_28  and  C_29
REMARK   13  A    between atoms: C_34  and  C_35
REMARK   14  A    between atoms: C_34  and  C_36
REMARK                            x       y       z     vdW  Elec       q    Type
REMARK                         _______ _______ _______ _____ _____    ______ ____
ROOT
ATOM      1  C   UNL     1     -10.023   4.566 130.855  0.00  0.00    +0.000 A 
ATOM      2  C   UNL     1     -11.239   4.931 130.343  0.00  0.00    +0.000 A 
ATOM      3  N   UNL     1     -11.557   6.126 130.920  0.00  0.00    +0.000 N 
ATOM      4  N   UNL     1     -10.624   6.556 131.799  0.00  0.00    +0.000 NA
ATOM      5  C   UNL     1      -9.665   5.619 131.739  0.00  0.00    +0.000 A 
ENDROOT
BRANCH   1  11
ATOM      6  N   UNL     1      -8.528   1.789 127.407  0.00  0.00    +0.000 N 
ATOM      7  C   UNL     1      -8.600   2.034 128.771  0.00  0.00    +0.000 A 
ATOM      8  N   UNL     1      -8.250   1.051 129.620  0.00  0.00    +0.000 NA
ATOM      9  C   UNL     1      -8.407   1.289 130.944  0.00  0.00    +0.000 A 
ATOM     10  C   UNL     1      -8.960   2.439 131.443  0.00  0.00    +0.000 A 
ATOM     11  C   UNL     1      -9.325   3.359 130.488  0.00  0.00    +0.000 A 
ATOM     12  N   UNL     1      -9.129   3.190 129.167  0.00  0.00    +0.000 NA
ATOM     13  H   UNL     1      -8.295   0.817 127.253  0.00  0.00    +0.000 HD
BRANCH   6  14
ATOM     14  C   UNL     1      -7.808   2.797 126.611  0.00  0.00    +0.000 C 
BRANCH  14  15
ATOM     15  C   UNL     1      -6.257   2.646 126.756  0.00  0.00    +0.000 C 
ATOM     16  C   UNL     1      -5.790   1.397 125.992  0.00  0.00    +0.000 C 
BRANCH  15  19
ATOM     17  C   UNL     1      -5.432   3.715 128.854  0.00  0.00    +0.000 C 
ATOM     18  O   UNL     1      -5.508   4.861 128.409  0.00  0.00    +0.000 OA
ATOM     19  N   UNL     1      -5.776   2.585 128.150  0.00  0.00    +0.000 N 
ATOM     20  H   UNL     1      -5.701   1.703 128.642  0.00  0.00    +0.000 HD
BRANCH  17  22
ATOM     21  C   UNL     1      -4.674   2.027 130.292  0.00  0.00    +0.000 C 
ATOM     22  O   UNL     1      -4.974   3.422 130.100  0.00  0.00    +0.000 OA
ENDBRANCH  17  22
ENDBRANCH  15  19
ENDBRANCH  14  15
ENDBRANCH   6  14
ENDBRANCH   1  11
BRANCH   5  23
ATOM     23  C   UNL     1      -8.402   5.753 132.438  0.00  0.00    +0.000 A 
ATOM     24  C   UNL     1      -8.300   5.606 133.813  0.00  0.00    +0.000 A 
ATOM     25  C   UNL     1      -7.036   5.651 134.398  0.00  0.00    +0.000 A 
ATOM     26 CL   UNL     1      -6.911   5.485 136.108  0.00  0.00    +0.000 Cl
ATOM     27  C   UNL     1      -5.873   5.810 133.620  0.00  0.00    +0.000 A 
ATOM     28  C   UNL     1      -5.970   5.958 132.228  0.00  0.00    +0.000 A 
ATOM     29  C   UNL     1      -7.252   5.951 131.671  0.00  0.00    +0.000 A 
ATOM     30  F   UNL     1      -7.434   6.114 130.355  0.00  0.00    +0.000 F 
BRANCH  28  31
ATOM     31  N   UNL     1      -4.765   5.948 131.438  0.00  0.00    +0.000 N 
ATOM     32  H   UNL     1      -4.133   5.149 131.485  0.00  0.00    +0.000 HD
BRANCH  31  33
ATOM     33  S   UNL     1      -4.048   7.329 130.794  0.00  0.00    +0.000 S 
ATOM     34  C   UNL     1      -2.758   6.661 129.740  0.00  0.00    +0.000 C 
ATOM     35  O   UNL     1      -5.013   8.070 130.015  0.00  0.00    +0.000 OA
ATOM     36  O   UNL     1      -3.377   7.976 131.905  0.00  0.00    +0.000 OA
ENDBRANCH  31  33
ENDBRANCH  28  31
ENDBRANCH   5  23
BRANCH   3  37
ATOM     37  C   UNL     1     -12.771   6.912 130.697  0.00  0.00    +0.000 C 
ATOM     38  C   UNL     1     -12.876   8.084 131.673  0.00  0.00    +0.000 C 
ATOM     39  C   UNL     1     -12.855   7.442 129.261  0.00  0.00    +0.000 C 
ENDBRANCH   3  37
TORSDOF 9
ENDMDL
MODEL 5
REMARK VINA RESULT:      -7.9      3.919      6.395
REMARK  Name = Encorafenib
REMARK  14 active torsions:
REMARK  status: ('A' for Active; 'I' for Inactive)
REMARK    1  A    between atoms: C_1  and  O_2
REMARK    2  A    between atoms: O_2  and  C_3
REMARK    3  A    between atoms: N_5  and  C_6
REMARK    4  A    between atoms: C_6  and  C_7
REMARK    5  A    between atoms: C_6  and  C_8
REMARK    6  A    between atoms: C_8  and  N_9
REMARK    7  A    between atoms: C_14  and  C_16
REMARK    8  A    between atoms: N_18  and  C_34
REMARK    9  A    between atoms: C_20  and  C_21
REMARK   10  A    between atoms: C_26  and  N_27
REMARK   11  A    between atoms: N_27  and  S_28
REMARK   12  A    between atoms: S_28  and  C_29
REMARK   13  A    between atoms: C_34  and  C_35
REMARK   14  A    between atoms: C_34  and  C_36
REMARK                            x       y       z     vdW  Elec       q    Type
REMARK                         _______ _______ _______ _____ _____    ______ ____
ROOT
ATOM      1  C   UNL     1      -6.865  -0.203 126.096  0.00  0.00    +0.000 A 
ATOM      2  C   UNL     1      -7.577  -0.197 124.926  0.00  0.00    +0.000 A 
ATOM      3  N   UNL     1      -7.928  -1.494 124.683  0.00  0.00    +0.000 N 
ATOM      4  N   UNL     1      -7.466  -2.353 125.619  0.00  0.00    +0.000 NA
ATOM      5  C   UNL     1      -6.842  -1.563 126.506  0.00  0.00    +0.000 A 
ENDROOT
BRANCH   1  11
ATOM      6  N   UNL     1      -7.710   3.743 128.451  0.00  0.00    +0.000 N 
ATOM      7  C   UNL     1      -6.775   2.898 127.873  0.00  0.00    +0.000 A 
ATOM      8  N   UNL     1      -5.515   3.343 127.717  0.00  0.00    +0.000 NA
ATOM      9  C   UNL     1      -4.642   2.527 127.078  0.00  0.00    +0.000 A 
ATOM     10  C   UNL     1      -4.999   1.321 126.534  0.00  0.00    +0.000 A 
ATOM     11  C   UNL     1      -6.320   0.982 126.710  0.00  0.00    +0.000 A 
ATOM     12  N   UNL     1      -7.204   1.732 127.393  0.00  0.00    +0.000 NA
ATOM     13  H   UNL     1      -7.297   4.656 128.591  0.00  0.00    +0.000 HD
BRANCH   6  14
ATOM     14  C   UNL     1      -8.494   3.173 129.559  0.00  0.00    +0.000 C 
BRANCH  14  15
ATOM     15  C   UNL     1      -9.341   4.268 130.290  0.00  0.00    +0.000 C 
ATOM     16  C   UNL     1     -10.795   3.789 130.420  0.00  0.00    +0.000 C 
BRANCH  15  19
ATOM     17  C   UNL     1      -9.265   6.760 130.377  0.00  0.00    +0.000 C 
ATOM     18  O   UNL     1      -9.227   6.808 131.607  0.00  0.00    +0.000 OA
ATOM     19  N   UNL     1      -9.310   5.596 129.646  0.00  0.00    +0.000 N 
ATOM     20  H   UNL     1      -9.304   5.691 128.638  0.00  0.00    +0.000 HD
BRANCH  17  22
ATOM     21  C   UNL     1     -10.464   7.952 128.754  0.00  0.00    +0.000 C 
ATOM     22  O   UNL     1      -9.290   7.863 129.583  0.00  0.00    +0.000 OA
ENDBRANCH  17  22
ENDBRANCH  15  19
ENDBRANCH  14  15
ENDBRANCH   6  14
ENDBRANCH   1  11
BRANCH   5  23
ATOM     23  C   UNL     1      -6.304  -2.067 127.754  0.00  0.00    +0.000 A 
ATOM     24  C   UNL     1      -5.021  -2.585 127.850  0.00  0.00    +0.000 A 
ATOM     25  C   UNL     1      -4.542  -2.958 129.104  0.00  0.00    +0.000 A 
ATOM     26 CL   UNL     1      -2.955  -3.617 129.219  0.00  0.00    +0.000 Cl
ATOM     27  C   UNL     1      -5.320  -2.789 130.266  0.00  0.00    +0.000 A 
ATOM     28  C   UNL     1      -6.618  -2.265 130.175  0.00  0.00    +0.000 A 
ATOM     29  C   UNL     1      -7.089  -1.937 128.900  0.00  0.00    +0.000 A 
ATOM     30  F   UNL     1      -8.327  -1.458 128.725  0.00  0.00    +0.000 F 
BRANCH  28  31
ATOM     31  N   UNL     1      -7.329  -1.943 131.387  0.00  0.00    +0.000 N 
ATOM     32  H   UNL     1      -8.071  -2.560 131.720  0.00  0.00    +0.000 HD
BRANCH  31  33
ATOM     33  S   UNL     1      -7.385  -0.405 132.068  0.00  0.00    +0.000 S 
ATOM     34  C   UNL     1      -9.047   0.150 131.680  0.00  0.00    +0.000 C 
ATOM     35  O   UNL     1      -7.195  -0.490 133.498  0.00  0.00    +0.000 OA
ATOM     36  O   UNL     1      -6.485   0.409 131.274  0.00  0.00    +0.000 OA
ENDBRANCH  31  33
ENDBRANCH  28  31
ENDBRANCH   5  23
BRANCH   3  37
ATOM     37  C   UNL     1      -8.690  -1.996 123.539  0.00  0.00    +0.000 C 
ATOM     38  C   UNL     1      -7.817  -2.131 122.292  0.00  0.00    +0.000 C 
ATOM     39  C   UNL     1      -9.353  -3.345 123.840  0.00  0.00    +0.000 C 
ENDBRANCH   3  37
TORSDOF 9
ENDMDL
MODEL 6
REMARK VINA RESULT:      -7.9      5.016      9.524
REMARK  Name = Encorafenib
REMARK  14 active torsions:
REMARK  status: ('A' for Active; 'I' for Inactive)
REMARK    1  A    between atoms: C_1  and  O_2
REMARK    2  A    between atoms: O_2  and  C_3
REMARK    3  A    between atoms: N_5  and  C_6
REMARK    4  A    between atoms: C_6  and  C_7
REMARK    5  A    between atoms: C_6  and  C_8
REMARK    6  A    between atoms: C_8  and  N_9
REMARK    7  A    between atoms: C_14  and  C_16
REMARK    8  A    between atoms: N_18  and  C_34
REMARK    9  A    between atoms: C_20  and  C_21
REMARK   10  A    between atoms: C_26  and  N_27
REMARK   11  A    between atoms: N_27  and  S_28
REMARK   12  A    between atoms: S_28  and  C_29
REMARK   13  A    between atoms: C_34  and  C_35
REMARK   14  A    between atoms: C_34  and  C_36
REMARK                            x       y       z     vdW  Elec       q    Type
REMARK                         _______ _______ _______ _____ _____    ______ ____
ROOT
ATOM      1  C   UNL     1      -9.942   4.446 131.133  0.00  0.00    +0.000 A 
ATOM      2  C   UNL     1     -11.088   4.842 130.497  0.00  0.00    +0.000 A 
ATOM      3  N   UNL     1     -11.241   6.171 130.771  0.00  0.00    +0.000 N 
ATOM      4  N   UNL     1     -10.269   6.663 131.571  0.00  0.00    +0.000 NA
ATOM      5  C   UNL     1      -9.451   5.618 131.770  0.00  0.00    +0.000 A 
ENDROOT
BRANCH   1  11
ATOM      6  N   UNL     1      -7.570   1.247 128.691  0.00  0.00    +0.000 N 
ATOM      7  C   UNL     1      -8.241   1.571 129.860  0.00  0.00    +0.000 A 
ATOM      8  N   UNL     1      -8.555   0.583 130.717  0.00  0.00    +0.000 NA
ATOM      9  C   UNL     1      -9.280   0.916 131.812  0.00  0.00    +0.000 A 
ATOM     10  C   UNL     1      -9.757   2.180 132.043  0.00  0.00    +0.000 A 
ATOM     11  C   UNL     1      -9.418   3.104 131.083  0.00  0.00    +0.000 A 
ATOM     12  N   UNL     1      -8.647   2.830 130.015  0.00  0.00    +0.000 NA
ATOM     13  H   UNL     1      -7.496   0.241 128.614  0.00  0.00    +0.000 HD
BRANCH   6  14
ATOM     14  C   UNL     1      -6.366   2.043 128.399  0.00  0.00    +0.000 C 
BRANCH  14  15
ATOM     15  C   UNL     1      -5.161   1.620 129.304  0.00  0.00    +0.000 C 
ATOM     16  C   UNL     1      -4.024   2.643 129.154  0.00  0.00    +0.000 C 
BRANCH  15  19
ATOM     17  C   UNL     1      -4.771  -0.756 129.958  0.00  0.00    +0.000 C 
ATOM     18  O   UNL     1      -5.328  -0.643 131.051  0.00  0.00    +0.000 OA
ATOM     19  N   UNL     1      -4.646   0.262 129.042  0.00  0.00    +0.000 N 
ATOM     20  H   UNL     1      -4.196   0.030 128.164  0.00  0.00    +0.000 HD
BRANCH  17  22
ATOM     21  C   UNL     1      -4.877  -2.528 128.428  0.00  0.00    +0.000 C 
ATOM     22  O   UNL     1      -4.187  -1.906 129.528  0.00  0.00    +0.000 OA
ENDBRANCH  17  22
ENDBRANCH  15  19
ENDBRANCH  14  15
ENDBRANCH   6  14
ENDBRANCH   1  11
BRANCH   5  23
ATOM     23  C   UNL     1      -8.191   5.738 132.476  0.00  0.00    +0.000 A 
ATOM     24  C   UNL     1      -8.101   5.603 133.854  0.00  0.00    +0.000 A 
ATOM     25  C   UNL     1      -6.841   5.635 134.448  0.00  0.00    +0.000 A 
ATOM     26 CL   UNL     1      -6.732   5.483 136.160  0.00  0.00    +0.000 Cl
ATOM     27  C   UNL     1      -5.670   5.767 133.677  0.00  0.00    +0.000 A 
ATOM     28  C   UNL     1      -5.755   5.903 132.283  0.00  0.00    +0.000 A 
ATOM     29  C   UNL     1      -7.033   5.910 131.717  0.00  0.00    +0.000 A 
ATOM     30  F   UNL     1      -7.202   6.064 130.398  0.00  0.00    +0.000 F 
BRANCH  28  31
ATOM     31  N   UNL     1      -4.545   5.867 131.502  0.00  0.00    +0.000 N 
ATOM     32  H   UNL     1      -3.914   5.068 131.579  0.00  0.00    +0.000 HD
BRANCH  31  33
ATOM     33  S   UNL     1      -3.819   7.225 130.822  0.00  0.00    +0.000 S 
ATOM     34  C   UNL     1      -2.419   6.536 129.936  0.00  0.00    +0.000 C 
ATOM     35  O   UNL     1      -4.735   7.870 129.909  0.00  0.00    +0.000 OA
ATOM     36  O   UNL     1      -3.271   7.976 131.935  0.00  0.00    +0.000 OA
ENDBRANCH  31  33
ENDBRANCH  28  31
ENDBRANCH   5  23
BRANCH   3  37
ATOM     37  C   UNL     1     -12.328   7.039 130.320  0.00  0.00    +0.000 C 
ATOM     38  C   UNL     1     -13.042   7.710 131.493  0.00  0.00    +0.000 C 
ATOM     39  C   UNL     1     -11.836   8.116 129.347  0.00  0.00    +0.000 C 
ENDBRANCH   3  37
TORSDOF 9
ENDMDL
MODEL 7
REMARK VINA RESULT:      -7.9      3.268      5.239
REMARK  Name = Encorafenib
REMARK  14 active torsions:
REMARK  status: ('A' for Active; 'I' for Inactive)
REMARK    1  A    between atoms: C_1  and  O_2
REMARK    2  A    between atoms: O_2  and  C_3
REMARK    3  A    between atoms: N_5  and  C_6
REMARK    4  A    between atoms: C_6  and  C_7
REMARK    5  A    between atoms: C_6  and  C_8
REMARK    6  A    between atoms: C_8  and  N_9
REMARK    7  A    between atoms: C_14  and  C_16
REMARK    8  A    between atoms: N_18  and  C_34
REMARK    9  A    between atoms: C_20  and  C_21
REMARK   10  A    between atoms: C_26  and  N_27
REMARK   11  A    between atoms: N_27  and  S_28
REMARK   12  A    between atoms: S_28  and  C_29
REMARK   13  A    between atoms: C_34  and  C_35
REMARK   14  A    between atoms: C_34  and  C_36
REMARK                            x       y       z     vdW  Elec       q    Type
REMARK                         _______ _______ _______ _____ _____    ______ ____
ROOT
ATOM      1  C   UNL     1      -6.125  -0.317 128.458  0.00  0.00    +0.000 A 
ATOM      2  C   UNL     1      -5.990  -0.710 129.762  0.00  0.00    +0.000 A 
ATOM      3  N   UNL     1      -6.180  -2.062 129.779  0.00  0.00    +0.000 N 
ATOM      4  N   UNL     1      -6.453  -2.575 128.559  0.00  0.00    +0.000 NA
ATOM      5  C   UNL     1      -6.388  -1.515 127.739  0.00  0.00    +0.000 A 
ENDROOT
BRANCH   1  11
ATOM      6  N   UNL     1      -7.942   3.986 128.347  0.00  0.00    +0.000 N 
ATOM      7  C   UNL     1      -6.902   3.141 127.990  0.00  0.00    +0.000 A 
ATOM      8  N   UNL     1      -6.004   3.571 127.086  0.00  0.00    +0.000 NA
ATOM      9  C   UNL     1      -5.045   2.697 126.696  0.00  0.00    +0.000 A 
ATOM     10  C   UNL     1      -4.994   1.396 127.123  0.00  0.00    +0.000 A 
ATOM     11  C   UNL     1      -5.985   1.046 128.010  0.00  0.00    +0.000 A 
ATOM     12  N   UNL     1      -6.916   1.899 128.472  0.00  0.00    +0.000 NA
ATOM     13  H   UNL     1      -7.915   4.814 127.766  0.00  0.00    +0.000 HD
BRANCH   6  14
ATOM     14  C   UNL     1      -8.151   4.173 129.792  0.00  0.00    +0.000 C 
BRANCH  14  15
ATOM     15  C   UNL     1      -8.342   5.683 130.157  0.00  0.00    +0.000 C 
ATOM     16  C   UNL     1      -7.776   5.946 131.561  0.00  0.00    +0.000 C 
BRANCH  15  19
ATOM     17  C   UNL     1     -10.319   6.541 128.900  0.00  0.00    +0.000 C 
ATOM     18  O   UNL     1      -9.753   6.509 127.806  0.00  0.00    +0.000 OA
ATOM     19  N   UNL     1      -9.738   6.158 130.086  0.00  0.00    +0.000 N 
ATOM     20  H   UNL     1     -10.322   6.199 130.912  0.00  0.00    +0.000 HD
BRANCH  17  22
ATOM     21  C   UNL     1     -11.917   8.134 128.270  0.00  0.00    +0.000 C 
ATOM     22  O   UNL     1     -11.592   6.985 129.074  0.00  0.00    +0.000 OA
ENDBRANCH  17  22
ENDBRANCH  15  19
ENDBRANCH  14  15
ENDBRANCH   6  14
ENDBRANCH   1  11
BRANCH   5  23
ATOM     23  C   UNL     1      -6.492  -1.637 126.298  0.00  0.00    +0.000 A 
ATOM     24  C   UNL     1      -5.532  -2.293 125.543  0.00  0.00    +0.000 A 
ATOM     25  C   UNL     1      -5.752  -2.454 124.176  0.00  0.00    +0.000 A 
ATOM     26 CL   UNL     1      -4.551  -3.254 123.235  0.00  0.00    +0.000 Cl
ATOM     27  C   UNL     1      -6.934  -1.995 123.565  0.00  0.00    +0.000 A 
ATOM     28  C   UNL     1      -7.909  -1.332 124.324  0.00  0.00    +0.000 A 
ATOM     29  C   UNL     1      -7.645  -1.146 125.685  0.00  0.00    +0.000 A 
ATOM     30  F   UNL     1      -8.511  -0.499 126.474  0.00  0.00    +0.000 F 
BRANCH  28  31
ATOM     31  N   UNL     1      -9.179  -1.023 123.717  0.00  0.00    +0.000 N 
ATOM     32  H   UNL     1      -9.683  -1.743 123.200  0.00  0.00    +0.000 HD
BRANCH  31  33
ATOM     33  S   UNL     1      -9.703   0.538 123.368  0.00  0.00    +0.000 S 
ATOM     34  C   UNL     1      -8.175   1.476 123.310  0.00  0.00    +0.000 C 
ATOM     35  O   UNL     1     -10.367   0.561 122.085  0.00  0.00    +0.000 OA
ATOM     36  O   UNL     1     -10.415   0.986 124.550  0.00  0.00    +0.000 OA
ENDBRANCH  31  33
ENDBRANCH  28  31
ENDBRANCH   5  23
BRANCH   3  37
ATOM     37  C   UNL     1      -6.145  -2.937 130.951  0.00  0.00    +0.000 C 
ATOM     38  C   UNL     1      -7.436  -2.850 131.764  0.00  0.00    +0.000 C 
ATOM     39  C   UNL     1      -5.888  -4.399 130.567  0.00  0.00    +0.000 C 
ENDBRANCH   3  37
TORSDOF 9
ENDMDL
MODEL 8
REMARK VINA RESULT:      -7.7      3.839      7.745
REMARK  Name = Encorafenib
REMARK  14 active torsions:
REMARK  status: ('A' for Active; 'I' for Inactive)
REMARK    1  A    between atoms: C_1  and  O_2
REMARK    2  A    between atoms: O_2  and  C_3
REMARK    3  A    between atoms: N_5  and  C_6
REMARK    4  A    between atoms: C_6  and  C_7
REMARK    5  A    between atoms: C_6  and  C_8
REMARK    6  A    between atoms: C_8  and  N_9
REMARK    7  A    between atoms: C_14  and  C_16
REMARK    8  A    between atoms: N_18  and  C_34
REMARK    9  A    between atoms: C_20  and  C_21
REMARK   10  A    between atoms: C_26  and  N_27
REMARK   11  A    between atoms: N_27  and  S_28
REMARK   12  A    between atoms: S_28  and  C_29
REMARK   13  A    between atoms: C_34  and  C_35
REMARK   14  A    between atoms: C_34  and  C_36
REMARK                            x       y       z     vdW  Elec       q    Type
REMARK                         _______ _______ _______ _____ _____    ______ ____
ROOT
ATOM      1  C   UNL     1      -5.950   2.881 129.792  0.00  0.00    +0.000 A 
ATOM      2  C   UNL     1      -4.949   3.085 128.881  0.00  0.00    +0.000 A 
ATOM      3  N   UNL     1      -4.961   4.418 128.587  0.00  0.00    +0.000 N 
ATOM      4  N   UNL     1      -5.930   5.097 129.240  0.00  0.00    +0.000 NA
ATOM      5  C   UNL     1      -6.519   4.166 130.006  0.00  0.00    +0.000 A 
ENDROOT
BRANCH   1  11
ATOM      6  N   UNL     1      -7.925  -1.313 129.211  0.00  0.00    +0.000 N 
ATOM      7  C   UNL     1      -7.229  -0.448 130.041  0.00  0.00    +0.000 A 
ATOM      8  N   UNL     1      -7.117  -0.758 131.345  0.00  0.00    +0.000 NA
ATOM      9  C   UNL     1      -6.502   0.143 132.148  0.00  0.00    +0.000 A 
ATOM     10  C   UNL     1      -6.058   1.363 131.710  0.00  0.00    +0.000 A 
ATOM     11  C   UNL     1      -6.262   1.598 130.371  0.00  0.00    +0.000 A 
ATOM     12  N   UNL     1      -6.810   0.707 129.525  0.00  0.00    +0.000 NA
ATOM     13  H   UNL     1      -8.348  -2.044 129.767  0.00  0.00    +0.000 HD
BRANCH   6  14
ATOM     14  C   UNL     1      -7.235  -1.710 127.972  0.00  0.00    +0.000 C 
BRANCH  14  15
ATOM     15  C   UNL     1      -8.019  -1.247 126.700  0.00  0.00    +0.000 C 
ATOM     16  C   UNL     1      -7.407  -1.905 125.453  0.00  0.00    +0.000 C 
BRANCH  15  19
ATOM     17  C   UNL     1      -9.181   0.845 125.995  0.00  0.00    +0.000 C 
ATOM     18  O   UNL     1     -10.215   0.267 125.660  0.00  0.00    +0.000 OA
ATOM     19  N   UNL     1      -8.073   0.216 126.514  0.00  0.00    +0.000 N 
ATOM     20  H   UNL     1      -7.298   0.810 126.782  0.00  0.00    +0.000 HD
BRANCH  17  22
ATOM     21  C   UNL     1      -7.830   2.675 126.559  0.00  0.00    +0.000 C 
ATOM     22  O   UNL     1      -8.995   2.186 125.869  0.00  0.00    +0.000 OA
ENDBRANCH  17  22
ENDBRANCH  15  19
ENDBRANCH  14  15
ENDBRANCH   6  14
ENDBRANCH   1  11
BRANCH   5  23
ATOM     23  C   UNL     1      -7.543   4.493 130.979  0.00  0.00    +0.000 A 
ATOM     24  C   UNL     1      -7.233   4.884 132.273  0.00  0.00    +0.000 A 
ATOM     25  C   UNL     1      -8.268   5.276 133.119  0.00  0.00    +0.000 A 
ATOM     26 CL   UNL     1      -7.884   5.746 134.731  0.00  0.00    +0.000 Cl
ATOM     27  C   UNL     1      -9.604   5.310 132.675  0.00  0.00    +0.000 A 
ATOM     28  C   UNL     1      -9.924   4.916 131.367  0.00  0.00    +0.000 A 
ATOM     29  C   UNL     1      -8.871   4.488 130.553  0.00  0.00    +0.000 A 
ATOM     30  F   UNL     1      -9.095   4.069 129.301  0.00  0.00    +0.000 F 
BRANCH  28  31
ATOM     31  N   UNL     1     -11.265   5.119 130.883  0.00  0.00    +0.000 N 
ATOM     32  H   UNL     1     -11.764   4.352 130.432  0.00  0.00    +0.000 HD
BRANCH  31  33
ATOM     33  S   UNL     1     -11.933   6.630 130.559  0.00  0.00    +0.000 S 
ATOM     34  C   UNL     1     -12.800   6.367 129.011  0.00  0.00    +0.000 C 
ATOM     35  O   UNL     1     -12.857   6.997 131.608  0.00  0.00    +0.000 OA
ATOM     36  O   UNL     1     -10.811   7.499 130.259  0.00  0.00    +0.000 OA
ENDBRANCH  31  33
ENDBRANCH  28  31
ENDBRANCH   5  23
BRANCH   3  37
ATOM     37  C   UNL     1      -4.080   5.116 127.650  0.00  0.00    +0.000 C 
ATOM     38  C   UNL     1      -3.682   6.498 128.169  0.00  0.00    +0.000 C 
ATOM     39  C   UNL     1      -2.813   4.309 127.344  0.00  0.00    +0.000 C 
ENDBRANCH   3  37
TORSDOF 9
ENDMDL
MODEL 9
REMARK VINA RESULT:      -7.5      4.340      7.988
REMARK  Name = Encorafenib
REMARK  14 active torsions:
REMARK  status: ('A' for Active; 'I' for Inactive)
REMARK    1  A    between atoms: C_1  and  O_2
REMARK    2  A    between atoms: O_2  and  C_3
REMARK    3  A    between atoms: N_5  and  C_6
REMARK    4  A    between atoms: C_6  and  C_7
REMARK    5  A    between atoms: C_6  and  C_8
REMARK    6  A    between atoms: C_8  and  N_9
REMARK    7  A    between atoms: C_14  and  C_16
REMARK    8  A    between atoms: N_18  and  C_34
REMARK    9  A    between atoms: C_20  and  C_21
REMARK   10  A    between atoms: C_26  and  N_27
REMARK   11  A    between atoms: N_27  and  S_28
REMARK   12  A    between atoms: S_28  and  C_29
REMARK   13  A    between atoms: C_34  and  C_35
REMARK   14  A    between atoms: C_34  and  C_36
REMARK                            x       y       z     vdW  Elec       q    Type
REMARK                         _______ _______ _______ _____ _____    ______ ____
ROOT
ATOM      1  C   UNL     1      -7.094   1.250 129.393  0.00  0.00    +0.000 A 
ATOM      2  C   UNL     1      -8.150   1.149 130.259  0.00  0.00    +0.000 A 
ATOM      3  N   UNL     1      -8.724   2.386 130.312  0.00  0.00    +0.000 N 
ATOM      4  N   UNL     1      -8.090   3.300 129.544  0.00  0.00    +0.000 NA
ATOM      5  C   UNL     1      -7.109   2.601 128.951  0.00  0.00    +0.000 A 
ENDROOT
BRANCH   1  11
ATOM      6  N   UNL     1      -6.187  -2.260 126.445  0.00  0.00    +0.000 N 
ATOM      7  C   UNL     1      -5.813  -1.549 127.575  0.00  0.00    +0.000 A 
ATOM      8  N   UNL     1      -4.858  -2.063 128.372  0.00  0.00    +0.000 NA
ATOM      9  C   UNL     1      -4.569  -1.389 129.510  0.00  0.00    +0.000 A 
ATOM     10  C   UNL     1      -5.242  -0.265 129.912  0.00  0.00    +0.000 A 
ATOM     11  C   UNL     1      -6.228   0.150 129.048  0.00  0.00    +0.000 A 
ATOM     12  N   UNL     1      -6.505  -0.452 127.878  0.00  0.00    +0.000 NA
ATOM     13  H   UNL     1      -5.720  -3.157 126.442  0.00  0.00    +0.000 HD
BRANCH   6  14
ATOM     14  C   UNL     1      -6.208  -1.498 125.185  0.00  0.00    +0.000 C 
BRANCH  14  15
ATOM     15  C   UNL     1      -6.714  -2.373 123.990  0.00  0.00    +0.000 C 
ATOM     16  C   UNL     1      -5.522  -2.774 123.107  0.00  0.00    +0.000 C 
BRANCH  15  19
ATOM     17  C   UNL     1      -9.084  -1.764 123.507  0.00  0.00    +0.000 C 
ATOM     18  O   UNL     1      -9.526  -2.297 124.526  0.00  0.00    +0.000 OA
ATOM     19  N   UNL     1      -7.754  -1.734 123.161  0.00  0.00    +0.000 N 
ATOM     20  H   UNL     1      -7.516  -1.232 122.313  0.00  0.00    +0.000 HD
BRANCH  17  22
ATOM     21  C   UNL     1      -9.982   0.270 122.765  0.00  0.00    +0.000 C 
ATOM     22  O   UNL     1      -9.868  -1.154 122.579  0.00  0.00    +0.000 OA
ENDBRANCH  17  22
ENDBRANCH  15  19
ENDBRANCH  14  15
ENDBRANCH   6  14
ENDBRANCH   1  11
BRANCH   5  23
ATOM     23  C   UNL     1      -6.254   3.172 127.930  0.00  0.00    +0.000 A 
ATOM     24  C   UNL     1      -4.871   3.165 128.036  0.00  0.00    +0.000 A 
ATOM     25  C   UNL     1      -4.116   3.645 126.968  0.00  0.00    +0.000 A 
ATOM     26 CL   UNL     1      -2.399   3.650 127.108  0.00  0.00    +0.000 Cl
ATOM     27  C   UNL     1      -4.727   4.102 125.785  0.00  0.00    +0.000 A 
ATOM     28  C   UNL     1      -6.125   4.111 125.671  0.00  0.00    +0.000 A 
ATOM     29  C   UNL     1      -6.860   3.663 126.773  0.00  0.00    +0.000 A 
ATOM     30  F   UNL     1      -8.199   3.666 126.756  0.00  0.00    +0.000 F 
BRANCH  28  31
ATOM     31  N   UNL     1      -6.722   4.420 124.397  0.00  0.00    +0.000 N 
ATOM     32  H   UNL     1      -7.236   5.293 124.275  0.00  0.00    +0.000 HD
BRANCH  31  33
ATOM     33  S   UNL     1      -7.063   3.275 123.211  0.00  0.00    +0.000 S 
ATOM     34  C   UNL     1      -6.849   1.718 124.077  0.00  0.00    +0.000 C 
ATOM     35  O   UNL     1      -8.427   3.425 122.758  0.00  0.00    +0.000 OA
ATOM     36  O   UNL     1      -5.977   3.365 122.254  0.00  0.00    +0.000 OA
ENDBRANCH  31  33
ENDBRANCH  28  31
ENDBRANCH   5  23
BRANCH   3  37
ATOM     37  C   UNL     1      -9.882   2.781 131.114  0.00  0.00    +0.000 C 
ATOM     38  C   UNL     1      -9.490   3.103 132.556  0.00  0.00    +0.000 C 
ATOM     39  C   UNL     1     -10.615   3.984 130.510  0.00  0.00    +0.000 C 
ENDBRANCH   3  37
TORSDOF 9
ENDMDL
