MODEL 1
REMARK VINA RESULT:      -4.7      0.000      0.000
REMARK  Name = Enflurane
REMARK  3 active torsions:
REMARK  status: ('A' for Active; 'I' for Inactive)
REMARK    1  A    between atoms: C_2  and  O_4
REMARK    2  A    between atoms: O_4  and  C_5
REMARK    3  A    between atoms: C_5  and  C_8
REMARK                            x       y       z     vdW  Elec       q    Type
REMARK                         _______ _______ _______ _____ _____    ______ ____
ROOT
ATOM      1  C   UNL     1     -12.732   8.091 130.025  0.00  0.00    +0.000 C 
ATOM      2  F   UNL     1     -13.530   7.068 129.632  0.00  0.00    +0.000 F 
ATOM      3  F   UNL     1     -13.062   8.392 131.306  0.00  0.00    +0.000 F 
ENDROOT
BRANCH   1   4
ATOM      4  C   UNL     1     -12.924   9.323 129.131  0.00  0.00    +0.000 C 
ATOM      5  F   UNL     1     -13.887   9.085 128.196  0.00  0.00    +0.000 F 
ATOM      6 CL   UNL     1     -13.390  10.769 130.064  0.00  0.00    +0.000 Cl
ENDBRANCH   1   4
BRANCH   1   7
ATOM      7  O   UNL     1     -11.391   7.646 130.007  0.00  0.00    +0.000 OA
BRANCH   7   9
ATOM      8  F   UNL     1      -9.488   8.381 129.145  0.00  0.00    +0.000 F 
ATOM      9  C   UNL     1     -10.770   8.075 128.822  0.00  0.00    +0.000 C 
ATOM     10  F   UNL     1     -10.708   7.035 127.960  0.00  0.00    +0.000 F 
ENDBRANCH   7   9
ENDBRANCH   1   7
TORSDOF 3
ENDMDL
MODEL 2
REMARK VINA RESULT:      -4.7      2.190      3.219
REMARK  Name = Enflurane
REMARK  3 active torsions:
REMARK  status: ('A' for Active; 'I' for Inactive)
REMARK    1  A    between atoms: C_2  and  O_4
REMARK    2  A    between atoms: O_4  and  C_5
REMARK    3  A    between atoms: C_5  and  C_8
REMARK                            x       y       z     vdW  Elec       q    Type
REMARK                         _______ _______ _______ _____ _____    ______ ____
ROOT
ATOM      1  C   UNL     1     -12.691   7.598 130.514  0.00  0.00    +0.000 C 
ATOM      2  F   UNL     1     -13.256   7.720 131.741  0.00  0.00    +0.000 F 
ATOM      3  F   UNL     1     -13.557   6.899 129.738  0.00  0.00    +0.000 F 
ENDROOT
BRANCH   1   4
ATOM      4  C   UNL     1     -11.345   6.867 130.589  0.00  0.00    +0.000 C 
ATOM      5  F   UNL     1     -10.341   7.673 130.142  0.00  0.00    +0.000 F 
ATOM      6 CL   UNL     1     -10.951   6.346 132.249  0.00  0.00    +0.000 Cl
ENDBRANCH   1   4
BRANCH   1   7
ATOM      7  O   UNL     1     -12.544   8.890 129.958  0.00  0.00    +0.000 OA
BRANCH   7   9
ATOM      8  F   UNL     1     -13.617  10.088 128.436  0.00  0.00    +0.000 F 
ATOM      9  C   UNL     1     -13.016   8.888 128.635  0.00  0.00    +0.000 C 
ATOM     10  F   UNL     1     -11.959   8.847 127.794  0.00  0.00    +0.000 F 
ENDBRANCH   7   9
ENDBRANCH   1   7
TORSDOF 3
ENDMDL
MODEL 3
REMARK VINA RESULT:      -4.7      1.974      2.241
REMARK  Name = Enflurane
REMARK  3 active torsions:
REMARK  status: ('A' for Active; 'I' for Inactive)
REMARK    1  A    between atoms: C_2  and  O_4
REMARK    2  A    between atoms: O_4  and  C_5
REMARK    3  A    between atoms: C_5  and  C_8
REMARK                            x       y       z     vdW  Elec       q    Type
REMARK                         _______ _______ _______ _____ _____    ______ ____
ROOT
ATOM      1  C   UNL     1     -12.584   6.975 128.674  0.00  0.00    +0.000 C 
ATOM      2  F   UNL     1     -13.614   7.277 127.845  0.00  0.00    +0.000 F 
ATOM      3  F   UNL     1     -12.840   5.754 129.208  0.00  0.00    +0.000 F 
ENDROOT
BRANCH   1   4
ATOM      4  C   UNL     1     -12.442   8.017 129.790  0.00  0.00    +0.000 C 
ATOM      5  F   UNL     1     -13.193   9.120 129.508  0.00  0.00    +0.000 F 
ATOM      6 CL   UNL     1     -12.952   7.382 131.377  0.00  0.00    +0.000 Cl
ENDBRANCH   1   4
BRANCH   1   7
ATOM      7  O   UNL     1     -11.402   6.882 127.905  0.00  0.00    +0.000 OA
BRANCH   7   9
ATOM      8  F   UNL     1     -10.131   8.695 127.847  0.00  0.00    +0.000 F 
ATOM      9  C   UNL     1     -11.182   8.096 127.233  0.00  0.00    +0.000 C 
ATOM     10  F   UNL     1     -10.782   7.829 125.969  0.00  0.00    +0.000 F 
ENDBRANCH   7   9
ENDBRANCH   1   7
TORSDOF 3
ENDMDL
MODEL 4
REMARK VINA RESULT:      -4.7      2.041      3.023
REMARK  Name = Enflurane
REMARK  3 active torsions:
REMARK  status: ('A' for Active; 'I' for Inactive)
REMARK    1  A    between atoms: C_2  and  O_4
REMARK    2  A    between atoms: O_4  and  C_5
REMARK    3  A    between atoms: C_5  and  C_8
REMARK                            x       y       z     vdW  Elec       q    Type
REMARK                         _______ _______ _______ _____ _____    ______ ____
ROOT
ATOM      1  C   UNL     1     -13.091   7.868 128.639  0.00  0.00    +0.000 C 
ATOM      2  F   UNL     1     -13.887   6.810 128.933  0.00  0.00    +0.000 F 
ATOM      3  F   UNL     1     -13.845   8.764 127.955  0.00  0.00    +0.000 F 
ENDROOT
BRANCH   1   4
ATOM      4  C   UNL     1     -11.886   7.441 127.791  0.00  0.00    +0.000 C 
ATOM      5  F   UNL     1     -12.221   7.416 126.470  0.00  0.00    +0.000 F 
ATOM      6 CL   UNL     1     -10.493   8.536 127.997  0.00  0.00    +0.000 Cl
ENDBRANCH   1   4
BRANCH   1   7
ATOM      7  O   UNL     1     -12.680   8.469 129.851  0.00  0.00    +0.000 OA
BRANCH   7   9
ATOM      8  F   UNL     1     -11.459   7.158 131.153  0.00  0.00    +0.000 F 
ATOM      9  C   UNL     1     -12.739   7.523 130.888  0.00  0.00    +0.000 C 
ATOM     10  F   UNL     1     -13.201   8.128 132.005  0.00  0.00    +0.000 F 
ENDBRANCH   7   9
ENDBRANCH   1   7
TORSDOF 3
ENDMDL
MODEL 5
REMARK VINA RESULT:      -4.7      1.992      2.150
REMARK  Name = Enflurane
REMARK  3 active torsions:
REMARK  status: ('A' for Active; 'I' for Inactive)
REMARK    1  A    between atoms: C_2  and  O_4
REMARK    2  A    between atoms: O_4  and  C_5
REMARK    3  A    between atoms: C_5  and  C_8
REMARK                            x       y       z     vdW  Elec       q    Type
REMARK                         _______ _______ _______ _____ _____    ______ ____
ROOT
ATOM      1  C   UNL     1     -12.609   7.201 129.434  0.00  0.00    +0.000 C 
ATOM      2  F   UNL     1     -11.985   6.014 129.227  0.00  0.00    +0.000 F 
ATOM      3  F   UNL     1     -13.388   7.062 130.536  0.00  0.00    +0.000 F 
ENDROOT
BRANCH   1   4
ATOM      4  C   UNL     1     -13.472   7.594 128.228  0.00  0.00    +0.000 C 
ATOM      5  F   UNL     1     -13.575   8.952 128.142  0.00  0.00    +0.000 F 
ATOM      6 CL   UNL     1     -12.805   6.983 126.691  0.00  0.00    +0.000 Cl
ENDBRANCH   1   4
BRANCH   1   7
ATOM      7  O   UNL     1     -11.628   8.181 129.706  0.00  0.00    +0.000 OA
BRANCH   7   9
ATOM      8  F   UNL     1     -10.242   8.855 128.114  0.00  0.00    +0.000 F 
ATOM      9  C   UNL     1     -10.444   7.863 129.019  0.00  0.00    +0.000 C 
ATOM     10  F   UNL     1      -9.407   7.922 129.885  0.00  0.00    +0.000 F 
ENDBRANCH   7   9
ENDBRANCH   1   7
TORSDOF 3
ENDMDL
MODEL 6
REMARK VINA RESULT:      -4.7      2.433      2.746
REMARK  Name = Enflurane
REMARK  3 active torsions:
REMARK  status: ('A' for Active; 'I' for Inactive)
REMARK    1  A    between atoms: C_2  and  O_4
REMARK    2  A    between atoms: O_4  and  C_5
REMARK    3  A    between atoms: C_5  and  C_8
REMARK                            x       y       z     vdW  Elec       q    Type
REMARK                         _______ _______ _______ _____ _____    ______ ____
ROOT
ATOM      1  C   UNL     1     -12.837   7.154 128.504  0.00  0.00    +0.000 C 
ATOM      2  F   UNL     1     -13.498   6.824 127.367  0.00  0.00    +0.000 F 
ATOM      3  F   UNL     1     -13.726   7.076 129.526  0.00  0.00    +0.000 F 
ENDROOT
BRANCH   1   4
ATOM      4  C   UNL     1     -12.256   8.571 128.420  0.00  0.00    +0.000 C 
ATOM      5  F   UNL     1     -12.414   9.220 129.609  0.00  0.00    +0.000 F 
ATOM      6 CL   UNL     1     -10.521   8.567 128.008  0.00  0.00    +0.000 Cl
ENDBRANCH   1   4
BRANCH   1   7
ATOM      7  O   UNL     1     -11.822   6.195 128.726  0.00  0.00    +0.000 OA
BRANCH   7   9
ATOM      8  F   UNL     1     -11.475   4.548 130.166  0.00  0.00    +0.000 F 
ATOM      9  C   UNL     1     -11.776   5.869 130.092  0.00  0.00    +0.000 C 
ATOM     10  F   UNL     1     -10.742   6.528 130.663  0.00  0.00    +0.000 F 
ENDBRANCH   7   9
ENDBRANCH   1   7
TORSDOF 3
ENDMDL
MODEL 7
REMARK VINA RESULT:      -4.6      1.932      2.630
REMARK  Name = Enflurane
REMARK  3 active torsions:
REMARK  status: ('A' for Active; 'I' for Inactive)
REMARK    1  A    between atoms: C_2  and  O_4
REMARK    2  A    between atoms: O_4  and  C_5
REMARK    3  A    between atoms: C_5  and  C_8
REMARK                            x       y       z     vdW  Elec       q    Type
REMARK                         _______ _______ _______ _____ _____    ______ ____
ROOT
ATOM      1  C   UNL     1     -11.403   7.851 129.049  0.00  0.00    +0.000 C 
ATOM      2  F   UNL     1     -10.496   7.624 130.032  0.00  0.00    +0.000 F 
ATOM      3  F   UNL     1     -11.049   9.006 128.432  0.00  0.00    +0.000 F 
ENDROOT
BRANCH   1   4
ATOM      4  C   UNL     1     -12.823   7.972 129.617  0.00  0.00    +0.000 C 
ATOM      5  F   UNL     1     -13.677   7.156 128.936  0.00  0.00    +0.000 F 
ATOM      6 CL   UNL     1     -12.898   7.547 131.347  0.00  0.00    +0.000 Cl
ENDBRANCH   1   4
BRANCH   1   7
ATOM      7  O   UNL     1     -11.314   6.801 128.107  0.00  0.00    +0.000 OA
BRANCH   7   9
ATOM      8  F   UNL     1      -9.944   6.677 126.371  0.00  0.00    +0.000 F 
ATOM      9  C   UNL     1     -11.037   7.333 126.836  0.00  0.00    +0.000 C 
ATOM     10  F   UNL     1     -12.053   7.018 126.001  0.00  0.00    +0.000 F 
ENDBRANCH   7   9
ENDBRANCH   1   7
TORSDOF 3
ENDMDL
MODEL 8
REMARK VINA RESULT:      -4.6      2.172      3.524
REMARK  Name = Enflurane
REMARK  3 active torsions:
REMARK  status: ('A' for Active; 'I' for Inactive)
REMARK    1  A    between atoms: C_2  and  O_4
REMARK    2  A    between atoms: O_4  and  C_5
REMARK    3  A    between atoms: C_5  and  C_8
REMARK                            x       y       z     vdW  Elec       q    Type
REMARK                         _______ _______ _______ _____ _____    ______ ____
ROOT
ATOM      1  C   UNL     1     -11.440   8.047 128.946  0.00  0.00    +0.000 C 
ATOM      2  F   UNL     1     -10.987   9.035 128.135  0.00  0.00    +0.000 F 
ATOM      3  F   UNL     1     -10.391   7.629 129.698  0.00  0.00    +0.000 F 
ENDROOT
BRANCH   1   4
ATOM      4  C   UNL     1     -12.005   6.874 128.135  0.00  0.00    +0.000 C 
ATOM      5  F   UNL     1     -13.281   6.597 128.529  0.00  0.00    +0.000 F 
ATOM      6 CL   UNL     1     -12.018   7.208 126.384  0.00  0.00    +0.000 Cl
ENDBRANCH   1   4
BRANCH   1   7
ATOM      7  O   UNL     1     -12.416   8.591 129.812  0.00  0.00    +0.000 OA
BRANCH   7   9
ATOM      8  F   UNL     1     -13.887   9.528 128.448  0.00  0.00    +0.000 F 
ATOM      9  C   UNL     1     -12.870   9.817 129.297  0.00  0.00    +0.000 C 
ATOM     10  F   UNL     1     -13.409  10.541 130.304  0.00  0.00    +0.000 F 
ENDBRANCH   7   9
ENDBRANCH   1   7
TORSDOF 3
ENDMDL
MODEL 9
REMARK VINA RESULT:      -4.6     11.889     12.909
REMARK  Name = Enflurane
REMARK  3 active torsions:
REMARK  status: ('A' for Active; 'I' for Inactive)
REMARK    1  A    between atoms: C_2  and  O_4
REMARK    2  A    between atoms: O_4  and  C_5
REMARK    3  A    between atoms: C_5  and  C_8
REMARK                            x       y       z     vdW  Elec       q    Type
REMARK                         _______ _______ _______ _____ _____    ______ ____
ROOT
ATOM      1  C   UNL     1      -9.164  -3.170 124.035  0.00  0.00    +0.000 C 
ATOM      2  F   UNL     1      -8.250  -4.146 124.262  0.00  0.00    +0.000 F 
ATOM      3  F   UNL     1     -10.089  -3.674 123.180  0.00  0.00    +0.000 F 
ENDROOT
BRANCH   1   4
ATOM      4  C   UNL     1      -8.511  -1.923 123.426  0.00  0.00    +0.000 C 
ATOM      5  F   UNL     1      -7.572  -2.282 122.505  0.00  0.00    +0.000 F 
ATOM      6 CL   UNL     1      -9.699  -0.858 122.631  0.00  0.00    +0.000 Cl
ENDBRANCH   1   4
BRANCH   1   7
ATOM      7  O   UNL     1      -9.809  -2.868 125.256  0.00  0.00    +0.000 OA
BRANCH   7   9
ATOM      8  F   UNL     1      -8.661  -1.946 126.911  0.00  0.00    +0.000 F 
ATOM      9  C   UNL     1      -8.940  -3.139 126.326  0.00  0.00    +0.000 C 
ATOM     10  F   UNL     1      -9.600  -3.871 127.251  0.00  0.00    +0.000 F 
ENDBRANCH   7   9
ENDBRANCH   1   7
TORSDOF 3
ENDMDL
