MODEL 1
REMARK VINA RESULT:      -6.8      0.000      0.000
REMARK  Name = Enoxacin
REMARK  5 active torsions:
REMARK  status: ('A' for Active; 'I' for Inactive)
REMARK    1  A    between atoms: C_1  and  C_2
REMARK    2  A    between atoms: C_2  and  N_3
REMARK    3  A    between atoms: C_5  and  C_6
REMARK    4  A    between atoms: C_6  and  O_7
REMARK    5  A    between atoms: C_15  and  N_18
REMARK                            x       y       z     vdW  Elec       q    Type
REMARK                         _______ _______ _______ _____ _____    ______ ____
ROOT
ATOM      1  N   UNL     1      -9.010   5.114 132.929  0.00  0.00    +0.000 N 
ATOM      2  C   UNL     1     -10.206   5.493 132.324  0.00  0.00    +0.000 A 
ATOM      3  C   UNL     1     -10.340   6.359 131.305  0.00  0.00    +0.000 A 
ATOM      4  C   UNL     1      -9.089   6.947 130.792  0.00  0.00    +0.000 A 
ATOM      5  O   UNL     1      -9.124   7.728 129.842  0.00  0.00    +0.000 OA
ATOM      6  C   UNL     1      -7.808   6.580 131.433  0.00  0.00    +0.000 A 
ATOM      7  C   UNL     1      -6.628   7.134 130.961  0.00  0.00    +0.000 A 
ATOM      8  C   UNL     1      -5.434   6.780 131.570  0.00  0.00    +0.000 A 
ATOM      9  F   UNL     1      -4.301   7.320 131.096  0.00  0.00    +0.000 F 
ATOM     10  C   UNL     1      -5.406   5.859 132.627  0.00  0.00    +0.000 A 
ATOM     11  N   UNL     1      -6.573   5.304 133.066  0.00  0.00    +0.000 NA
ATOM     12  C   UNL     1      -7.769   5.665 132.491  0.00  0.00    +0.000 A 
ENDROOT
BRANCH  10  13
ATOM     13  N   UNL     1      -4.214   5.536 133.242  0.00  0.00    +0.000 N 
ATOM     14  C   UNL     1      -3.325   4.464 132.792  0.00  0.00    +0.000 C 
ATOM     15  C   UNL     1      -1.894   5.040 132.545  0.00  0.00    +0.000 C 
ATOM     16  N   UNL     1      -1.341   5.757 133.717  0.00  0.00    +0.000 NA
ATOM     17  C   UNL     1      -2.281   6.826 134.110  0.00  0.00    +0.000 C 
ATOM     18  C   UNL     1      -3.709   6.298 134.389  0.00  0.00    +0.000 C 
ATOM     19  H   UNL     1      -0.443   6.173 133.471  0.00  0.00    +0.000 HD
ENDBRANCH  10  13
BRANCH   1  21
ATOM     20  C   UNL     1      -9.009   2.676 133.311  0.00  0.00    +0.000 C 
ATOM     21  C   UNL     1      -8.921   4.058 133.948  0.00  0.00    +0.000 C 
ENDBRANCH   1  21
BRANCH   3  22
ATOM     22  C   UNL     1     -11.673   6.674 130.739  0.00  0.00    +0.000 C 
ATOM     23  O   UNL     1     -12.639   6.983 131.430  0.00  0.00    +0.000 OA
BRANCH  22  24
ATOM     24  O   UNL     1     -11.759   6.595 129.393  0.00  0.00    +0.000 OA
ATOM     25  H   UNL     1     -12.578   6.991 129.006  0.00  0.00    +0.000 HD
ENDBRANCH  22  24
ENDBRANCH   3  22
TORSDOF 4
ENDMDL
MODEL 2
REMARK VINA RESULT:      -6.5      8.773      9.721
REMARK  Name = Enoxacin
REMARK  5 active torsions:
REMARK  status: ('A' for Active; 'I' for Inactive)
REMARK    1  A    between atoms: C_1  and  C_2
REMARK    2  A    between atoms: C_2  and  N_3
REMARK    3  A    between atoms: C_5  and  C_6
REMARK    4  A    between atoms: C_6  and  O_7
REMARK    5  A    between atoms: C_15  and  N_18
REMARK                            x       y       z     vdW  Elec       q    Type
REMARK                         _______ _______ _______ _____ _____    ______ ____
ROOT
ATOM      1  N   UNL     1      -7.674  -1.925 124.595  0.00  0.00    +0.000 N 
ATOM      2  C   UNL     1      -8.446  -1.111 123.769  0.00  0.00    +0.000 A 
ATOM      3  C   UNL     1      -9.047   0.036 124.126  0.00  0.00    +0.000 A 
ATOM      4  C   UNL     1      -8.856   0.456 125.526  0.00  0.00    +0.000 A 
ATOM      5  O   UNL     1      -9.351   1.510 125.923  0.00  0.00    +0.000 OA
ATOM      6  C   UNL     1      -8.061  -0.403 126.429  0.00  0.00    +0.000 A 
ATOM      7  C   UNL     1      -7.883  -0.019 127.750  0.00  0.00    +0.000 A 
ATOM      8  C   UNL     1      -7.135  -0.833 128.586  0.00  0.00    +0.000 A 
ATOM      9  F   UNL     1      -6.965  -0.444 129.859  0.00  0.00    +0.000 F 
ATOM     10  C   UNL     1      -6.544  -2.012 128.109  0.00  0.00    +0.000 A 
ATOM     11  N   UNL     1      -6.709  -2.366 126.801  0.00  0.00    +0.000 NA
ATOM     12  C   UNL     1      -7.470  -1.584 125.965  0.00  0.00    +0.000 A 
ENDROOT
BRANCH  10  13
ATOM     13  N   UNL     1      -5.825  -2.828 128.959  0.00  0.00    +0.000 N 
ATOM     14  C   UNL     1      -4.364  -2.821 129.060  0.00  0.00    +0.000 C 
ATOM     15  C   UNL     1      -3.943  -2.579 130.545  0.00  0.00    +0.000 C 
ATOM     16  N   UNL     1      -4.554  -3.542 131.490  0.00  0.00    +0.000 NA
ATOM     17  C   UNL     1      -6.023  -3.490 131.341  0.00  0.00    +0.000 C 
ATOM     18  C   UNL     1      -6.489  -3.748 129.888  0.00  0.00    +0.000 C 
ATOM     19  H   UNL     1      -4.304  -3.288 132.446  0.00  0.00    +0.000 HD
ENDBRANCH  10  13
BRANCH   1  21
ATOM     20  C   UNL     1      -5.656  -2.672 123.388  0.00  0.00    +0.000 C 
ATOM     21  C   UNL     1      -6.931  -3.096 124.108  0.00  0.00    +0.000 C 
ENDBRANCH   1  21
BRANCH   3  22
ATOM     22  C   UNL     1      -9.835   0.822 123.147  0.00  0.00    +0.000 C 
ATOM     23  O   UNL     1     -10.770   0.351 122.506  0.00  0.00    +0.000 OA
BRANCH  22  24
ATOM     24  O   UNL     1      -9.453   2.110 123.001  0.00  0.00    +0.000 OA
ATOM     25  H   UNL     1      -9.198   2.365 122.080  0.00  0.00    +0.000 HD
ENDBRANCH  22  24
ENDBRANCH   3  22
TORSDOF 4
ENDMDL
MODEL 3
REMARK VINA RESULT:      -6.5      8.979     10.229
REMARK  Name = Enoxacin
REMARK  5 active torsions:
REMARK  status: ('A' for Active; 'I' for Inactive)
REMARK    1  A    between atoms: C_1  and  C_2
REMARK    2  A    between atoms: C_2  and  N_3
REMARK    3  A    between atoms: C_5  and  C_6
REMARK    4  A    between atoms: C_6  and  O_7
REMARK    5  A    between atoms: C_15  and  N_18
REMARK                            x       y       z     vdW  Elec       q    Type
REMARK                         _______ _______ _______ _____ _____    ______ ____
ROOT
ATOM      1  N   UNL     1      -6.512  -1.476 125.702  0.00  0.00    +0.000 N 
ATOM      2  C   UNL     1      -7.415  -1.571 124.645  0.00  0.00    +0.000 A 
ATOM      3  C   UNL     1      -8.630  -2.142 124.690  0.00  0.00    +0.000 A 
ATOM      4  C   UNL     1      -9.026  -2.712 125.991  0.00  0.00    +0.000 A 
ATOM      5  O   UNL     1     -10.135  -3.228 126.121  0.00  0.00    +0.000 OA
ATOM      6  C   UNL     1      -8.076  -2.645 127.122  0.00  0.00    +0.000 A 
ATOM      7  C   UNL     1      -8.438  -3.186 128.347  0.00  0.00    +0.000 A 
ATOM      8  C   UNL     1      -7.538  -3.116 129.399  0.00  0.00    +0.000 A 
ATOM      9  F   UNL     1      -7.906  -3.636 130.579  0.00  0.00    +0.000 F 
ATOM     10  C   UNL     1      -6.293  -2.490 129.246  0.00  0.00    +0.000 A 
ATOM     11  N   UNL     1      -5.959  -1.943 128.040  0.00  0.00    +0.000 NA
ATOM     12  C   UNL     1      -6.828  -2.027 126.979  0.00  0.00    +0.000 A 
ENDROOT
BRANCH  10  13
ATOM     13  N   UNL     1      -5.395  -2.452 130.293  0.00  0.00    +0.000 N 
ATOM     14  C   UNL     1      -5.328  -1.367 131.274  0.00  0.00    +0.000 C 
ATOM     15  C   UNL     1      -5.460  -1.956 132.715  0.00  0.00    +0.000 C 
ATOM     16  N   UNL     1      -4.473  -3.021 133.005  0.00  0.00    +0.000 NA
ATOM     17  C   UNL     1      -4.603  -4.082 131.985  0.00  0.00    +0.000 C 
ATOM     18  C   UNL     1      -4.453  -3.549 130.540  0.00  0.00    +0.000 C 
ATOM     19  H   UNL     1      -4.658  -3.417 133.927  0.00  0.00    +0.000 HD
ENDBRANCH  10  13
BRANCH   1  21
ATOM     20  C   UNL     1      -5.494   0.763 125.898  0.00  0.00    +0.000 C 
ATOM     21  C   UNL     1      -5.255  -0.717 125.623  0.00  0.00    +0.000 C 
ENDBRANCH   1  21
BRANCH   3  22
ATOM     22  C   UNL     1      -9.506  -2.170 123.495  0.00  0.00    +0.000 C 
ATOM     23  O   UNL     1      -9.671  -1.200 122.762  0.00  0.00    +0.000 OA
BRANCH  22  24
ATOM     24  O   UNL     1     -10.124  -3.349 123.261  0.00  0.00    +0.000 OA
ATOM     25  H   UNL     1     -11.051  -3.405 123.598  0.00  0.00    +0.000 HD
ENDBRANCH  22  24
ENDBRANCH   3  22
TORSDOF 4
ENDMDL
MODEL 4
REMARK VINA RESULT:      -6.4      7.271      7.965
REMARK  Name = Enoxacin
REMARK  5 active torsions:
REMARK  status: ('A' for Active; 'I' for Inactive)
REMARK    1  A    between atoms: C_1  and  C_2
REMARK    2  A    between atoms: C_2  and  N_3
REMARK    3  A    between atoms: C_5  and  C_6
REMARK    4  A    between atoms: C_6  and  O_7
REMARK    5  A    between atoms: C_15  and  N_18
REMARK                            x       y       z     vdW  Elec       q    Type
REMARK                         _______ _______ _______ _____ _____    ______ ____
ROOT
ATOM      1  N   UNL     1      -7.329   2.768 123.874  0.00  0.00    +0.000 N 
ATOM      2  C   UNL     1      -8.460   2.190 123.302  0.00  0.00    +0.000 A 
ATOM      3  C   UNL     1      -9.422   1.516 123.954  0.00  0.00    +0.000 A 
ATOM      4  C   UNL     1      -9.246   1.393 125.413  0.00  0.00    +0.000 A 
ATOM      5  O   UNL     1     -10.097   0.814 126.086  0.00  0.00    +0.000 OA
ATOM      6  C   UNL     1      -8.042   1.977 126.041  0.00  0.00    +0.000 A 
ATOM      7  C   UNL     1      -7.865   1.859 127.412  0.00  0.00    +0.000 A 
ATOM      8  C   UNL     1      -6.732   2.412 127.988  0.00  0.00    +0.000 A 
ATOM      9  F   UNL     1      -6.580   2.296 129.316  0.00  0.00    +0.000 F 
ATOM     10  C   UNL     1      -5.789   3.103 127.213  0.00  0.00    +0.000 A 
ATOM     11  N   UNL     1      -5.988   3.230 125.869  0.00  0.00    +0.000 NA
ATOM     12  C   UNL     1      -7.092   2.665 125.277  0.00  0.00    +0.000 A 
ENDROOT
BRANCH  10  13
ATOM     13  N   UNL     1      -4.652   3.624 127.795  0.00  0.00    +0.000 N 
ATOM     14  C   UNL     1      -3.344   2.967 127.768  0.00  0.00    +0.000 C 
ATOM     15  C   UNL     1      -2.281   3.942 127.167  0.00  0.00    +0.000 C 
ATOM     16  N   UNL     1      -2.225   5.248 127.862  0.00  0.00    +0.000 NA
ATOM     17  C   UNL     1      -3.572   5.856 127.844  0.00  0.00    +0.000 C 
ATOM     18  C   UNL     1      -4.655   4.935 128.453  0.00  0.00    +0.000 C 
ATOM     19  H   UNL     1      -1.571   5.865 127.380  0.00  0.00    +0.000 HD
ENDBRANCH  10  13
BRANCH   1  21
ATOM     20  C   UNL     1      -6.629   3.497 121.623  0.00  0.00    +0.000 C 
ATOM     21  C   UNL     1      -6.387   3.610 123.124  0.00  0.00    +0.000 C 
ENDBRANCH   1  21
BRANCH   3  22
ATOM     22  C   UNL     1     -10.587   0.955 123.231  0.00  0.00    +0.000 C 
ATOM     23  O   UNL     1     -10.480   0.238 122.241  0.00  0.00    +0.000 OA
BRANCH  22  24
ATOM     24  O   UNL     1     -11.795   1.290 123.737  0.00  0.00    +0.000 OA
ATOM     25  H   UNL     1     -12.231   2.059 123.295  0.00  0.00    +0.000 HD
ENDBRANCH  22  24
ENDBRANCH   3  22
TORSDOF 4
ENDMDL
MODEL 5
REMARK VINA RESULT:      -6.3      4.821      7.320
REMARK  Name = Enoxacin
REMARK  5 active torsions:
REMARK  status: ('A' for Active; 'I' for Inactive)
REMARK    1  A    between atoms: C_1  and  C_2
REMARK    2  A    between atoms: C_2  and  N_3
REMARK    3  A    between atoms: C_5  and  C_6
REMARK    4  A    between atoms: C_6  and  O_7
REMARK    5  A    between atoms: C_15  and  N_18
REMARK                            x       y       z     vdW  Elec       q    Type
REMARK                         _______ _______ _______ _____ _____    ______ ____
ROOT
ATOM      1  N   UNL     1      -8.495   2.503 130.319  0.00  0.00    +0.000 N 
ATOM      2  C   UNL     1      -7.803   1.757 131.270  0.00  0.00    +0.000 A 
ATOM      3  C   UNL     1      -7.726   2.024 132.584  0.00  0.00    +0.000 A 
ATOM      4  C   UNL     1      -8.453   3.222 133.042  0.00  0.00    +0.000 A 
ATOM      5  O   UNL     1      -8.454   3.520 134.235  0.00  0.00    +0.000 OA
ATOM      6  C   UNL     1      -9.175   4.045 132.048  0.00  0.00    +0.000 A 
ATOM      7  C   UNL     1      -9.855   5.178 132.469  0.00  0.00    +0.000 A 
ATOM      8  C   UNL     1     -10.529   5.940 131.528  0.00  0.00    +0.000 A 
ATOM      9  F   UNL     1     -11.188   7.029 131.952  0.00  0.00    +0.000 F 
ATOM     10  C   UNL     1     -10.551   5.567 130.176  0.00  0.00    +0.000 A 
ATOM     11  N   UNL     1      -9.895   4.437 129.779  0.00  0.00    +0.000 NA
ATOM     12  C   UNL     1      -9.200   3.685 130.696  0.00  0.00    +0.000 A 
ENDROOT
BRANCH  10  13
ATOM     13  N   UNL     1     -11.202   6.350 129.244  0.00  0.00    +0.000 N 
ATOM     14  C   UNL     1     -12.645   6.596 129.248  0.00  0.00    +0.000 C 
ATOM     15  C   UNL     1     -12.914   8.135 129.260  0.00  0.00    +0.000 C 
ATOM     16  N   UNL     1     -12.236   8.856 128.158  0.00  0.00    +0.000 NA
ATOM     17  C   UNL     1     -10.788   8.570 128.221  0.00  0.00    +0.000 C 
ATOM     18  C   UNL     1     -10.472   7.056 128.186  0.00  0.00    +0.000 C 
ATOM     19  H   UNL     1     -12.385   9.859 128.263  0.00  0.00    +0.000 HD
ENDBRANCH  10  13
BRANCH   1  21
ATOM     20  C   UNL     1      -7.356   2.268 128.143  0.00  0.00    +0.000 C 
ATOM     21  C   UNL     1      -8.653   2.080 128.920  0.00  0.00    +0.000 C 
ENDBRANCH   1  21
BRANCH   3  22
ATOM     22  C   UNL     1      -6.963   1.143 133.500  0.00  0.00    +0.000 C 
ATOM     23  O   UNL     1      -7.108  -0.075 133.534  0.00  0.00    +0.000 OA
BRANCH  22  24
ATOM     24  O   UNL     1      -6.086   1.775 134.310  0.00  0.00    +0.000 OA
ATOM     25  H   UNL     1      -6.453   2.557 134.790  0.00  0.00    +0.000 HD
ENDBRANCH  22  24
ENDBRANCH   3  22
TORSDOF 4
ENDMDL
MODEL 6
REMARK VINA RESULT:      -6.2      8.447     10.209
REMARK  Name = Enoxacin
REMARK  5 active torsions:
REMARK  status: ('A' for Active; 'I' for Inactive)
REMARK    1  A    between atoms: C_1  and  C_2
REMARK    2  A    between atoms: C_2  and  N_3
REMARK    3  A    between atoms: C_5  and  C_6
REMARK    4  A    between atoms: C_6  and  O_7
REMARK    5  A    between atoms: C_15  and  N_18
REMARK                            x       y       z     vdW  Elec       q    Type
REMARK                         _______ _______ _______ _____ _____    ______ ____
ROOT
ATOM      1  N   UNL     1      -5.802   3.409 125.027  0.00  0.00    +0.000 N 
ATOM      2  C   UNL     1      -5.064   4.375 125.707  0.00  0.00    +0.000 A 
ATOM      3  C   UNL     1      -4.350   4.182 126.829  0.00  0.00    +0.000 A 
ATOM      4  C   UNL     1      -4.360   2.811 127.371  0.00  0.00    +0.000 A 
ATOM      5  O   UNL     1      -3.709   2.547 128.381  0.00  0.00    +0.000 OA
ATOM      6  C   UNL     1      -5.156   1.774 126.682  0.00  0.00    +0.000 A 
ATOM      7  C   UNL     1      -5.177   0.483 127.190  0.00  0.00    +0.000 A 
ATOM      8  C   UNL     1      -5.927  -0.480 126.533  0.00  0.00    +0.000 A 
ATOM      9  F   UNL     1      -5.930  -1.725 127.033  0.00  0.00    +0.000 F 
ATOM     10  C   UNL     1      -6.633  -0.173 125.361  0.00  0.00    +0.000 A 
ATOM     11  N   UNL     1      -6.585   1.096 124.860  0.00  0.00    +0.000 NA
ATOM     12  C   UNL     1      -5.869   2.070 125.514  0.00  0.00    +0.000 A 
ENDROOT
BRANCH  10  13
ATOM     13  N   UNL     1      -7.398  -1.134 124.733  0.00  0.00    +0.000 N 
ATOM     14  C   UNL     1      -6.858  -2.133 123.807  0.00  0.00    +0.000 C 
ATOM     15  C   UNL     1      -7.249  -3.564 124.296  0.00  0.00    +0.000 C 
ATOM     16  N   UNL     1      -8.705  -3.736 124.501  0.00  0.00    +0.000 NA
ATOM     17  C   UNL     1      -9.178  -2.706 125.449  0.00  0.00    +0.000 C 
ATOM     18  C   UNL     1      -8.835  -1.267 124.993  0.00  0.00    +0.000 C 
ATOM     19  H   UNL     1      -8.889  -4.660 124.891  0.00  0.00    +0.000 HD
ENDBRANCH  10  13
BRANCH   1  21
ATOM     20  C   UNL     1      -5.461   4.247 122.731  0.00  0.00    +0.000 C 
ATOM     21  C   UNL     1      -6.449   3.654 123.730  0.00  0.00    +0.000 C 
ENDBRANCH   1  21
BRANCH   3  22
ATOM     22  C   UNL     1      -3.594   5.293 127.454  0.00  0.00    +0.000 C 
ATOM     23  O   UNL     1      -4.106   6.366 127.757  0.00  0.00    +0.000 OA
BRANCH  22  24
ATOM     24  O   UNL     1      -2.283   5.046 127.671  0.00  0.00    +0.000 OA
ATOM     25  H   UNL     1      -1.808   4.628 126.912  0.00  0.00    +0.000 HD
ENDBRANCH  22  24
ENDBRANCH   3  22
TORSDOF 4
ENDMDL
MODEL 7
REMARK VINA RESULT:      -6.0      8.006      9.298
REMARK  Name = Enoxacin
REMARK  5 active torsions:
REMARK  status: ('A' for Active; 'I' for Inactive)
REMARK    1  A    between atoms: C_1  and  C_2
REMARK    2  A    between atoms: C_2  and  N_3
REMARK    3  A    between atoms: C_5  and  C_6
REMARK    4  A    between atoms: C_6  and  O_7
REMARK    5  A    between atoms: C_15  and  N_18
REMARK                            x       y       z     vdW  Elec       q    Type
REMARK                         _______ _______ _______ _____ _____    ______ ____
ROOT
ATOM      1  N   UNL     1      -8.176   1.444 126.408  0.00  0.00    +0.000 N 
ATOM      2  C   UNL     1      -8.736   1.658 125.151  0.00  0.00    +0.000 A 
ATOM      3  C   UNL     1      -9.226   0.714 124.330  0.00  0.00    +0.000 A 
ATOM      4  C   UNL     1      -9.157  -0.672 124.829  0.00  0.00    +0.000 A 
ATOM      5  O   UNL     1      -9.610  -1.591 124.148  0.00  0.00    +0.000 OA
ATOM      6  C   UNL     1      -8.545  -0.929 126.149  0.00  0.00    +0.000 A 
ATOM      7  C   UNL     1      -8.469  -2.230 126.623  0.00  0.00    +0.000 A 
ATOM      8  C   UNL     1      -7.894  -2.457 127.863  0.00  0.00    +0.000 A 
ATOM      9  F   UNL     1      -7.835  -3.721 128.309  0.00  0.00    +0.000 F 
ATOM     10  C   UNL     1      -7.417  -1.395 128.645  0.00  0.00    +0.000 A 
ATOM     11  N   UNL     1      -7.518  -0.117 128.176  0.00  0.00    +0.000 NA
ATOM     12  C   UNL     1      -8.061   0.123 126.936  0.00  0.00    +0.000 A 
ENDROOT
BRANCH  10  13
ATOM     13  N   UNL     1      -6.821  -1.637 129.865  0.00  0.00    +0.000 N 
ATOM     14  C   UNL     1      -7.510  -1.514 131.151  0.00  0.00    +0.000 C 
ATOM     15  C   UNL     1      -7.382  -2.854 131.943  0.00  0.00    +0.000 C 
ATOM     16  N   UNL     1      -5.981  -3.304 132.112  0.00  0.00    +0.000 NA
ATOM     17  C   UNL     1      -5.352  -3.414 130.779  0.00  0.00    +0.000 C 
ATOM     18  C   UNL     1      -5.433  -2.100 129.966  0.00  0.00    +0.000 C 
ATOM     19  H   UNL     1      -5.967  -4.216 132.567  0.00  0.00    +0.000 HD
ENDBRANCH  10  13
BRANCH   1  21
ATOM     20  C   UNL     1      -6.486   3.186 126.852  0.00  0.00    +0.000 C 
ATOM     21  C   UNL     1      -7.784   2.533 127.313  0.00  0.00    +0.000 C 
ENDBRANCH   1  21
BRANCH   3  22
ATOM     22  C   UNL     1      -9.809   1.072 123.015  0.00  0.00    +0.000 C 
ATOM     23  O   UNL     1      -9.400   2.005 122.331  0.00  0.00    +0.000 OA
BRANCH  22  24
ATOM     24  O   UNL     1     -10.839   0.296 122.612  0.00  0.00    +0.000 OA
ATOM     25  H   UNL     1     -10.575  -0.562 122.199  0.00  0.00    +0.000 HD
ENDBRANCH  22  24
ENDBRANCH   3  22
TORSDOF 4
ENDMDL
MODEL 8
REMARK VINA RESULT:      -6.0      8.258      8.948
REMARK  Name = Enoxacin
REMARK  5 active torsions:
REMARK  status: ('A' for Active; 'I' for Inactive)
REMARK    1  A    between atoms: C_1  and  C_2
REMARK    2  A    between atoms: C_2  and  N_3
REMARK    3  A    between atoms: C_5  and  C_6
REMARK    4  A    between atoms: C_6  and  O_7
REMARK    5  A    between atoms: C_15  and  N_18
REMARK                            x       y       z     vdW  Elec       q    Type
REMARK                         _______ _______ _______ _____ _____    ______ ____
ROOT
ATOM      1  N   UNL     1      -6.336  -0.970 126.893  0.00  0.00    +0.000 N 
ATOM      2  C   UNL     1      -7.128  -2.008 126.406  0.00  0.00    +0.000 A 
ATOM      3  C   UNL     1      -7.838  -1.994 125.265  0.00  0.00    +0.000 A 
ATOM      4  C   UNL     1      -7.753  -0.757 124.468  0.00  0.00    +0.000 A 
ATOM      5  O   UNL     1      -8.353  -0.676 123.397  0.00  0.00    +0.000 OA
ATOM      6  C   UNL     1      -6.938   0.368 124.975  0.00  0.00    +0.000 A 
ATOM      7  C   UNL     1      -6.859   1.538 124.235  0.00  0.00    +0.000 A 
ATOM      8  C   UNL     1      -6.091   2.584 124.721  0.00  0.00    +0.000 A 
ATOM      9  F   UNL     1      -6.018   3.706 123.990  0.00  0.00    +0.000 F 
ATOM     10  C   UNL     1      -5.382   2.463 125.925  0.00  0.00    +0.000 A 
ATOM     11  N   UNL     1      -5.451   1.297 126.632  0.00  0.00    +0.000 NA
ATOM     12  C   UNL     1      -6.230   0.260 126.178  0.00  0.00    +0.000 A 
ENDROOT
BRANCH  10  13
ATOM     13  N   UNL     1      -4.643   3.522 126.412  0.00  0.00    +0.000 N 
ATOM     14  C   UNL     1      -5.201   4.601 127.229  0.00  0.00    +0.000 C 
ATOM     15  C   UNL     1      -4.395   4.717 128.563  0.00  0.00    +0.000 C 
ATOM     16  N   UNL     1      -2.939   4.883 128.355  0.00  0.00    +0.000 NA
ATOM     17  C   UNL     1      -2.443   3.759 127.533  0.00  0.00    +0.000 C 
ATOM     18  C   UNL     1      -3.197   3.620 126.189  0.00  0.00    +0.000 C 
ATOM     19  H   UNL     1      -2.461   4.876 129.256  0.00  0.00    +0.000 HD
ENDBRANCH  10  13
BRANCH   1  21
ATOM     20  C   UNL     1      -5.012  -2.541 128.260  0.00  0.00    +0.000 C 
ATOM     21  C   UNL     1      -5.476  -1.100 128.077  0.00  0.00    +0.000 C 
ENDBRANCH   1  21
BRANCH   3  22
ATOM     22  C   UNL     1      -8.637  -3.171 124.849  0.00  0.00    +0.000 C 
ATOM     23  O   UNL     1      -8.196  -4.316 124.851  0.00  0.00    +0.000 OA
BRANCH  22  24
ATOM     24  O   UNL     1      -9.902  -2.898 124.457  0.00  0.00    +0.000 OA
ATOM     25  H   UNL     1     -10.605  -3.361 124.975  0.00  0.00    +0.000 HD
ENDBRANCH  22  24
ENDBRANCH   3  22
TORSDOF 4
ENDMDL
MODEL 9
REMARK VINA RESULT:      -6.0      8.030      9.450
REMARK  Name = Enoxacin
REMARK  5 active torsions:
REMARK  status: ('A' for Active; 'I' for Inactive)
REMARK    1  A    between atoms: C_1  and  C_2
REMARK    2  A    between atoms: C_2  and  N_3
REMARK    3  A    between atoms: C_5  and  C_6
REMARK    4  A    between atoms: C_6  and  O_7
REMARK    5  A    between atoms: C_15  and  N_18
REMARK                            x       y       z     vdW  Elec       q    Type
REMARK                         _______ _______ _______ _____ _____    ______ ____
ROOT
ATOM      1  N   UNL     1      -8.309  -0.048 126.287  0.00  0.00    +0.000 N 
ATOM      2  C   UNL     1      -8.587  -0.620 125.047  0.00  0.00    +0.000 A 
ATOM      3  C   UNL     1      -8.678  -1.934 124.783  0.00  0.00    +0.000 A 
ATOM      4  C   UNL     1      -8.466  -2.837 125.929  0.00  0.00    +0.000 A 
ATOM      5  O   UNL     1      -8.561  -4.054 125.776  0.00  0.00    +0.000 OA
ATOM      6  C   UNL     1      -8.147  -2.256 127.251  0.00  0.00    +0.000 A 
ATOM      7  C   UNL     1      -7.938  -3.099 128.332  0.00  0.00    +0.000 A 
ATOM      8  C   UNL     1      -7.640  -2.542 129.565  0.00  0.00    +0.000 A 
ATOM      9  F   UNL     1      -7.449  -3.370 130.603  0.00  0.00    +0.000 F 
ATOM     10  C   UNL     1      -7.574  -1.151 129.733  0.00  0.00    +0.000 A 
ATOM     11  N   UNL     1      -7.803  -0.332 128.665  0.00  0.00    +0.000 NA
ATOM     12  C   UNL     1      -8.074  -0.870 127.429  0.00  0.00    +0.000 A 
ENDROOT
BRANCH  10  13
ATOM     13  N   UNL     1      -7.249  -0.609 130.960  0.00  0.00    +0.000 N 
ATOM     14  C   UNL     1      -5.891  -0.227 131.352  0.00  0.00    +0.000 C 
ATOM     15  C   UNL     1      -5.877   1.269 131.802  0.00  0.00    +0.000 C 
ATOM     16  N   UNL     1      -6.861   1.569 132.867  0.00  0.00    +0.000 NA
ATOM     17  C   UNL     1      -8.205   1.168 132.402  0.00  0.00    +0.000 C 
ATOM     18  C   UNL     1      -8.273  -0.316 131.969  0.00  0.00    +0.000 C 
ATOM     19  H   UNL     1      -6.858   2.570 133.064  0.00  0.00    +0.000 HD
ENDBRANCH  10  13
BRANCH   1  21
ATOM     20  C   UNL     1      -7.289   2.129 125.732  0.00  0.00    +0.000 C 
ATOM     21  C   UNL     1      -8.359   1.399 126.536  0.00  0.00    +0.000 C 
ENDBRANCH   1  21
BRANCH   3  22
ATOM     22  C   UNL     1      -8.991  -2.420 123.419  0.00  0.00    +0.000 C 
ATOM     23  O   UNL     1      -8.331  -2.115 122.430  0.00  0.00    +0.000 OA
BRANCH  22  24
ATOM     24  O   UNL     1     -10.068  -3.231 123.329  0.00  0.00    +0.000 OA
ATOM     25  H   UNL     1     -10.918  -2.771 123.121  0.00  0.00    +0.000 HD
ENDBRANCH  22  24
ENDBRANCH   3  22
TORSDOF 4
ENDMDL
