MODEL 1
REMARK VINA RESULT:      -6.8      0.000      0.000
REMARK  Name = Enoximone
REMARK  5 active torsions:
REMARK  status: ('A' for Active; 'I' for Inactive)
REMARK    1  A    between atoms: C_1  and  S_2
REMARK    2  A    between atoms: S_2  and  C_3
REMARK    3  A    between atoms: C_6  and  C_9
REMARK    4  A    between atoms: C_9  and  C_11
REMARK    5  A    between atoms: C_12  and  C_13
REMARK                            x       y       z     vdW  Elec       q    Type
REMARK                         _______ _______ _______ _____ _____    ______ ____
ROOT
ATOM      1  C   UNL     1     -11.877   6.868 131.018  0.00  0.00    +0.000 C 
ATOM      2  O   UNL     1     -12.742   6.831 131.886  0.00  0.00    +0.000 OA
ENDROOT
BRANCH   1   3
ATOM      3  C   UNL     1     -12.214   7.304 129.648  0.00  0.00    +0.000 A 
ATOM      4  C   UNL     1     -12.704   8.491 129.255  0.00  0.00    +0.000 A 
ATOM      5  C   UNL     1     -12.991   9.699 130.067  0.00  0.00    +0.000 C 
ATOM      6  N   UNL     1     -12.943   8.425 127.900  0.00  0.00    +0.000 N 
ATOM      7  C   UNL     1     -12.557   7.162 127.423  0.00  0.00    +0.000 A 
ATOM      8  O   UNL     1     -12.632   6.743 126.280  0.00  0.00    +0.000 OA
ATOM      9  N   UNL     1     -12.090   6.485 128.552  0.00  0.00    +0.000 N 
ATOM     10  H   UNL     1     -13.330   9.143 127.306  0.00  0.00    +0.000 HD
ATOM     11  H   UNL     1     -11.722   5.546 128.549  0.00  0.00    +0.000 HD
ENDBRANCH   1   3
BRANCH   1  15
ATOM     12  C   UNL     1      -7.754   6.221 132.141  0.00  0.00    +0.000 A 
ATOM     13  C   UNL     1      -8.809   5.763 132.937  0.00  0.00    +0.000 A 
ATOM     14  C   UNL     1     -10.140   5.903 132.517  0.00  0.00    +0.000 A 
ATOM     15  C   UNL     1     -10.439   6.585 131.333  0.00  0.00    +0.000 A 
ATOM     16  C   UNL     1      -9.376   7.043 130.539  0.00  0.00    +0.000 A 
ATOM     17  C   UNL     1      -8.047   6.843 130.928  0.00  0.00    +0.000 A 
BRANCH  12  19
ATOM     18  C   UNL     1      -5.132   6.773 131.346  0.00  0.00    +0.000 C 
ATOM     19  S   UNL     1      -6.069   5.843 132.591  0.00  0.00    +0.000 S 
ENDBRANCH  12  19
ENDBRANCH   1  15
TORSDOF 3
ENDMDL
MODEL 2
REMARK VINA RESULT:      -6.7      1.771      2.406
REMARK  Name = Enoximone
REMARK  5 active torsions:
REMARK  status: ('A' for Active; 'I' for Inactive)
REMARK    1  A    between atoms: C_1  and  S_2
REMARK    2  A    between atoms: S_2  and  C_3
REMARK    3  A    between atoms: C_6  and  C_9
REMARK    4  A    between atoms: C_9  and  C_11
REMARK    5  A    between atoms: C_12  and  C_13
REMARK                            x       y       z     vdW  Elec       q    Type
REMARK                         _______ _______ _______ _____ _____    ______ ____
ROOT
ATOM      1  C   UNL     1     -12.479   7.311 130.839  0.00  0.00    +0.000 C 
ATOM      2  O   UNL     1     -13.372   6.639 131.344  0.00  0.00    +0.000 OA
ENDROOT
BRANCH   1   3
ATOM      3  C   UNL     1     -12.801   8.557 130.116  0.00  0.00    +0.000 A 
ATOM      4  C   UNL     1     -12.893   8.744 128.790  0.00  0.00    +0.000 A 
ATOM      5  C   UNL     1     -12.751   7.754 127.694  0.00  0.00    +0.000 C 
ATOM      6  N   UNL     1     -13.134  10.081 128.564  0.00  0.00    +0.000 N 
ATOM      7  C   UNL     1     -13.229  10.749 129.795  0.00  0.00    +0.000 A 
ATOM      8  O   UNL     1     -13.425  11.938 129.985  0.00  0.00    +0.000 OA
ATOM      9  N   UNL     1     -13.026   9.753 130.754  0.00  0.00    +0.000 N 
ATOM     10  H   UNL     1     -13.234  10.549 127.675  0.00  0.00    +0.000 HD
ATOM     11  H   UNL     1     -13.046   9.902 131.751  0.00  0.00    +0.000 HD
ENDBRANCH   1   3
BRANCH   1  15
ATOM     12  C   UNL     1      -8.310   6.463 131.603  0.00  0.00    +0.000 A 
ATOM     13  C   UNL     1      -9.316   6.030 132.473  0.00  0.00    +0.000 A 
ATOM     14  C   UNL     1     -10.669   6.236 132.168  0.00  0.00    +0.000 A 
ATOM     15  C   UNL     1     -11.033   6.960 131.028  0.00  0.00    +0.000 A 
ATOM     16  C   UNL     1     -10.020   7.393 130.158  0.00  0.00    +0.000 A 
ATOM     17  C   UNL     1      -8.674   7.128 130.433  0.00  0.00    +0.000 A 
BRANCH  12  19
ATOM     18  C   UNL     1      -5.719   7.126 130.793  0.00  0.00    +0.000 C 
ATOM     19  S   UNL     1      -6.613   6.003 131.904  0.00  0.00    +0.000 S 
ENDBRANCH  12  19
ENDBRANCH   1  15
TORSDOF 3
ENDMDL
MODEL 3
REMARK VINA RESULT:      -6.6      1.762      2.764
REMARK  Name = Enoximone
REMARK  5 active torsions:
REMARK  status: ('A' for Active; 'I' for Inactive)
REMARK    1  A    between atoms: C_1  and  S_2
REMARK    2  A    between atoms: S_2  and  C_3
REMARK    3  A    between atoms: C_6  and  C_9
REMARK    4  A    between atoms: C_9  and  C_11
REMARK    5  A    between atoms: C_12  and  C_13
REMARK                            x       y       z     vdW  Elec       q    Type
REMARK                         _______ _______ _______ _____ _____    ______ ____
ROOT
ATOM      1  C   UNL     1     -11.353   6.385 129.954  0.00  0.00    +0.000 C 
ATOM      2  O   UNL     1     -11.901   5.380 129.513  0.00  0.00    +0.000 OA
ENDROOT
BRANCH   1   3
ATOM      3  C   UNL     1     -11.879   7.725 129.628  0.00  0.00    +0.000 A 
ATOM      4  C   UNL     1     -11.679   8.443 128.511  0.00  0.00    +0.000 A 
ATOM      5  C   UNL     1     -10.927   8.076 127.286  0.00  0.00    +0.000 C 
ATOM      6  N   UNL     1     -12.293   9.665 128.675  0.00  0.00    +0.000 N 
ATOM      7  C   UNL     1     -12.928   9.700 129.927  0.00  0.00    +0.000 A 
ATOM      8  O   UNL     1     -13.560  10.622 130.416  0.00  0.00    +0.000 OA
ATOM      9  N   UNL     1     -12.657   8.453 130.495  0.00  0.00    +0.000 N 
ATOM     10  H   UNL     1     -12.310  10.439 128.028  0.00  0.00    +0.000 HD
ATOM     11  H   UNL     1     -12.986   8.149 131.399  0.00  0.00    +0.000 HD
ENDBRANCH   1   3
BRANCH   1  15
ATOM     12  C   UNL     1      -7.946   5.933 132.575  0.00  0.00    +0.000 A 
ATOM     13  C   UNL     1      -7.819   6.496 131.300  0.00  0.00    +0.000 A 
ATOM     14  C   UNL     1      -8.947   6.716 130.496  0.00  0.00    +0.000 A 
ATOM     15  C   UNL     1     -10.210   6.293 130.920  0.00  0.00    +0.000 A 
ATOM     16  C   UNL     1     -10.332   5.729 132.199  0.00  0.00    +0.000 A 
ATOM     17  C   UNL     1      -9.214   5.571 133.026  0.00  0.00    +0.000 A 
BRANCH  12  19
ATOM     18  C   UNL     1      -7.305   5.454 135.252  0.00  0.00    +0.000 C 
ATOM     19  S   UNL     1      -6.532   5.860 133.661  0.00  0.00    +0.000 S 
ENDBRANCH  12  19
ENDBRANCH   1  15
TORSDOF 3
ENDMDL
MODEL 4
REMARK VINA RESULT:      -6.5      3.974      6.052
REMARK  Name = Enoximone
REMARK  5 active torsions:
REMARK  status: ('A' for Active; 'I' for Inactive)
REMARK    1  A    between atoms: C_1  and  S_2
REMARK    2  A    between atoms: S_2  and  C_3
REMARK    3  A    between atoms: C_6  and  C_9
REMARK    4  A    between atoms: C_9  and  C_11
REMARK    5  A    between atoms: C_12  and  C_13
REMARK                            x       y       z     vdW  Elec       q    Type
REMARK                         _______ _______ _______ _____ _____    ______ ____
ROOT
ATOM      1  C   UNL     1      -9.487   5.701 132.150  0.00  0.00    +0.000 C 
ATOM      2  O   UNL     1      -8.975   6.209 133.142  0.00  0.00    +0.000 OA
ENDROOT
BRANCH   1   3
ATOM      3  C   UNL     1      -9.254   4.277 131.836  0.00  0.00    +0.000 A 
ATOM      4  C   UNL     1      -8.335   3.752 131.010  0.00  0.00    +0.000 A 
ATOM      5  C   UNL     1      -7.276   4.441 130.231  0.00  0.00    +0.000 C 
ATOM      6  N   UNL     1      -8.535   2.390 130.962  0.00  0.00    +0.000 N 
ATOM      7  C   UNL     1      -9.596   2.048 131.815  0.00  0.00    +0.000 A 
ATOM      8  O   UNL     1     -10.059   0.938 132.019  0.00  0.00    +0.000 OA
ATOM      9  N   UNL     1     -10.018   3.263 132.360  0.00  0.00    +0.000 N 
ATOM     10  H   UNL     1      -8.025   1.711 130.417  0.00  0.00    +0.000 HD
ATOM     11  H   UNL     1     -10.764   3.365 133.030  0.00  0.00    +0.000 HD
ENDBRANCH   1   3
BRANCH   1  15
ATOM     12  C   UNL     1     -12.121   8.127 129.730  0.00  0.00    +0.000 A 
ATOM     13  C   UNL     1     -10.779   7.936 129.384  0.00  0.00    +0.000 A 
ATOM     14  C   UNL     1      -9.960   7.077 130.130  0.00  0.00    +0.000 A 
ATOM     15  C   UNL     1     -10.449   6.464 131.288  0.00  0.00    +0.000 A 
ATOM     16  C   UNL     1     -11.795   6.659 131.631  0.00  0.00    +0.000 A 
ATOM     17  C   UNL     1     -12.629   7.465 130.846  0.00  0.00    +0.000 A 
BRANCH  12  19
ATOM     18  C   UNL     1     -13.431  10.591 129.581  0.00  0.00    +0.000 C 
ATOM     19  S   UNL     1     -13.197   9.052 128.647  0.00  0.00    +0.000 S 
ENDBRANCH  12  19
ENDBRANCH   1  15
TORSDOF 3
ENDMDL
MODEL 5
REMARK VINA RESULT:      -6.3      9.543     10.709
REMARK  Name = Enoximone
REMARK  5 active torsions:
REMARK  status: ('A' for Active; 'I' for Inactive)
REMARK    1  A    between atoms: C_1  and  S_2
REMARK    2  A    between atoms: S_2  and  C_3
REMARK    3  A    between atoms: C_6  and  C_9
REMARK    4  A    between atoms: C_9  and  C_11
REMARK    5  A    between atoms: C_12  and  C_13
REMARK                            x       y       z     vdW  Elec       q    Type
REMARK                         _______ _______ _______ _____ _____    ______ ____
ROOT
ATOM      1  C   UNL     1      -8.221   2.968 122.958  0.00  0.00    +0.000 C 
ATOM      2  O   UNL     1      -8.119   3.733 123.910  0.00  0.00    +0.000 OA
ENDROOT
BRANCH   1   3
ATOM      3  C   UNL     1      -7.994   3.455 121.582  0.00  0.00    +0.000 A 
ATOM      4  C   UNL     1      -6.827   3.766 120.997  0.00  0.00    +0.000 A 
ATOM      5  C   UNL     1      -5.451   3.660 121.542  0.00  0.00    +0.000 C 
ATOM      6  N   UNL     1      -7.099   4.253 119.738  0.00  0.00    +0.000 N 
ATOM      7  C   UNL     1      -8.484   4.214 119.515  0.00  0.00    +0.000 A 
ATOM      8  O   UNL     1      -9.089   4.574 118.519  0.00  0.00    +0.000 OA
ATOM      9  N   UNL     1      -9.017   3.692 120.696  0.00  0.00    +0.000 N 
ATOM     10  H   UNL     1      -6.441   4.594 119.052  0.00  0.00    +0.000 HD
ATOM     11  H   UNL     1      -9.998   3.522 120.859  0.00  0.00    +0.000 HD
ENDBRANCH   1   3
BRANCH   1  15
ATOM     12  C   UNL     1      -8.746  -1.306 123.324  0.00  0.00    +0.000 A 
ATOM     13  C   UNL     1      -7.544  -0.684 123.677  0.00  0.00    +0.000 A 
ATOM     14  C   UNL     1      -7.417   0.712 123.635  0.00  0.00    +0.000 A 
ATOM     15  C   UNL     1      -8.466   1.502 123.154  0.00  0.00    +0.000 A 
ATOM     16  C   UNL     1      -9.670   0.873 122.801  0.00  0.00    +0.000 A 
ATOM     17  C   UNL     1      -9.816  -0.515 122.907  0.00  0.00    +0.000 A 
BRANCH  12  19
ATOM     18  C   UNL     1      -8.224  -3.277 125.236  0.00  0.00    +0.000 C 
ATOM     19  S   UNL     1      -8.953  -3.059 123.588  0.00  0.00    +0.000 S 
ENDBRANCH  12  19
ENDBRANCH   1  15
TORSDOF 3
ENDMDL
MODEL 6
REMARK VINA RESULT:      -6.1      9.536     10.328
REMARK  Name = Enoximone
REMARK  5 active torsions:
REMARK  status: ('A' for Active; 'I' for Inactive)
REMARK    1  A    between atoms: C_1  and  S_2
REMARK    2  A    between atoms: S_2  and  C_3
REMARK    3  A    between atoms: C_6  and  C_9
REMARK    4  A    between atoms: C_9  and  C_11
REMARK    5  A    between atoms: C_12  and  C_13
REMARK                            x       y       z     vdW  Elec       q    Type
REMARK                         _______ _______ _______ _____ _____    ______ ____
ROOT
ATOM      1  C   UNL     1      -8.979  -2.065 124.982  0.00  0.00    +0.000 C 
ATOM      2  O   UNL     1      -9.732  -2.854 124.422  0.00  0.00    +0.000 OA
ENDROOT
BRANCH   1   3
ATOM      3  C   UNL     1      -8.604  -0.797 124.324  0.00  0.00    +0.000 A 
ATOM      4  C   UNL     1      -7.528  -0.547 123.562  0.00  0.00    +0.000 A 
ATOM      5  C   UNL     1      -6.454  -1.474 123.128  0.00  0.00    +0.000 C 
ATOM      6  N   UNL     1      -7.543   0.790 123.230  0.00  0.00    +0.000 N 
ATOM      7  C   UNL     1      -8.688   1.390 123.776  0.00  0.00    +0.000 A 
ATOM      8  O   UNL     1      -9.027   2.559 123.696  0.00  0.00    +0.000 OA
ATOM      9  N   UNL     1      -9.342   0.355 124.450  0.00  0.00    +0.000 N 
ATOM     10  H   UNL     1      -6.863   1.298 122.684  0.00  0.00    +0.000 HD
ATOM     11  H   UNL     1     -10.215   0.452 124.945  0.00  0.00    +0.000 HD
ENDBRANCH   1   3
BRANCH   1  15
ATOM     12  C   UNL     1      -7.867  -2.730 129.105  0.00  0.00    +0.000 A 
ATOM     13  C   UNL     1      -8.576  -3.690 128.374  0.00  0.00    +0.000 A 
ATOM     14  C   UNL     1      -8.854  -3.497 127.013  0.00  0.00    +0.000 A 
ATOM     15  C   UNL     1      -8.502  -2.299 126.384  0.00  0.00    +0.000 A 
ATOM     16  C   UNL     1      -7.792  -1.339 127.121  0.00  0.00    +0.000 A 
ATOM     17  C   UNL     1      -7.458  -1.563 128.462  0.00  0.00    +0.000 A 
BRANCH  12  19
ATOM     18  C   UNL     1      -5.984  -4.261 130.490  0.00  0.00    +0.000 C 
ATOM     19  S   UNL     1      -7.341  -3.089 130.772  0.00  0.00    +0.000 S 
ENDBRANCH  12  19
ENDBRANCH   1  15
TORSDOF 3
ENDMDL
MODEL 7
REMARK VINA RESULT:      -5.9      8.901     10.431
REMARK  Name = Enoximone
REMARK  5 active torsions:
REMARK  status: ('A' for Active; 'I' for Inactive)
REMARK    1  A    between atoms: C_1  and  S_2
REMARK    2  A    between atoms: S_2  and  C_3
REMARK    3  A    between atoms: C_6  and  C_9
REMARK    4  A    between atoms: C_9  and  C_11
REMARK    5  A    between atoms: C_12  and  C_13
REMARK                            x       y       z     vdW  Elec       q    Type
REMARK                         _______ _______ _______ _____ _____    ______ ____
ROOT
ATOM      1  C   UNL     1      -8.319   2.902 122.420  0.00  0.00    +0.000 C 
ATOM      2  O   UNL     1      -9.049   3.484 121.625  0.00  0.00    +0.000 OA
ENDROOT
BRANCH   1   3
ATOM      3  C   UNL     1      -7.235   3.631 123.109  0.00  0.00    +0.000 A 
ATOM      4  C   UNL     1      -6.000   3.897 122.656  0.00  0.00    +0.000 A 
ATOM      5  C   UNL     1      -5.401   3.586 121.335  0.00  0.00    +0.000 C 
ATOM      6  N   UNL     1      -5.304   4.526 123.664  0.00  0.00    +0.000 N 
ATOM      7  C   UNL     1      -6.145   4.688 124.776  0.00  0.00    +0.000 A 
ATOM      8  O   UNL     1      -5.869   5.194 125.852  0.00  0.00    +0.000 OA
ATOM      9  N   UNL     1      -7.361   4.123 124.385  0.00  0.00    +0.000 N 
ATOM     10  H   UNL     1      -4.344   4.839 123.650  0.00  0.00    +0.000 HD
ATOM     11  H   UNL     1      -8.190   4.088 124.958  0.00  0.00    +0.000 HD
ENDBRANCH   1   3
BRANCH   1  15
ATOM     12  C   UNL     1      -8.834  -1.288 123.346  0.00  0.00    +0.000 A 
ATOM     13  C   UNL     1      -7.647  -0.612 123.650  0.00  0.00    +0.000 A 
ATOM     14  C   UNL     1      -7.526   0.767 123.423  0.00  0.00    +0.000 A 
ATOM     15  C   UNL     1      -8.563   1.474 122.805  0.00  0.00    +0.000 A 
ATOM     16  C   UNL     1      -9.751   0.791 122.502  0.00  0.00    +0.000 A 
ATOM     17  C   UNL     1      -9.892  -0.572 122.791  0.00  0.00    +0.000 A 
BRANCH  12  19
ATOM     18  C   UNL     1      -9.356  -2.828 125.618  0.00  0.00    +0.000 C 
ATOM     19  S   UNL     1      -9.040  -2.991 123.839  0.00  0.00    +0.000 S 
ENDBRANCH  12  19
ENDBRANCH   1  15
TORSDOF 3
ENDMDL
MODEL 8
REMARK VINA RESULT:      -5.9      2.810      4.260
REMARK  Name = Enoximone
REMARK  5 active torsions:
REMARK  status: ('A' for Active; 'I' for Inactive)
REMARK    1  A    between atoms: C_1  and  S_2
REMARK    2  A    between atoms: S_2  and  C_3
REMARK    3  A    between atoms: C_6  and  C_9
REMARK    4  A    between atoms: C_9  and  C_11
REMARK    5  A    between atoms: C_12  and  C_13
REMARK                            x       y       z     vdW  Elec       q    Type
REMARK                         _______ _______ _______ _____ _____    ______ ____
ROOT
ATOM      1  C   UNL     1      -8.581   5.068 133.078  0.00  0.00    +0.000 C 
ATOM      2  O   UNL     1      -8.610   4.542 134.186  0.00  0.00    +0.000 OA
ENDROOT
BRANCH   1   3
ATOM      3  C   UNL     1      -9.828   5.259 132.311  0.00  0.00    +0.000 A 
ATOM      4  C   UNL     1     -10.236   4.596 131.217  0.00  0.00    +0.000 A 
ATOM      5  C   UNL     1      -9.583   3.466 130.511  0.00  0.00    +0.000 C 
ATOM      6  N   UNL     1     -11.418   5.161 130.793  0.00  0.00    +0.000 N 
ATOM      7  C   UNL     1     -11.780   6.193 131.674  0.00  0.00    +0.000 A 
ATOM      8  O   UNL     1     -12.758   6.919 131.609  0.00  0.00    +0.000 OA
ATOM      9  N   UNL     1     -10.760   6.218 132.628  0.00  0.00    +0.000 N 
ATOM     10  H   UNL     1     -11.970   4.907 129.988  0.00  0.00    +0.000 HD
ATOM     11  H   UNL     1     -10.725   6.844 133.417  0.00  0.00    +0.000 HD
ENDBRANCH   1   3
BRANCH   1  15
ATOM     12  C   UNL     1      -4.899   6.843 131.676  0.00  0.00    +0.000 A 
ATOM     13  C   UNL     1      -4.918   5.960 132.761  0.00  0.00    +0.000 A 
ATOM     14  C   UNL     1      -6.107   5.325 133.150  0.00  0.00    +0.000 A 
ATOM     15  C   UNL     1      -7.313   5.633 132.512  0.00  0.00    +0.000 A 
ATOM     16  C   UNL     1      -7.288   6.519 131.425  0.00  0.00    +0.000 A 
ATOM     17  C   UNL     1      -6.089   7.101 130.998  0.00  0.00    +0.000 A 
BRANCH  12  19
ATOM     18  C   UNL     1      -3.838   8.233 129.496  0.00  0.00    +0.000 C 
ATOM     19  S   UNL     1      -3.344   7.472 131.068  0.00  0.00    +0.000 S 
ENDBRANCH  12  19
ENDBRANCH   1  15
TORSDOF 3
ENDMDL
MODEL 9
REMARK VINA RESULT:      -5.9      1.592      1.771
REMARK  Name = Enoximone
REMARK  5 active torsions:
REMARK  status: ('A' for Active; 'I' for Inactive)
REMARK    1  A    between atoms: C_1  and  S_2
REMARK    2  A    between atoms: S_2  and  C_3
REMARK    3  A    between atoms: C_6  and  C_9
REMARK    4  A    between atoms: C_9  and  C_11
REMARK    5  A    between atoms: C_12  and  C_13
REMARK                            x       y       z     vdW  Elec       q    Type
REMARK                         _______ _______ _______ _____ _____    ______ ____
ROOT
ATOM      1  C   UNL     1     -10.658   6.223 130.095  0.00  0.00    +0.000 C 
ATOM      2  O   UNL     1     -11.552   5.755 130.792  0.00  0.00    +0.000 OA
ENDROOT
BRANCH   1   3
ATOM      3  C   UNL     1     -10.983   7.120 128.968  0.00  0.00    +0.000 A 
ATOM      4  C   UNL     1     -11.813   8.175 128.963  0.00  0.00    +0.000 A 
ATOM      5  C   UNL     1     -12.586   8.761 130.086  0.00  0.00    +0.000 C 
ATOM      6  N   UNL     1     -11.872   8.664 127.677  0.00  0.00    +0.000 N 
ATOM      7  C   UNL     1     -11.023   7.908 126.854  0.00  0.00    +0.000 A 
ATOM      8  O   UNL     1     -10.828   8.046 125.658  0.00  0.00    +0.000 OA
ATOM      9  N   UNL     1     -10.468   6.949 127.706  0.00  0.00    +0.000 N 
ATOM     10  H   UNL     1     -12.422   9.439 127.336  0.00  0.00    +0.000 HD
ATOM     11  H   UNL     1      -9.797   6.250 127.425  0.00  0.00    +0.000 HD
ENDBRANCH   1   3
BRANCH   1  15
ATOM     12  C   UNL     1      -6.570   5.417 131.244  0.00  0.00    +0.000 A 
ATOM     13  C   UNL     1      -7.400   4.410 130.740  0.00  0.00    +0.000 A 
ATOM     14  C   UNL     1      -8.695   4.704 130.290  0.00  0.00    +0.000 A 
ATOM     15  C   UNL     1      -9.212   5.997 130.421  0.00  0.00    +0.000 A 
ATOM     16  C   UNL     1      -8.375   7.004 130.927  0.00  0.00    +0.000 A 
ATOM     17  C   UNL     1      -7.060   6.720 131.314  0.00  0.00    +0.000 A 
BRANCH  12  19
ATOM     18  C   UNL     1      -4.238   6.693 132.107  0.00  0.00    +0.000 C 
ATOM     19  S   UNL     1      -4.860   5.062 131.610  0.00  0.00    +0.000 S 
ENDBRANCH  12  19
ENDBRANCH   1  15
TORSDOF 3
ENDMDL
