MODEL 1
REMARK VINA RESULT:      -6.0      0.000      0.000
REMARK  Name = Enprofylline
REMARK  3 active torsions:
REMARK  status: ('A' for Active; 'I' for Inactive)
REMARK    1  A    between atoms: C_1  and  C_2
REMARK    2  A    between atoms: C_2  and  C_3
REMARK    3  A    between atoms: C_3  and  N_4
REMARK                            x       y       z     vdW  Elec       q    Type
REMARK                         _______ _______ _______ _____ _____    ______ ____
ROOT
ATOM      1  N   UNL     1      -9.530   6.252 130.782  0.00  0.00    +0.000 N 
ATOM      2  C   UNL     1     -10.226   7.116 129.959  0.00  0.00    +0.000 A 
ATOM      3  C   UNL     1     -11.520   7.453 130.228  0.00  0.00    +0.000 A 
ATOM      4  N   UNL     1     -11.897   8.299 129.229  0.00  0.00    +0.000 N 
ATOM      5  C   UNL     1     -10.813   8.433 128.400  0.00  0.00    +0.000 A 
ATOM      6  N   UNL     1      -9.781   7.726 128.824  0.00  0.00    +0.000 NA
ATOM      7  C   UNL     1     -12.237   6.968 131.347  0.00  0.00    +0.000 A 
ATOM      8  O   UNL     1     -13.397   7.263 131.611  0.00  0.00    +0.000 OA
ATOM      9  N   UNL     1     -11.485   6.117 132.119  0.00  0.00    +0.000 N 
ATOM     10  C   UNL     1     -10.179   5.725 131.898  0.00  0.00    +0.000 A 
ATOM     11  O   UNL     1      -9.656   4.941 132.691  0.00  0.00    +0.000 OA
ATOM     12  H   UNL     1     -12.804   8.737 129.124  0.00  0.00    +0.000 HD
ATOM     13  H   UNL     1     -11.926   5.730 132.938  0.00  0.00    +0.000 HD
ENDROOT
BRANCH   1  14
ATOM     14  C   UNL     1      -8.144   5.886 130.534  0.00  0.00    +0.000 C 
BRANCH  14  16
ATOM     15  C   UNL     1      -6.267   6.193 132.178  0.00  0.00    +0.000 C 
ATOM     16  C   UNL     1      -7.170   6.881 131.172  0.00  0.00    +0.000 C 
ENDBRANCH  14  16
ENDBRANCH   1  14
TORSDOF 2
ENDMDL
MODEL 2
REMARK VINA RESULT:      -5.7      1.835      2.536
REMARK  Name = Enprofylline
REMARK  3 active torsions:
REMARK  status: ('A' for Active; 'I' for Inactive)
REMARK    1  A    between atoms: C_1  and  C_2
REMARK    2  A    between atoms: C_2  and  C_3
REMARK    3  A    between atoms: C_3  and  N_4
REMARK                            x       y       z     vdW  Elec       q    Type
REMARK                         _______ _______ _______ _____ _____    ______ ____
ROOT
ATOM      1  N   UNL     1     -11.126   6.537 130.050  0.00  0.00    +0.000 N 
ATOM      2  C   UNL     1     -10.969   6.950 128.742  0.00  0.00    +0.000 A 
ATOM      3  C   UNL     1     -11.782   7.904 128.203  0.00  0.00    +0.000 A 
ATOM      4  N   UNL     1     -11.366   8.062 126.916  0.00  0.00    +0.000 N 
ATOM      5  C   UNL     1     -10.320   7.194 126.734  0.00  0.00    +0.000 A 
ATOM      6  N   UNL     1     -10.057   6.508 127.831  0.00  0.00    +0.000 NA
ATOM      7  C   UNL     1     -12.821   8.541 128.923  0.00  0.00    +0.000 A 
ATOM      8  O   UNL     1     -13.558   9.405 128.462  0.00  0.00    +0.000 OA
ATOM      9  N   UNL     1     -12.918   8.082 130.214  0.00  0.00    +0.000 N 
ATOM     10  C   UNL     1     -12.139   7.113 130.816  0.00  0.00    +0.000 A 
ATOM     11  O   UNL     1     -12.371   6.813 131.987  0.00  0.00    +0.000 OA
ATOM     12  H   UNL     1     -11.759   8.698 126.233  0.00  0.00    +0.000 HD
ATOM     13  H   UNL     1     -13.635   8.489 130.793  0.00  0.00    +0.000 HD
ENDROOT
BRANCH   1  14
ATOM     14  C   UNL     1     -10.265   5.534 130.659  0.00  0.00    +0.000 C 
BRANCH  14  16
ATOM     15  C   UNL     1      -9.012   5.926 132.803  0.00  0.00    +0.000 C 
ATOM     16  C   UNL     1      -9.028   6.164 131.305  0.00  0.00    +0.000 C 
ENDBRANCH  14  16
ENDBRANCH   1  14
TORSDOF 2
ENDMDL
MODEL 3
REMARK VINA RESULT:      -5.7      1.728      4.108
REMARK  Name = Enprofylline
REMARK  3 active torsions:
REMARK  status: ('A' for Active; 'I' for Inactive)
REMARK    1  A    between atoms: C_1  and  C_2
REMARK    2  A    between atoms: C_2  and  C_3
REMARK    3  A    between atoms: C_3  and  N_4
REMARK                            x       y       z     vdW  Elec       q    Type
REMARK                         _______ _______ _______ _____ _____    ______ ____
ROOT
ATOM      1  N   UNL     1     -11.455   6.439 129.984  0.00  0.00    +0.000 N 
ATOM      2  C   UNL     1     -10.230   5.824 129.816  0.00  0.00    +0.000 A 
ATOM      3  C   UNL     1      -9.535   5.336 130.884  0.00  0.00    +0.000 A 
ATOM      4  N   UNL     1      -8.386   4.813 130.372  0.00  0.00    +0.000 N 
ATOM      5  C   UNL     1      -8.438   5.011 129.016  0.00  0.00    +0.000 A 
ATOM      6  N   UNL     1      -9.551   5.621 128.652  0.00  0.00    +0.000 NA
ATOM      7  C   UNL     1     -10.003   5.408 132.218  0.00  0.00    +0.000 A 
ATOM      8  O   UNL     1      -9.399   4.971 133.191  0.00  0.00    +0.000 OA
ATOM      9  N   UNL     1     -11.224   6.030 132.309  0.00  0.00    +0.000 N 
ATOM     10  C   UNL     1     -11.972   6.556 131.274  0.00  0.00    +0.000 A 
ATOM     11  O   UNL     1     -13.048   7.093 131.537  0.00  0.00    +0.000 OA
ATOM     12  H   UNL     1      -7.643   4.369 130.897  0.00  0.00    +0.000 HD
ATOM     13  H   UNL     1     -11.626   6.119 133.229  0.00  0.00    +0.000 HD
ENDROOT
BRANCH   1  14
ATOM     14  C   UNL     1     -12.228   6.954 128.865  0.00  0.00    +0.000 C 
BRANCH  14  16
ATOM     15  C   UNL     1     -13.073   9.320 128.789  0.00  0.00    +0.000 C 
ATOM     16  C   UNL     1     -11.881   8.412 128.556  0.00  0.00    +0.000 C 
ENDBRANCH  14  16
ENDBRANCH   1  14
TORSDOF 2
ENDMDL
MODEL 4
REMARK VINA RESULT:      -5.3      9.090     10.083
REMARK  Name = Enprofylline
REMARK  3 active torsions:
REMARK  status: ('A' for Active; 'I' for Inactive)
REMARK    1  A    between atoms: C_1  and  C_2
REMARK    2  A    between atoms: C_2  and  C_3
REMARK    3  A    between atoms: C_3  and  N_4
REMARK                            x       y       z     vdW  Elec       q    Type
REMARK                         _______ _______ _______ _____ _____    ______ ____
ROOT
ATOM      1  N   UNL     1      -8.730  -0.179 123.461  0.00  0.00    +0.000 N 
ATOM      2  C   UNL     1      -7.749   0.299 124.306  0.00  0.00    +0.000 A 
ATOM      3  C   UNL     1      -7.833   1.550 124.845  0.00  0.00    +0.000 A 
ATOM      4  N   UNL     1      -6.715   1.701 125.609  0.00  0.00    +0.000 N 
ATOM      5  C   UNL     1      -6.005   0.533 125.496  0.00  0.00    +0.000 A 
ATOM      6  N   UNL     1      -6.614  -0.337 124.712  0.00  0.00    +0.000 NA
ATOM      7  C   UNL     1      -8.908   2.436 124.597  0.00  0.00    +0.000 A 
ATOM      8  O   UNL     1      -9.007   3.560 125.074  0.00  0.00    +0.000 OA
ATOM      9  N   UNL     1      -9.844   1.895 123.749  0.00  0.00    +0.000 N 
ATOM     10  C   UNL     1      -9.814   0.645 123.162  0.00  0.00    +0.000 A 
ATOM     11  O   UNL     1     -10.738   0.323 122.414  0.00  0.00    +0.000 OA
ATOM     12  H   UNL     1      -6.464   2.520 126.150  0.00  0.00    +0.000 HD
ATOM     13  H   UNL     1     -10.644   2.465 123.525  0.00  0.00    +0.000 HD
ENDROOT
BRANCH   1  14
ATOM     14  C   UNL     1      -8.679  -1.514 122.885  0.00  0.00    +0.000 C 
BRANCH  14  16
ATOM     15  C   UNL     1      -8.213  -3.558 124.271  0.00  0.00    +0.000 C 
ATOM     16  C   UNL     1      -9.270  -2.564 123.829  0.00  0.00    +0.000 C 
ENDBRANCH  14  16
ENDBRANCH   1  14
TORSDOF 2
ENDMDL
MODEL 5
REMARK VINA RESULT:      -5.1     10.275     10.995
REMARK  Name = Enprofylline
REMARK  3 active torsions:
REMARK  status: ('A' for Active; 'I' for Inactive)
REMARK    1  A    between atoms: C_1  and  C_2
REMARK    2  A    between atoms: C_2  and  C_3
REMARK    3  A    between atoms: C_3  and  N_4
REMARK                            x       y       z     vdW  Elec       q    Type
REMARK                         _______ _______ _______ _____ _____    ______ ____
ROOT
ATOM      1  N   UNL     1      -7.450  -1.564 124.092  0.00  0.00    +0.000 N 
ATOM      2  C   UNL     1      -7.491  -0.187 124.003  0.00  0.00    +0.000 A 
ATOM      3  C   UNL     1      -8.548   0.450 123.422  0.00  0.00    +0.000 A 
ATOM      4  N   UNL     1      -8.265   1.781 123.493  0.00  0.00    +0.000 N 
ATOM      5  C   UNL     1      -7.047   1.887 124.114  0.00  0.00    +0.000 A 
ATOM      6  N   UNL     1      -6.556   0.705 124.438  0.00  0.00    +0.000 NA
ATOM      7  C   UNL     1      -9.667  -0.228 122.883  0.00  0.00    +0.000 A 
ATOM      8  O   UNL     1     -10.630   0.323 122.362  0.00  0.00    +0.000 OA
ATOM      9  N   UNL     1      -9.559  -1.592 123.005  0.00  0.00    +0.000 N 
ATOM     10  C   UNL     1      -8.515  -2.298 123.570  0.00  0.00    +0.000 A 
ATOM     11  O   UNL     1      -8.576  -3.528 123.587  0.00  0.00    +0.000 OA
ATOM     12  H   UNL     1      -8.845   2.536 123.150  0.00  0.00    +0.000 HD
ATOM     13  H   UNL     1     -10.319  -2.147 122.646  0.00  0.00    +0.000 HD
ENDROOT
BRANCH   1  14
ATOM     14  C   UNL     1      -6.346  -2.272 124.722  0.00  0.00    +0.000 C 
BRANCH  14  16
ATOM     15  C   UNL     1      -4.787  -4.042 123.854  0.00  0.00    +0.000 C 
ATOM     16  C   UNL     1      -5.236  -2.599 123.721  0.00  0.00    +0.000 C 
ENDBRANCH  14  16
ENDBRANCH   1  14
TORSDOF 2
ENDMDL
MODEL 6
REMARK VINA RESULT:      -5.1      2.510      4.997
REMARK  Name = Enprofylline
REMARK  3 active torsions:
REMARK  status: ('A' for Active; 'I' for Inactive)
REMARK    1  A    between atoms: C_1  and  C_2
REMARK    2  A    between atoms: C_2  and  C_3
REMARK    3  A    between atoms: C_3  and  N_4
REMARK                            x       y       z     vdW  Elec       q    Type
REMARK                         _______ _______ _______ _____ _____    ______ ____
ROOT
ATOM      1  N   UNL     1     -12.055   7.609 128.903  0.00  0.00    +0.000 N 
ATOM      2  C   UNL     1     -11.671   7.075 130.117  0.00  0.00    +0.000 A 
ATOM      3  C   UNL     1     -10.504   6.380 130.242  0.00  0.00    +0.000 A 
ATOM      4  N   UNL     1     -10.440   5.993 131.547  0.00  0.00    +0.000 N 
ATOM      5  C   UNL     1     -11.574   6.471 132.151  0.00  0.00    +0.000 A 
ATOM      6  N   UNL     1     -12.339   7.136 131.304  0.00  0.00    +0.000 NA
ATOM      7  C   UNL     1      -9.607   6.162 129.170  0.00  0.00    +0.000 A 
ATOM      8  O   UNL     1      -8.551   5.547 129.260  0.00  0.00    +0.000 OA
ATOM      9  N   UNL     1     -10.052   6.719 127.996  0.00  0.00    +0.000 N 
ATOM     10  C   UNL     1     -11.225   7.421 127.799  0.00  0.00    +0.000 A 
ATOM     11  O   UNL     1     -11.475   7.846 126.670  0.00  0.00    +0.000 OA
ATOM     12  H   UNL     1      -9.698   5.456 131.977  0.00  0.00    +0.000 HD
ATOM     13  H   UNL     1      -9.467   6.608 127.184  0.00  0.00    +0.000 HD
ENDROOT
BRANCH   1  14
ATOM     14  C   UNL     1     -13.285   8.370 128.741  0.00  0.00    +0.000 C 
BRANCH  14  16
ATOM     15  C   UNL     1     -13.378  10.395 130.227  0.00  0.00    +0.000 C 
ATOM     16  C   UNL     1     -13.038   9.877 128.842  0.00  0.00    +0.000 C 
ENDBRANCH  14  16
ENDBRANCH   1  14
TORSDOF 2
ENDMDL
MODEL 7
REMARK VINA RESULT:      -5.0      2.166      4.236
REMARK  Name = Enprofylline
REMARK  3 active torsions:
REMARK  status: ('A' for Active; 'I' for Inactive)
REMARK    1  A    between atoms: C_1  and  C_2
REMARK    2  A    between atoms: C_2  and  C_3
REMARK    3  A    between atoms: C_3  and  N_4
REMARK                            x       y       z     vdW  Elec       q    Type
REMARK                         _______ _______ _______ _____ _____    ______ ____
ROOT
ATOM      1  N   UNL     1     -10.432   5.735 130.662  0.00  0.00    +0.000 N 
ATOM      2  C   UNL     1      -9.591   4.668 130.416  0.00  0.00    +0.000 A 
ATOM      3  C   UNL     1      -9.081   3.924 131.439  0.00  0.00    +0.000 A 
ATOM      4  N   UNL     1      -8.297   2.976 130.854  0.00  0.00    +0.000 N 
ATOM      5  C   UNL     1      -8.368   3.191 129.502  0.00  0.00    +0.000 A 
ATOM      6  N   UNL     1      -9.152   4.213 129.208  0.00  0.00    +0.000 NA
ATOM      7  C   UNL     1      -9.370   4.170 132.802  0.00  0.00    +0.000 A 
ATOM      8  O   UNL     1      -8.929   3.511 133.737  0.00  0.00    +0.000 OA
ATOM      9  N   UNL     1     -10.211   5.243 132.971  0.00  0.00    +0.000 N 
ATOM     10  C   UNL     1     -10.751   6.043 131.984  0.00  0.00    +0.000 A 
ATOM     11  O   UNL     1     -11.483   6.976 132.315  0.00  0.00    +0.000 OA
ATOM     12  H   UNL     1      -7.767   2.257 131.332  0.00  0.00    +0.000 HD
ATOM     13  H   UNL     1     -10.466   5.481 133.916  0.00  0.00    +0.000 HD
ENDROOT
BRANCH   1  14
ATOM     14  C   UNL     1     -11.007   6.536 129.592  0.00  0.00    +0.000 C 
BRANCH  14  16
ATOM     15  C   UNL     1     -10.631   8.452 128.008  0.00  0.00    +0.000 C 
ATOM     16  C   UNL     1     -10.134   7.748 129.257  0.00  0.00    +0.000 C 
ENDBRANCH  14  16
ENDBRANCH   1  14
TORSDOF 2
ENDMDL
MODEL 8
REMARK VINA RESULT:      -4.9      2.215      4.602
REMARK  Name = Enprofylline
REMARK  3 active torsions:
REMARK  status: ('A' for Active; 'I' for Inactive)
REMARK    1  A    between atoms: C_1  and  C_2
REMARK    2  A    between atoms: C_2  and  C_3
REMARK    3  A    between atoms: C_3  and  N_4
REMARK                            x       y       z     vdW  Elec       q    Type
REMARK                         _______ _______ _______ _____ _____    ______ ____
ROOT
ATOM      1  N   UNL     1     -10.799   6.822 128.838  0.00  0.00    +0.000 N 
ATOM      2  C   UNL     1     -11.248   6.734 130.141  0.00  0.00    +0.000 A 
ATOM      3  C   UNL     1     -10.648   5.898 131.036  0.00  0.00    +0.000 A 
ATOM      4  N   UNL     1     -11.335   6.049 132.203  0.00  0.00    +0.000 N 
ATOM      5  C   UNL     1     -12.321   6.970 131.958  0.00  0.00    +0.000 A 
ATOM      6  N   UNL     1     -12.288   7.405 130.712  0.00  0.00    +0.000 NA
ATOM      7  C   UNL     1      -9.540   5.079 130.717  0.00  0.00    +0.000 A 
ATOM      8  O   UNL     1      -8.981   4.325 131.507  0.00  0.00    +0.000 OA
ATOM      9  N   UNL     1      -9.148   5.218 129.408  0.00  0.00    +0.000 N 
ATOM     10  C   UNL     1      -9.717   6.033 128.450  0.00  0.00    +0.000 A 
ATOM     11  O   UNL     1      -9.243   6.027 127.313  0.00  0.00    +0.000 OA
ATOM     12  H   UNL     1     -11.149   5.569 133.075  0.00  0.00    +0.000 HD
ATOM     13  H   UNL     1      -8.361   4.667 129.104  0.00  0.00    +0.000 HD
ENDROOT
BRANCH   1  14
ATOM     14  C   UNL     1     -11.405   7.717 127.864  0.00  0.00    +0.000 C 
BRANCH  14  16
ATOM     15  C   UNL     1     -13.886   8.038 127.623  0.00  0.00    +0.000 C 
ATOM     16  C   UNL     1     -12.705   7.143 127.296  0.00  0.00    +0.000 C 
ENDBRANCH  14  16
ENDBRANCH   1  14
TORSDOF 2
ENDMDL
MODEL 9
REMARK VINA RESULT:      -4.9      8.607      9.402
REMARK  Name = Enprofylline
REMARK  3 active torsions:
REMARK  status: ('A' for Active; 'I' for Inactive)
REMARK    1  A    between atoms: C_1  and  C_2
REMARK    2  A    between atoms: C_2  and  C_3
REMARK    3  A    between atoms: C_3  and  N_4
REMARK                            x       y       z     vdW  Elec       q    Type
REMARK                         _______ _______ _______ _____ _____    ______ ____
ROOT
ATOM      1  N   UNL     1      -7.652   1.740 124.353  0.00  0.00    +0.000 N 
ATOM      2  C   UNL     1      -7.740   0.491 123.773  0.00  0.00    +0.000 A 
ATOM      3  C   UNL     1      -8.914   0.045 123.238  0.00  0.00    +0.000 A 
ATOM      4  N   UNL     1      -8.655  -1.207 122.768  0.00  0.00    +0.000 N 
ATOM      5  C   UNL     1      -7.336  -1.462 123.042  0.00  0.00    +0.000 A 
ATOM      6  N   UNL     1      -6.756  -0.444 123.650  0.00  0.00    +0.000 NA
ATOM      7  C   UNL     1     -10.105   0.808 123.224  0.00  0.00    +0.000 A 
ATOM      8  O   UNL     1     -11.167   0.432 122.744  0.00  0.00    +0.000 OA
ATOM      9  N   UNL     1      -9.943   2.038 123.817  0.00  0.00    +0.000 N 
ATOM     10  C   UNL     1      -8.792   2.544 124.386  0.00  0.00    +0.000 A 
ATOM     11  O   UNL     1      -8.826   3.668 124.886  0.00  0.00    +0.000 OA
ATOM     12  H   UNL     1      -9.315  -1.823 122.309  0.00  0.00    +0.000 HD
ATOM     13  H   UNL     1     -10.748   2.643 123.845  0.00  0.00    +0.000 HD
ENDROOT
BRANCH   1  14
ATOM     14  C   UNL     1      -6.412   2.252 124.916  0.00  0.00    +0.000 C 
BRANCH  14  16
ATOM     15  C   UNL     1      -6.138   3.030 127.291  0.00  0.00    +0.000 C 
ATOM     16  C   UNL     1      -6.230   1.824 126.375  0.00  0.00    +0.000 C 
ENDBRANCH  14  16
ENDBRANCH   1  14
TORSDOF 2
ENDMDL
