MODEL 1
REMARK VINA RESULT:      -7.4      0.000      0.000
REMARK  Name = Ensulizole
REMARK  3 active torsions:
REMARK  status: ('A' for Active; 'I' for Inactive)
REMARK    1  A    between atoms: O_1  and  S_2
REMARK    2  A    between atoms: S_2  and  C_5
REMARK    3  A    between atoms: C_12  and  C_14
REMARK                            x       y       z     vdW  Elec       q    Type
REMARK                         _______ _______ _______ _____ _____    ______ ____
ROOT
ATOM      1  C   UNL     1      -8.640  -0.334 124.983  0.00  0.00    +0.000 A 
ATOM      2  C   UNL     1      -7.570  -0.044 124.119  0.00  0.00    +0.000 A 
ATOM      3  C   UNL     1      -7.686   1.134 123.372  0.00  0.00    +0.000 A 
ATOM      4  C   UNL     1      -8.793   1.974 123.437  0.00  0.00    +0.000 A 
ATOM      5  C   UNL     1      -9.870   1.635 124.269  0.00  0.00    +0.000 A 
ATOM      6  C   UNL     1      -9.780   0.477 125.050  0.00  0.00    +0.000 A 
ATOM      7  N   UNL     1      -8.624   3.070 122.630  0.00  0.00    +0.000 NA
ATOM      8  C   UNL     1      -7.447   2.919 122.053  0.00  0.00    +0.000 A 
ATOM      9  N   UNL     1      -6.848   1.757 122.480  0.00  0.00    +0.000 N 
ATOM     10  H   UNL     1      -5.931   1.444 122.201  0.00  0.00    +0.000 HD
ENDROOT
BRANCH   8  11
ATOM     11  C   UNL     1      -6.847   3.824 121.081  0.00  0.00    +0.000 A 
ATOM     12  C   UNL     1      -7.518   4.125 119.889  0.00  0.00    +0.000 A 
ATOM     13  C   UNL     1      -6.887   4.876 118.895  0.00  0.00    +0.000 A 
ATOM     14  C   UNL     1      -5.610   5.392 119.115  0.00  0.00    +0.000 A 
ATOM     15  C   UNL     1      -4.946   5.121 120.310  0.00  0.00    +0.000 A 
ATOM     16  C   UNL     1      -5.558   4.333 121.287  0.00  0.00    +0.000 A 
ENDBRANCH   8  11
BRANCH   1  17
ATOM     17  S   UNL     1      -8.557  -1.743 126.064  0.00  0.00    +0.000 S 
ATOM     18  O   UNL     1      -9.749  -2.548 125.877  0.00  0.00    +0.000 OA
ATOM     19  O   UNL     1      -8.158  -1.290 127.375  0.00  0.00    +0.000 OA
BRANCH  17  20
ATOM     20  O   UNL     1      -7.329  -2.613 125.479  0.00  0.00    +0.000 OA
ATOM     21  H   UNL     1      -7.592  -2.974 124.607  0.00  0.00    +0.000 HD
ENDBRANCH  17  20
ENDBRANCH   1  17
TORSDOF 3
ENDMDL
MODEL 2
REMARK VINA RESULT:      -7.2      9.685     10.521
REMARK  Name = Ensulizole
REMARK  3 active torsions:
REMARK  status: ('A' for Active; 'I' for Inactive)
REMARK    1  A    between atoms: O_1  and  S_2
REMARK    2  A    between atoms: S_2  and  C_5
REMARK    3  A    between atoms: C_12  and  C_14
REMARK                            x       y       z     vdW  Elec       q    Type
REMARK                         _______ _______ _______ _____ _____    ______ ____
ROOT
ATOM      1  C   UNL     1      -7.402   5.519 133.121  0.00  0.00    +0.000 A 
ATOM      2  C   UNL     1      -8.803   5.527 133.008  0.00  0.00    +0.000 A 
ATOM      3  C   UNL     1      -9.325   6.180 131.886  0.00  0.00    +0.000 A 
ATOM      4  C   UNL     1      -8.534   6.819 130.936  0.00  0.00    +0.000 A 
ATOM      5  C   UNL     1      -7.141   6.840 131.099  0.00  0.00    +0.000 A 
ATOM      6  C   UNL     1      -6.580   6.176 132.196  0.00  0.00    +0.000 A 
ATOM      7  N   UNL     1      -9.303   7.341 129.929  0.00  0.00    +0.000 NA
ATOM      8  C   UNL     1     -10.554   7.058 130.242  0.00  0.00    +0.000 A 
ATOM      9  N   UNL     1     -10.606   6.354 131.422  0.00  0.00    +0.000 N 
ATOM     10  H   UNL     1     -11.450   6.000 131.847  0.00  0.00    +0.000 HD
ENDROOT
BRANCH   8  11
ATOM     11  C   UNL     1     -11.736   7.442 129.481  0.00  0.00    +0.000 A 
ATOM     12  C   UNL     1     -12.526   6.465 128.865  0.00  0.00    +0.000 A 
ATOM     13  C   UNL     1     -13.575   6.835 128.021  0.00  0.00    +0.000 A 
ATOM     14  C   UNL     1     -13.887   8.182 127.845  0.00  0.00    +0.000 A 
ATOM     15  C   UNL     1     -13.124   9.162 128.477  0.00  0.00    +0.000 A 
ATOM     16  C   UNL     1     -12.047   8.794 129.287  0.00  0.00    +0.000 A 
ENDBRANCH   8  11
BRANCH   1  17
ATOM     17  S   UNL     1      -6.618   4.625 134.443  0.00  0.00    +0.000 S 
ATOM     18  O   UNL     1      -7.259   4.980 135.694  0.00  0.00    +0.000 OA
ATOM     19  O   UNL     1      -5.188   4.729 134.278  0.00  0.00    +0.000 OA
BRANCH  17  20
ATOM     20  O   UNL     1      -7.009   3.084 134.158  0.00  0.00    +0.000 OA
ATOM     21  H   UNL     1      -6.255   2.518 134.425  0.00  0.00    +0.000 HD
ENDBRANCH  17  20
ENDBRANCH   1  17
TORSDOF 3
ENDMDL
MODEL 3
REMARK VINA RESULT:      -7.1     10.000     11.714
REMARK  Name = Ensulizole
REMARK  3 active torsions:
REMARK  status: ('A' for Active; 'I' for Inactive)
REMARK    1  A    between atoms: O_1  and  S_2
REMARK    2  A    between atoms: S_2  and  C_5
REMARK    3  A    between atoms: C_12  and  C_14
REMARK                            x       y       z     vdW  Elec       q    Type
REMARK                         _______ _______ _______ _____ _____    ______ ____
ROOT
ATOM      1  C   UNL     1     -11.384   7.443 129.411  0.00  0.00    +0.000 A 
ATOM      2  C   UNL     1      -9.999   7.364 129.633  0.00  0.00    +0.000 A 
ATOM      3  C   UNL     1      -9.605   6.838 130.869  0.00  0.00    +0.000 A 
ATOM      4  C   UNL     1     -10.504   6.437 131.851  0.00  0.00    +0.000 A 
ATOM      5  C   UNL     1     -11.881   6.574 131.625  0.00  0.00    +0.000 A 
ATOM      6  C   UNL     1     -12.315   7.074 130.390  0.00  0.00    +0.000 A 
ATOM      7  N   UNL     1      -9.846   5.929 132.941  0.00  0.00    +0.000 NA
ATOM      8  C   UNL     1      -8.559   6.024 132.665  0.00  0.00    +0.000 A 
ATOM      9  N   UNL     1      -8.374   6.569 131.416  0.00  0.00    +0.000 N 
ATOM     10  H   UNL     1      -7.478   6.711 130.975  0.00  0.00    +0.000 HD
ENDROOT
BRANCH   8  11
ATOM     11  C   UNL     1      -7.462   5.637 133.544  0.00  0.00    +0.000 A 
ATOM     12  C   UNL     1      -7.724   5.205 134.850  0.00  0.00    +0.000 A 
ATOM     13  C   UNL     1      -6.673   4.968 135.738  0.00  0.00    +0.000 A 
ATOM     14  C   UNL     1      -5.353   5.091 135.306  0.00  0.00    +0.000 A 
ATOM     15  C   UNL     1      -5.083   5.493 133.999  0.00  0.00    +0.000 A 
ATOM     16  C   UNL     1      -6.133   5.772 133.123  0.00  0.00    +0.000 A 
ENDBRANCH   8  11
BRANCH   1  17
ATOM     17  S   UNL     1     -12.006   7.989 127.837  0.00  0.00    +0.000 S 
ATOM     18  O   UNL     1     -10.897   8.472 127.037  0.00  0.00    +0.000 OA
ATOM     19  O   UNL     1     -13.175   8.805 128.066  0.00  0.00    +0.000 OA
BRANCH  17  20
ATOM     20  O   UNL     1     -12.517   6.632 127.127  0.00  0.00    +0.000 OA
ATOM     21  H   UNL     1     -11.737   6.078 126.920  0.00  0.00    +0.000 HD
ENDBRANCH  17  20
ENDBRANCH   1  17
TORSDOF 3
ENDMDL
MODEL 4
REMARK VINA RESULT:      -7.1      4.403      7.568
REMARK  Name = Ensulizole
REMARK  3 active torsions:
REMARK  status: ('A' for Active; 'I' for Inactive)
REMARK    1  A    between atoms: O_1  and  S_2
REMARK    2  A    between atoms: S_2  and  C_5
REMARK    3  A    between atoms: C_12  and  C_14
REMARK                            x       y       z     vdW  Elec       q    Type
REMARK                         _______ _______ _______ _____ _____    ______ ____
ROOT
ATOM      1  C   UNL     1      -7.543   2.381 122.672  0.00  0.00    +0.000 A 
ATOM      2  C   UNL     1      -6.800   1.582 123.558  0.00  0.00    +0.000 A 
ATOM      3  C   UNL     1      -7.541   0.728 124.383  0.00  0.00    +0.000 A 
ATOM      4  C   UNL     1      -8.931   0.671 124.373  0.00  0.00    +0.000 A 
ATOM      5  C   UNL     1      -9.651   1.516 123.515  0.00  0.00    +0.000 A 
ATOM      6  C   UNL     1      -8.944   2.367 122.657  0.00  0.00    +0.000 A 
ATOM      7  N   UNL     1      -9.389  -0.275 125.253  0.00  0.00    +0.000 NA
ATOM      8  C   UNL     1      -8.317  -0.792 125.822  0.00  0.00    +0.000 A 
ATOM      9  N   UNL     1      -7.177  -0.209 125.319  0.00  0.00    +0.000 N 
ATOM     10  H   UNL     1      -6.236  -0.462 125.579  0.00  0.00    +0.000 HD
ENDROOT
BRANCH   8  11
ATOM     11  C   UNL     1      -8.305  -1.819 126.857  0.00  0.00    +0.000 A 
ATOM     12  C   UNL     1      -8.928  -3.052 126.633  0.00  0.00    +0.000 A 
ATOM     13  C   UNL     1      -9.042  -3.983 127.668  0.00  0.00    +0.000 A 
ATOM     14  C   UNL     1      -8.470  -3.717 128.911  0.00  0.00    +0.000 A 
ATOM     15  C   UNL     1      -7.823  -2.503 129.135  0.00  0.00    +0.000 A 
ATOM     16  C   UNL     1      -7.747  -1.553 128.114  0.00  0.00    +0.000 A 
ENDBRANCH   8  11
BRANCH   1  17
ATOM     17  S   UNL     1      -6.710   3.423 121.496  0.00  0.00    +0.000 S 
ATOM     18  O   UNL     1      -7.699   4.050 120.642  0.00  0.00    +0.000 OA
ATOM     19  O   UNL     1      -5.599   2.687 120.941  0.00  0.00    +0.000 OA
BRANCH  17  20
ATOM     20  O   UNL     1      -6.081   4.605 122.400  0.00  0.00    +0.000 OA
ATOM     21  H   UNL     1      -5.334   5.006 121.909  0.00  0.00    +0.000 HD
ENDBRANCH  17  20
ENDBRANCH   1  17
TORSDOF 3
ENDMDL
MODEL 5
REMARK VINA RESULT:      -6.9     10.137     10.972
REMARK  Name = Ensulizole
REMARK  3 active torsions:
REMARK  status: ('A' for Active; 'I' for Inactive)
REMARK    1  A    between atoms: O_1  and  S_2
REMARK    2  A    between atoms: S_2  and  C_5
REMARK    3  A    between atoms: C_12  and  C_14
REMARK                            x       y       z     vdW  Elec       q    Type
REMARK                         _______ _______ _______ _____ _____    ______ ____
ROOT
ATOM      1  C   UNL     1      -9.784   6.400 131.340  0.00  0.00    +0.000 A 
ATOM      2  C   UNL     1      -8.653   6.911 130.680  0.00  0.00    +0.000 A 
ATOM      3  C   UNL     1      -7.425   6.705 131.318  0.00  0.00    +0.000 A 
ATOM      4  C   UNL     1      -7.299   6.065 132.547  0.00  0.00    +0.000 A 
ATOM      5  C   UNL     1      -8.448   5.609 133.209  0.00  0.00    +0.000 A 
ATOM      6  C   UNL     1      -9.693   5.775 132.590  0.00  0.00    +0.000 A 
ATOM      7  N   UNL     1      -5.983   5.970 132.917  0.00  0.00    +0.000 NA
ATOM      8  C   UNL     1      -5.291   6.554 131.957  0.00  0.00    +0.000 A 
ATOM      9  N   UNL     1      -6.132   7.011 130.969  0.00  0.00    +0.000 N 
ATOM     10  H   UNL     1      -5.832   7.464 130.120  0.00  0.00    +0.000 HD
ENDROOT
BRANCH   8  11
ATOM     11  C   UNL     1      -3.844   6.728 131.926  0.00  0.00    +0.000 A 
ATOM     12  C   UNL     1      -3.110   6.326 130.804  0.00  0.00    +0.000 A 
ATOM     13  C   UNL     1      -1.714   6.360 130.825  0.00  0.00    +0.000 A 
ATOM     14  C   UNL     1      -1.046   6.864 131.940  0.00  0.00    +0.000 A 
ATOM     15  C   UNL     1      -1.770   7.293 133.051  0.00  0.00    +0.000 A 
ATOM     16  C   UNL     1      -3.164   7.219 133.047  0.00  0.00    +0.000 A 
ENDBRANCH   8  11
BRANCH   1  17
ATOM     17  S   UNL     1     -11.386   6.500 130.575  0.00  0.00    +0.000 S 
ATOM     18  O   UNL     1     -11.577   5.336 129.732  0.00  0.00    +0.000 OA
ATOM     19  O   UNL     1     -11.562   7.836 130.057  0.00  0.00    +0.000 OA
BRANCH  17  20
ATOM     20  O   UNL     1     -12.418   6.339 131.807  0.00  0.00    +0.000 OA
ATOM     21  H   UNL     1     -11.902   6.183 132.625  0.00  0.00    +0.000 HD
ENDBRANCH  17  20
ENDBRANCH   1  17
TORSDOF 3
ENDMDL
MODEL 6
REMARK VINA RESULT:      -6.9      5.828      9.439
REMARK  Name = Ensulizole
REMARK  3 active torsions:
REMARK  status: ('A' for Active; 'I' for Inactive)
REMARK    1  A    between atoms: O_1  and  S_2
REMARK    2  A    between atoms: S_2  and  C_5
REMARK    3  A    between atoms: C_12  and  C_14
REMARK                            x       y       z     vdW  Elec       q    Type
REMARK                         _______ _______ _______ _____ _____    ______ ____
ROOT
ATOM      1  C   UNL     1      -8.015  -2.143 124.875  0.00  0.00    +0.000 A 
ATOM      2  C   UNL     1      -8.553  -2.809 125.989  0.00  0.00    +0.000 A 
ATOM      3  C   UNL     1      -7.742  -2.853 127.129  0.00  0.00    +0.000 A 
ATOM      4  C   UNL     1      -6.463  -2.307 127.178  0.00  0.00    +0.000 A 
ATOM      5  C   UNL     1      -5.930  -1.693 126.036  0.00  0.00    +0.000 A 
ATOM      6  C   UNL     1      -6.721  -1.607 124.884  0.00  0.00    +0.000 A 
ATOM      7  N   UNL     1      -5.912  -2.462 128.424  0.00  0.00    +0.000 NA
ATOM      8  C   UNL     1      -6.811  -3.108 129.142  0.00  0.00    +0.000 A 
ATOM      9  N   UNL     1      -7.935  -3.362 128.390  0.00  0.00    +0.000 N 
ATOM     10  H   UNL     1      -8.768  -3.816 128.731  0.00  0.00    +0.000 HD
ENDROOT
BRANCH   8  11
ATOM     11  C   UNL     1      -6.660  -3.530 130.529  0.00  0.00    +0.000 A 
ATOM     12  C   UNL     1      -7.353  -2.865 131.548  0.00  0.00    +0.000 A 
ATOM     13  C   UNL     1      -7.104  -3.172 132.887  0.00  0.00    +0.000 A 
ATOM     14  C   UNL     1      -6.215  -4.195 133.214  0.00  0.00    +0.000 A 
ATOM     15  C   UNL     1      -5.542  -4.882 132.206  0.00  0.00    +0.000 A 
ATOM     16  C   UNL     1      -5.758  -4.546 130.868  0.00  0.00    +0.000 A 
ENDBRANCH   8  11
BRANCH   1  17
ATOM     17  S   UNL     1      -8.995  -1.924 123.407  0.00  0.00    +0.000 S 
ATOM     18  O   UNL     1      -8.159  -2.163 122.246  0.00  0.00    +0.000 OA
ATOM     19  O   UNL     1      -9.756  -0.705 123.543  0.00  0.00    +0.000 OA
BRANCH  17  20
ATOM     20  O   UNL     1     -10.054  -3.142 123.459  0.00  0.00    +0.000 OA
ATOM     21  H   UNL     1     -10.807  -2.875 124.024  0.00  0.00    +0.000 HD
ENDBRANCH  17  20
ENDBRANCH   1  17
TORSDOF 3
ENDMDL
MODEL 7
REMARK VINA RESULT:      -6.8      9.905     10.695
REMARK  Name = Ensulizole
REMARK  3 active torsions:
REMARK  status: ('A' for Active; 'I' for Inactive)
REMARK    1  A    between atoms: O_1  and  S_2
REMARK    2  A    between atoms: S_2  and  C_5
REMARK    3  A    between atoms: C_12  and  C_14
REMARK                            x       y       z     vdW  Elec       q    Type
REMARK                         _______ _______ _______ _____ _____    ______ ____
ROOT
ATOM      1  C   UNL     1      -6.758   5.954 132.671  0.00  0.00    +0.000 A 
ATOM      2  C   UNL     1      -7.140   6.573 131.469  0.00  0.00    +0.000 A 
ATOM      3  C   UNL     1      -8.515   6.619 131.212  0.00  0.00    +0.000 A 
ATOM      4  C   UNL     1      -9.470   6.068 132.060  0.00  0.00    +0.000 A 
ATOM      5  C   UNL     1      -9.059   5.411 133.229  0.00  0.00    +0.000 A 
ATOM      6  C   UNL     1      -7.693   5.366 133.532  0.00  0.00    +0.000 A 
ATOM      7  N   UNL     1     -10.736   6.290 131.583  0.00  0.00    +0.000 NA
ATOM      8  C   UNL     1     -10.587   6.947 130.448  0.00  0.00    +0.000 A 
ATOM      9  N   UNL     1      -9.254   7.166 130.191  0.00  0.00    +0.000 N 
ATOM     10  H   UNL     1      -8.894   7.675 129.398  0.00  0.00    +0.000 HD
ENDROOT
BRANCH   8  11
ATOM     11  C   UNL     1     -11.659   7.376 129.558  0.00  0.00    +0.000 A 
ATOM     12  C   UNL     1     -11.872   8.738 129.316  0.00  0.00    +0.000 A 
ATOM     13  C   UNL     1     -12.981   9.158 128.579  0.00  0.00    +0.000 A 
ATOM     14  C   UNL     1     -13.844   8.217 128.018  0.00  0.00    +0.000 A 
ATOM     15  C   UNL     1     -13.623   6.857 128.230  0.00  0.00    +0.000 A 
ATOM     16  C   UNL     1     -12.539   6.438 129.004  0.00  0.00    +0.000 A 
ENDBRANCH   8  11
BRANCH   1  17
ATOM     17  S   UNL     1      -5.048   5.934 133.160  0.00  0.00    +0.000 S 
ATOM     18  O   UNL     1      -4.954   6.335 134.551  0.00  0.00    +0.000 OA
ATOM     19  O   UNL     1      -4.272   6.593 132.137  0.00  0.00    +0.000 OA
BRANCH  17  20
ATOM     20  O   UNL     1      -4.648   4.370 133.114  0.00  0.00    +0.000 OA
ATOM     21  H   UNL     1      -4.079   4.172 133.887  0.00  0.00    +0.000 HD
ENDBRANCH  17  20
ENDBRANCH   1  17
TORSDOF 3
ENDMDL
MODEL 8
REMARK VINA RESULT:      -6.8     10.680     12.608
REMARK  Name = Ensulizole
REMARK  3 active torsions:
REMARK  status: ('A' for Active; 'I' for Inactive)
REMARK    1  A    between atoms: O_1  and  S_2
REMARK    2  A    between atoms: S_2  and  C_5
REMARK    3  A    between atoms: C_12  and  C_14
REMARK                            x       y       z     vdW  Elec       q    Type
REMARK                         _______ _______ _______ _____ _____    ______ ____
ROOT
ATOM      1  C   UNL     1     -10.885   6.845 130.865  0.00  0.00    +0.000 A 
ATOM      2  C   UNL     1     -10.847   6.247 132.136  0.00  0.00    +0.000 A 
ATOM      3  C   UNL     1      -9.574   6.010 132.666  0.00  0.00    +0.000 A 
ATOM      4  C   UNL     1      -8.396   6.309 131.989  0.00  0.00    +0.000 A 
ATOM      5  C   UNL     1      -8.461   6.858 130.700  0.00  0.00    +0.000 A 
ATOM      6  C   UNL     1      -9.717   7.132 130.146  0.00  0.00    +0.000 A 
ATOM      7  N   UNL     1      -7.301   6.007 132.756  0.00  0.00    +0.000 NA
ATOM      8  C   UNL     1      -7.771   5.510 133.884  0.00  0.00    +0.000 A 
ATOM      9  N   UNL     1      -9.146   5.497 133.866  0.00  0.00    +0.000 N 
ATOM     10  H   UNL     1      -9.731   5.191 134.629  0.00  0.00    +0.000 HD
ENDROOT
BRANCH   8  11
ATOM     11  C   UNL     1      -6.976   5.015 135.001  0.00  0.00    +0.000 A 
ATOM     12  C   UNL     1      -6.914   5.738 136.198  0.00  0.00    +0.000 A 
ATOM     13  C   UNL     1      -6.045   5.342 137.217  0.00  0.00    +0.000 A 
ATOM     14  C   UNL     1      -5.287   4.181 137.075  0.00  0.00    +0.000 A 
ATOM     15  C   UNL     1      -5.363   3.439 135.898  0.00  0.00    +0.000 A 
ATOM     16  C   UNL     1      -6.199   3.858 134.861  0.00  0.00    +0.000 A 
ENDBRANCH   8  11
BRANCH   1  17
ATOM     17  S   UNL     1     -12.442   7.297 130.136  0.00  0.00    +0.000 S 
ATOM     18  O   UNL     1     -12.832   6.270 129.188  0.00  0.00    +0.000 OA
ATOM     19  O   UNL     1     -12.379   8.686 129.750  0.00  0.00    +0.000 OA
BRANCH  17  20
ATOM     20  O   UNL     1     -13.490   7.200 131.361  0.00  0.00    +0.000 OA
ATOM     21  H   UNL     1     -13.480   6.283 131.705  0.00  0.00    +0.000 HD
ENDBRANCH  17  20
ENDBRANCH   1  17
TORSDOF 3
ENDMDL
MODEL 9
REMARK VINA RESULT:      -6.8      4.833      8.177
REMARK  Name = Ensulizole
REMARK  3 active torsions:
REMARK  status: ('A' for Active; 'I' for Inactive)
REMARK    1  A    between atoms: O_1  and  S_2
REMARK    2  A    between atoms: S_2  and  C_5
REMARK    3  A    between atoms: C_12  and  C_14
REMARK                            x       y       z     vdW  Elec       q    Type
REMARK                         _______ _______ _______ _____ _____    ______ ____
ROOT
ATOM      1  C   UNL     1      -8.638   0.116 124.054  0.00  0.00    +0.000 A 
ATOM      2  C   UNL     1      -8.854  -0.274 125.386  0.00  0.00    +0.000 A 
ATOM      3  C   UNL     1      -7.829  -1.017 125.983  0.00  0.00    +0.000 A 
ATOM      4  C   UNL     1      -6.667  -1.390 125.315  0.00  0.00    +0.000 A 
ATOM      5  C   UNL     1      -6.498  -1.033 123.970  0.00  0.00    +0.000 A 
ATOM      6  C   UNL     1      -7.491  -0.267 123.346  0.00  0.00    +0.000 A 
ATOM      7  N   UNL     1      -5.823  -2.079 126.148  0.00  0.00    +0.000 NA
ATOM      8  C   UNL     1      -6.443  -2.158 127.310  0.00  0.00    +0.000 A 
ATOM      9  N   UNL     1      -7.663  -1.524 127.248  0.00  0.00    +0.000 N 
ATOM     10  H   UNL     1      -8.303  -1.427 128.022  0.00  0.00    +0.000 HD
ENDROOT
BRANCH   8  11
ATOM     11  C   UNL     1      -5.947  -2.833 128.503  0.00  0.00    +0.000 A 
ATOM     12  C   UNL     1      -6.843  -3.345 129.448  0.00  0.00    +0.000 A 
ATOM     13  C   UNL     1      -6.374  -3.865 130.656  0.00  0.00    +0.000 A 
ATOM     14  C   UNL     1      -5.002  -3.943 130.896  0.00  0.00    +0.000 A 
ATOM     15  C   UNL     1      -4.101  -3.461 129.948  0.00  0.00    +0.000 A 
ATOM     16  C   UNL     1      -4.571  -2.901 128.759  0.00  0.00    +0.000 A 
ENDBRANCH   8  11
BRANCH   1  17
ATOM     17  S   UNL     1      -9.817   1.157 123.225  0.00  0.00    +0.000 S 
ATOM     18  O   UNL     1     -10.762   0.320 122.512  0.00  0.00    +0.000 OA
ATOM     19  O   UNL     1      -9.099   2.215 122.554  0.00  0.00    +0.000 OA
BRANCH  17  20
ATOM     20  O   UNL     1     -10.643   1.847 124.429  0.00  0.00    +0.000 OA
ATOM     21  H   UNL     1     -11.544   2.057 124.107  0.00  0.00    +0.000 HD
ENDBRANCH  17  20
ENDBRANCH   1  17
TORSDOF 3
ENDMDL
