MODEL 1
REMARK VINA RESULT:      -6.5      0.000      0.000
REMARK  Name = Entacapone
REMARK  10 active torsions:
REMARK  status: ('A' for Active; 'I' for Inactive)
REMARK    1  A    between atoms: C_1  and  C_2
REMARK    2  A    between atoms: C_2  and  N_3
REMARK    3  A    between atoms: N_3  and  C_4
REMARK    4  A    between atoms: C_4  and  C_5
REMARK    5  A    between atoms: C_6  and  C_8
REMARK    6  A    between atoms: C_8  and  C_21
REMARK    7  A    between atoms: C_9  and  C_10
REMARK    8  A    between atoms: C_12  and  N_18
REMARK    9  A    between atoms: C_13  and  O_14
REMARK   10  A    between atoms: C_15  and  O_16
REMARK                            x       y       z     vdW  Elec       q    Type
REMARK                         _______ _______ _______ _____ _____    ______ ____
ROOT
ATOM      1  C   UNL     1      -6.193   3.576 121.916  0.00  0.00    +0.000 A 
ATOM      2  C   UNL     1      -7.097   3.603 120.864  0.00  0.00    +0.000 A 
ATOM      3  C   UNL     1      -6.838   4.418 119.766  0.00  0.00    +0.000 A 
ATOM      4  C   UNL     1      -5.722   5.270 119.763  0.00  0.00    +0.000 A 
ATOM      5  C   UNL     1      -4.880   5.294 120.877  0.00  0.00    +0.000 A 
ATOM      6  C   UNL     1      -5.106   4.456 121.953  0.00  0.00    +0.000 A 
ENDROOT
BRANCH   3   7
ATOM      7  N   UNL     1      -7.757   4.332 118.636  0.00  0.00    +0.000 N 
ATOM      8  O   UNL     1      -8.973   4.365 118.864  0.00  0.00    +0.000 OA
ATOM      9  O   UNL     1      -7.252   4.237 117.507  0.00  0.00    +0.000 OA
ENDBRANCH   3   7
BRANCH   1  11
ATOM     10  C   UNL     1      -6.634   3.009 124.356  0.00  0.00    +0.000 C 
ATOM     11  C   UNL     1      -6.424   2.710 123.059  0.00  0.00    +0.000 C 
BRANCH  10  13
ATOM     12  N   UNL     1      -8.123   1.402 125.757  0.00  0.00    +0.000 N 
ATOM     13  C   UNL     1      -6.856   1.995 125.481  0.00  0.00    +0.000 C 
ATOM     14  O   UNL     1      -5.869   1.695 126.163  0.00  0.00    +0.000 OA
BRANCH  12  16
ATOM     15  C   UNL     1      -8.233  -1.043 126.602  0.00  0.00    +0.000 C 
ATOM     16  C   UNL     1      -8.154   0.446 126.893  0.00  0.00    +0.000 C 
ENDBRANCH  12  16
BRANCH  12  17
ATOM     17  C   UNL     1      -9.319   1.716 124.975  0.00  0.00    +0.000 C 
ATOM     18  C   UNL     1      -9.736   1.035 123.699  0.00  0.00    +0.000 C 
ENDBRANCH  12  17
ENDBRANCH  10  13
BRANCH  10  19
ATOM     19  C   UNL     1      -6.661   4.408 124.720  0.00  0.00    +0.000 C 
ATOM     20  N   UNL     1      -6.525   5.494 125.091  0.00  0.00    +0.000 NA
ENDBRANCH  10  19
ENDBRANCH   1  11
BRANCH   4  21
ATOM     21  O   UNL     1      -5.380   6.109 118.737  0.00  0.00    +0.000 OA
ATOM     22  H   UNL     1      -4.788   6.812 119.087  0.00  0.00    +0.000 HD
ENDBRANCH   4  21
BRANCH   5  23
ATOM     23  O   UNL     1      -3.798   6.126 120.950  0.00  0.00    +0.000 OA
ATOM     24  H   UNL     1      -3.759   6.446 121.871  0.00  0.00    +0.000 HD
ENDBRANCH   5  23
TORSDOF 8
ENDMDL
MODEL 2
REMARK VINA RESULT:      -6.4      8.237     10.705
REMARK  Name = Entacapone
REMARK  10 active torsions:
REMARK  status: ('A' for Active; 'I' for Inactive)
REMARK    1  A    between atoms: C_1  and  C_2
REMARK    2  A    between atoms: C_2  and  N_3
REMARK    3  A    between atoms: N_3  and  C_4
REMARK    4  A    between atoms: C_4  and  C_5
REMARK    5  A    between atoms: C_6  and  C_8
REMARK    6  A    between atoms: C_8  and  C_21
REMARK    7  A    between atoms: C_9  and  C_10
REMARK    8  A    between atoms: C_12  and  N_18
REMARK    9  A    between atoms: C_13  and  O_14
REMARK   10  A    between atoms: C_15  and  O_16
REMARK                            x       y       z     vdW  Elec       q    Type
REMARK                         _______ _______ _______ _____ _____    ______ ____
ROOT
ATOM      1  C   UNL     1      -7.948   6.691 131.325  0.00  0.00    +0.000 A 
ATOM      2  C   UNL     1      -8.854   7.232 130.424  0.00  0.00    +0.000 A 
ATOM      3  C   UNL     1     -10.216   7.035 130.630  0.00  0.00    +0.000 A 
ATOM      4  C   UNL     1     -10.664   6.223 131.684  0.00  0.00    +0.000 A 
ATOM      5  C   UNL     1      -9.726   5.613 132.520  0.00  0.00    +0.000 A 
ATOM      6  C   UNL     1      -8.373   5.838 132.349  0.00  0.00    +0.000 A 
ENDROOT
BRANCH   3   7
ATOM      7  N   UNL     1     -11.135   7.713 129.722  0.00  0.00    +0.000 N 
ATOM      8  O   UNL     1     -12.298   7.908 130.101  0.00  0.00    +0.000 OA
ATOM      9  O   UNL     1     -10.684   8.060 128.620  0.00  0.00    +0.000 OA
ENDBRANCH   3   7
BRANCH   1  11
ATOM     10  C   UNL     1      -5.593   6.165 130.520  0.00  0.00    +0.000 C 
ATOM     11  C   UNL     1      -6.522   6.910 131.152  0.00  0.00    +0.000 C 
BRANCH  10  13
ATOM     12  N   UNL     1      -3.155   6.161 131.425  0.00  0.00    +0.000 N 
ATOM     13  C   UNL     1      -4.103   6.499 130.415  0.00  0.00    +0.000 C 
ATOM     14  O   UNL     1      -3.735   7.089 129.392  0.00  0.00    +0.000 OA
BRANCH  12  16
ATOM     15  C   UNL     1      -0.744   6.534 132.293  0.00  0.00    +0.000 C 
ATOM     16  C   UNL     1      -1.753   6.572 131.158  0.00  0.00    +0.000 C 
ENDBRANCH  12  16
BRANCH  12  17
ATOM     17  C   UNL     1      -3.537   5.457 132.649  0.00  0.00    +0.000 C 
ATOM     18  C   UNL     1      -4.106   6.096 133.887  0.00  0.00    +0.000 C 
ENDBRANCH  12  17
ENDBRANCH  10  13
BRANCH  10  19
ATOM     19  C   UNL     1      -6.039   4.949 129.879  0.00  0.00    +0.000 C 
ATOM     20  N   UNL     1      -6.493   4.084 129.260  0.00  0.00    +0.000 NA
ENDBRANCH  10  19
ENDBRANCH   1  11
BRANCH   4  21
ATOM     21  O   UNL     1     -11.978   5.965 131.970  0.00  0.00    +0.000 OA
ATOM     22  H   UNL     1     -12.200   6.379 132.834  0.00  0.00    +0.000 HD
ENDBRANCH   4  21
BRANCH   5  23
ATOM     23  O   UNL     1     -10.097   4.784 133.541  0.00  0.00    +0.000 OA
ATOM     24  H   UNL     1      -9.406   4.862 134.225  0.00  0.00    +0.000 HD
ENDBRANCH   5  23
TORSDOF 8
ENDMDL
MODEL 3
REMARK VINA RESULT:      -6.4      2.725      4.256
REMARK  Name = Entacapone
REMARK  10 active torsions:
REMARK  status: ('A' for Active; 'I' for Inactive)
REMARK    1  A    between atoms: C_1  and  C_2
REMARK    2  A    between atoms: C_2  and  N_3
REMARK    3  A    between atoms: N_3  and  C_4
REMARK    4  A    between atoms: C_4  and  C_5
REMARK    5  A    between atoms: C_6  and  C_8
REMARK    6  A    between atoms: C_8  and  C_21
REMARK    7  A    between atoms: C_9  and  C_10
REMARK    8  A    between atoms: C_12  and  N_18
REMARK    9  A    between atoms: C_13  and  O_14
REMARK   10  A    between atoms: C_15  and  O_16
REMARK                            x       y       z     vdW  Elec       q    Type
REMARK                         _______ _______ _______ _____ _____    ______ ____
ROOT
ATOM      1  C   UNL     1      -7.368   1.692 124.075  0.00  0.00    +0.000 A 
ATOM      2  C   UNL     1      -7.817   2.193 122.861  0.00  0.00    +0.000 A 
ATOM      3  C   UNL     1      -7.164   3.282 122.292  0.00  0.00    +0.000 A 
ATOM      4  C   UNL     1      -6.121   3.923 122.979  0.00  0.00    +0.000 A 
ATOM      5  C   UNL     1      -5.752   3.458 124.244  0.00  0.00    +0.000 A 
ATOM      6  C   UNL     1      -6.367   2.350 124.797  0.00  0.00    +0.000 A 
ENDROOT
BRANCH   3   7
ATOM      7  N   UNL     1      -7.599   3.704 120.964  0.00  0.00    +0.000 N 
ATOM      8  O   UNL     1      -6.734   3.941 120.110  0.00  0.00    +0.000 OA
ATOM      9  O   UNL     1      -8.821   3.793 120.774  0.00  0.00    +0.000 OA
ENDBRANCH   3   7
BRANCH   1  11
ATOM     10  C   UNL     1      -7.877  -0.777 124.408  0.00  0.00    +0.000 C 
ATOM     11  C   UNL     1      -8.012   0.537 124.674  0.00  0.00    +0.000 C 
BRANCH  10  13
ATOM     12  N   UNL     1      -8.270  -2.404 126.399  0.00  0.00    +0.000 N 
ATOM     13  C   UNL     1      -8.628  -1.911 125.109  0.00  0.00    +0.000 C 
ATOM     14  O   UNL     1      -9.588  -2.402 124.503  0.00  0.00    +0.000 OA
BRANCH  12  16
ATOM     15  C   UNL     1      -8.881  -4.004 128.340  0.00  0.00    +0.000 C 
ATOM     16  C   UNL     1      -9.106  -3.515 126.920  0.00  0.00    +0.000 C 
ENDBRANCH  12  16
BRANCH  12  17
ATOM     17  C   UNL     1      -7.149  -1.853 127.160  0.00  0.00    +0.000 C 
ATOM     18  C   UNL     1      -5.693  -2.129 126.900  0.00  0.00    +0.000 C 
ENDBRANCH  12  17
ENDBRANCH  10  13
BRANCH  10  19
ATOM     19  C   UNL     1      -6.937  -1.153 123.377  0.00  0.00    +0.000 C 
ATOM     20  N   UNL     1      -6.295  -1.593 122.521  0.00  0.00    +0.000 NA
ENDBRANCH  10  19
ENDBRANCH   1  11
BRANCH   4  21
ATOM     21  O   UNL     1      -5.418   4.999 122.509  0.00  0.00    +0.000 OA
ATOM     22  H   UNL     1      -4.462   4.855 122.689  0.00  0.00    +0.000 HD
ENDBRANCH   4  21
BRANCH   5  23
ATOM     23  O   UNL     1      -4.770   4.059 124.979  0.00  0.00    +0.000 OA
ATOM     24  H   UNL     1      -5.203   4.768 125.491  0.00  0.00    +0.000 HD
ENDBRANCH   5  23
TORSDOF 8
ENDMDL
MODEL 4
REMARK VINA RESULT:      -6.3      8.172     11.220
REMARK  Name = Entacapone
REMARK  10 active torsions:
REMARK  status: ('A' for Active; 'I' for Inactive)
REMARK    1  A    between atoms: C_1  and  C_2
REMARK    2  A    between atoms: C_2  and  N_3
REMARK    3  A    between atoms: N_3  and  C_4
REMARK    4  A    between atoms: C_4  and  C_5
REMARK    5  A    between atoms: C_6  and  C_8
REMARK    6  A    between atoms: C_8  and  C_21
REMARK    7  A    between atoms: C_9  and  C_10
REMARK    8  A    between atoms: C_12  and  N_18
REMARK    9  A    between atoms: C_13  and  O_14
REMARK   10  A    between atoms: C_15  and  O_16
REMARK                            x       y       z     vdW  Elec       q    Type
REMARK                         _______ _______ _______ _____ _____    ______ ____
ROOT
ATOM      1  C   UNL     1      -8.114   6.450 131.786  0.00  0.00    +0.000 A 
ATOM      2  C   UNL     1      -6.744   6.581 131.613  0.00  0.00    +0.000 A 
ATOM      3  C   UNL     1      -5.884   6.064 132.577  0.00  0.00    +0.000 A 
ATOM      4  C   UNL     1      -6.398   5.497 133.754  0.00  0.00    +0.000 A 
ATOM      5  C   UNL     1      -7.781   5.464 133.947  0.00  0.00    +0.000 A 
ATOM      6  C   UNL     1      -8.642   5.937 132.975  0.00  0.00    +0.000 A 
ENDROOT
BRANCH   3   7
ATOM      7  N   UNL     1      -4.453   6.125 132.301  0.00  0.00    +0.000 N 
ATOM      8  O   UNL     1      -3.763   5.128 132.552  0.00  0.00    +0.000 OA
ATOM      9  O   UNL     1      -4.017   7.182 131.821  0.00  0.00    +0.000 OA
ENDBRANCH   3   7
BRANCH   1  11
ATOM     10  C   UNL     1      -9.632   6.323 129.750  0.00  0.00    +0.000 C 
ATOM     11  C   UNL     1      -9.031   6.953 130.779  0.00  0.00    +0.000 C 
BRANCH  10  13
ATOM     12  N   UNL     1     -11.979   7.130 128.969  0.00  0.00    +0.000 N 
ATOM     13  C   UNL     1     -10.580   6.972 128.738  0.00  0.00    +0.000 C 
ATOM     14  O   UNL     1     -10.079   7.370 127.680  0.00  0.00    +0.000 OA
BRANCH  12  16
ATOM     15  C   UNL     1     -13.522   9.046 128.164  0.00  0.00    +0.000 C 
ATOM     16  C   UNL     1     -12.746   7.773 127.872  0.00  0.00    +0.000 C 
ENDBRANCH  12  16
BRANCH  12  17
ATOM     17  C   UNL     1     -12.620   6.684 130.207  0.00  0.00    +0.000 C 
ATOM     18  C   UNL     1     -12.812   7.519 131.444  0.00  0.00    +0.000 C 
ENDBRANCH  12  17
ENDBRANCH  10  13
BRANCH  10  19
ATOM     19  C   UNL     1      -9.368   4.911 129.588  0.00  0.00    +0.000 C 
ATOM     20  N   UNL     1      -9.335   3.765 129.441  0.00  0.00    +0.000 NA
ENDBRANCH  10  19
ENDBRANCH   1  11
BRANCH   4  21
ATOM     21  O   UNL     1      -5.640   4.964 134.762  0.00  0.00    +0.000 OA
ATOM     22  H   UNL     1      -5.089   4.238 134.393  0.00  0.00    +0.000 HD
ENDBRANCH   4  21
BRANCH   5  23
ATOM     23  O   UNL     1      -8.342   4.958 135.086  0.00  0.00    +0.000 OA
ATOM     24  H   UNL     1      -9.307   5.049 134.982  0.00  0.00    +0.000 HD
ENDBRANCH   5  23
TORSDOF 8
ENDMDL
MODEL 5
REMARK VINA RESULT:      -6.2      8.004     10.024
REMARK  Name = Entacapone
REMARK  10 active torsions:
REMARK  status: ('A' for Active; 'I' for Inactive)
REMARK    1  A    between atoms: C_1  and  C_2
REMARK    2  A    between atoms: C_2  and  N_3
REMARK    3  A    between atoms: N_3  and  C_4
REMARK    4  A    between atoms: C_4  and  C_5
REMARK    5  A    between atoms: C_6  and  C_8
REMARK    6  A    between atoms: C_8  and  C_21
REMARK    7  A    between atoms: C_9  and  C_10
REMARK    8  A    between atoms: C_12  and  N_18
REMARK    9  A    between atoms: C_13  and  O_14
REMARK   10  A    between atoms: C_15  and  O_16
REMARK                            x       y       z     vdW  Elec       q    Type
REMARK                         _______ _______ _______ _____ _____    ______ ____
ROOT
ATOM      1  C   UNL     1      -8.988   6.797 130.788  0.00  0.00    +0.000 A 
ATOM      2  C   UNL     1      -9.105   6.944 129.413  0.00  0.00    +0.000 A 
ATOM      3  C   UNL     1     -10.369   6.913 128.832  0.00  0.00    +0.000 A 
ATOM      4  C   UNL     1     -11.504   6.646 129.615  0.00  0.00    +0.000 A 
ATOM      5  C   UNL     1     -11.347   6.407 130.982  0.00  0.00    +0.000 A 
ATOM      6  C   UNL     1     -10.099   6.479 131.574  0.00  0.00    +0.000 A 
ENDROOT
BRANCH   3   7
ATOM      7  N   UNL     1     -10.455   7.182 127.400  0.00  0.00    +0.000 N 
ATOM      8  O   UNL     1     -11.116   8.159 127.025  0.00  0.00    +0.000 OA
ATOM      9  O   UNL     1      -9.847   6.409 126.645  0.00  0.00    +0.000 OA
ENDBRANCH   3   7
BRANCH   1  11
ATOM     10  C   UNL     1      -6.755   5.899 131.610  0.00  0.00    +0.000 C 
ATOM     11  C   UNL     1      -7.683   6.858 131.423  0.00  0.00    +0.000 C 
BRANCH  10  13
ATOM     12  N   UNL     1      -4.251   6.600 131.655  0.00  0.00    +0.000 N 
ATOM     13  C   UNL     1      -5.408   6.085 132.312  0.00  0.00    +0.000 C 
ATOM     14  O   UNL     1      -5.353   5.768 133.506  0.00  0.00    +0.000 OA
BRANCH  12  16
ATOM     15  C   UNL     1      -2.631   8.059 133.052  0.00  0.00    +0.000 C 
ATOM     16  C   UNL     1      -3.027   6.704 132.490  0.00  0.00    +0.000 C 
ENDBRANCH  12  16
BRANCH  12  17
ATOM     17  C   UNL     1      -4.265   6.998 130.247  0.00  0.00    +0.000 C 
ATOM     18  C   UNL     1      -4.142   8.407 129.733  0.00  0.00    +0.000 C 
ENDBRANCH  12  17
ENDBRANCH  10  13
BRANCH  10  19
ATOM     19  C   UNL     1      -7.050   4.579 131.098  0.00  0.00    +0.000 C 
ATOM     20  N   UNL     1      -7.350   3.490 130.854  0.00  0.00    +0.000 NA
ENDBRANCH  10  19
ENDBRANCH   1  11
BRANCH   4  21
ATOM     21  O   UNL     1     -12.787   6.593 129.142  0.00  0.00    +0.000 OA
ATOM     22  H   UNL     1     -13.258   7.413 129.412  0.00  0.00    +0.000 HD
ENDBRANCH   4  21
BRANCH   5  23
ATOM     23  O   UNL     1     -12.406   6.108 131.792  0.00  0.00    +0.000 OA
ATOM     24  H   UNL     1     -12.483   5.135 131.797  0.00  0.00    +0.000 HD
ENDBRANCH   5  23
TORSDOF 8
ENDMDL
MODEL 6
REMARK VINA RESULT:      -6.1      7.993      9.846
REMARK  Name = Entacapone
REMARK  10 active torsions:
REMARK  status: ('A' for Active; 'I' for Inactive)
REMARK    1  A    between atoms: C_1  and  C_2
REMARK    2  A    between atoms: C_2  and  N_3
REMARK    3  A    between atoms: N_3  and  C_4
REMARK    4  A    between atoms: C_4  and  C_5
REMARK    5  A    between atoms: C_6  and  C_8
REMARK    6  A    between atoms: C_8  and  C_21
REMARK    7  A    between atoms: C_9  and  C_10
REMARK    8  A    between atoms: C_12  and  N_18
REMARK    9  A    between atoms: C_13  and  O_14
REMARK   10  A    between atoms: C_15  and  O_16
REMARK                            x       y       z     vdW  Elec       q    Type
REMARK                         _______ _______ _______ _____ _____    ______ ____
ROOT
ATOM      1  C   UNL     1     -10.041   6.835 130.291  0.00  0.00    +0.000 A 
ATOM      2  C   UNL     1     -10.192   6.916 128.914  0.00  0.00    +0.000 A 
ATOM      3  C   UNL     1     -11.448   7.194 128.384  0.00  0.00    +0.000 A 
ATOM      4  C   UNL     1     -12.566   7.300 129.226  0.00  0.00    +0.000 A 
ATOM      5  C   UNL     1     -12.403   7.118 130.601  0.00  0.00    +0.000 A 
ATOM      6  C   UNL     1     -11.151   6.885 131.140  0.00  0.00    +0.000 A 
ENDROOT
BRANCH   3   7
ATOM      7  N   UNL     1     -11.539   7.381 126.939  0.00  0.00    +0.000 N 
ATOM      8  O   UNL     1     -10.765   8.183 126.401  0.00  0.00    +0.000 OA
ATOM      9  O   UNL     1     -12.392   6.711 126.338  0.00  0.00    +0.000 OA
ENDBRANCH   3   7
BRANCH   1  11
ATOM     10  C   UNL     1      -8.011   5.443 130.929  0.00  0.00    +0.000 C 
ATOM     11  C   UNL     1      -8.735   6.578 130.870  0.00  0.00    +0.000 C 
BRANCH  10  13
ATOM     12  N   UNL     1      -6.451   5.214 132.998  0.00  0.00    +0.000 N 
ATOM     13  C   UNL     1      -6.636   5.294 131.586  0.00  0.00    +0.000 C 
ATOM     14  O   UNL     1      -5.659   5.243 130.829  0.00  0.00    +0.000 OA
BRANCH  12  16
ATOM     15  C   UNL     1      -4.325   6.308 133.993  0.00  0.00    +0.000 C 
ATOM     16  C   UNL     1      -5.045   5.081 133.457  0.00  0.00    +0.000 C 
ENDBRANCH  12  16
BRANCH  12  17
ATOM     17  C   UNL     1      -7.572   5.261 133.936  0.00  0.00    +0.000 C 
ATOM     18  C   UNL     1      -8.469   4.104 134.290  0.00  0.00    +0.000 C 
ENDBRANCH  12  17
ENDBRANCH  10  13
BRANCH  10  19
ATOM     19  C   UNL     1      -8.574   4.262 130.315  0.00  0.00    +0.000 C 
ATOM     20  N   UNL     1      -9.087   3.430 129.697  0.00  0.00    +0.000 NA
ENDBRANCH  10  19
ENDBRANCH   1  11
BRANCH   4  21
ATOM     21  O   UNL     1     -13.842   7.568 128.806  0.00  0.00    +0.000 OA
ATOM     22  H   UNL     1     -14.265   6.726 128.526  0.00  0.00    +0.000 HD
ENDBRANCH   4  21
BRANCH   5  23
ATOM     23  O   UNL     1     -13.456   7.174 131.470  0.00  0.00    +0.000 OA
ATOM     24  H   UNL     1     -13.980   7.957 131.218  0.00  0.00    +0.000 HD
ENDBRANCH   5  23
TORSDOF 8
ENDMDL
MODEL 7
REMARK VINA RESULT:      -6.0      7.627     10.270
REMARK  Name = Entacapone
REMARK  10 active torsions:
REMARK  status: ('A' for Active; 'I' for Inactive)
REMARK    1  A    between atoms: C_1  and  C_2
REMARK    2  A    between atoms: C_2  and  N_3
REMARK    3  A    between atoms: N_3  and  C_4
REMARK    4  A    between atoms: C_4  and  C_5
REMARK    5  A    between atoms: C_6  and  C_8
REMARK    6  A    between atoms: C_8  and  C_21
REMARK    7  A    between atoms: C_9  and  C_10
REMARK    8  A    between atoms: C_12  and  N_18
REMARK    9  A    between atoms: C_13  and  O_14
REMARK   10  A    between atoms: C_15  and  O_16
REMARK                            x       y       z     vdW  Elec       q    Type
REMARK                         _______ _______ _______ _____ _____    ______ ____
ROOT
ATOM      1  C   UNL     1      -9.900   3.470 130.513  0.00  0.00    +0.000 A 
ATOM      2  C   UNL     1      -8.717   3.485 129.788  0.00  0.00    +0.000 A 
ATOM      3  C   UNL     1      -7.865   2.387 129.854  0.00  0.00    +0.000 A 
ATOM      4  C   UNL     1      -8.153   1.316 130.714  0.00  0.00    +0.000 A 
ATOM      5  C   UNL     1      -9.303   1.369 131.506  0.00  0.00    +0.000 A 
ATOM      6  C   UNL     1     -10.177   2.437 131.414  0.00  0.00    +0.000 A 
ENDROOT
BRANCH   3   7
ATOM      7  N   UNL     1      -6.689   2.398 128.990  0.00  0.00    +0.000 N 
ATOM      8  O   UNL     1      -6.451   1.392 128.308  0.00  0.00    +0.000 OA
ATOM      9  O   UNL     1      -6.001   3.430 128.989  0.00  0.00    +0.000 OA
ENDBRANCH   3   7
BRANCH   1  11
ATOM     10  C   UNL     1     -10.851   5.748 131.124  0.00  0.00    +0.000 C 
ATOM     11  C   UNL     1     -10.821   4.589 130.436  0.00  0.00    +0.000 C 
BRANCH  10  13
ATOM     12  N   UNL     1     -11.783   7.891 129.981  0.00  0.00    +0.000 N 
ATOM     13  C   UNL     1     -11.893   6.857 130.958  0.00  0.00    +0.000 C 
ATOM     14  O   UNL     1     -12.865   6.827 131.721  0.00  0.00    +0.000 OA
BRANCH  12  16
ATOM     15  C   UNL     1     -13.274   9.541 128.656  0.00  0.00    +0.000 C 
ATOM     16  C   UNL     1     -12.883   8.888 129.971  0.00  0.00    +0.000 C 
ENDBRANCH  12  16
BRANCH  12  17
ATOM     17  C   UNL     1     -10.658   7.967 129.050  0.00  0.00    +0.000 C 
ATOM     18  C   UNL     1     -10.560   7.246 127.732  0.00  0.00    +0.000 C 
ENDBRANCH  12  17
ENDBRANCH  10  13
BRANCH  10  19
ATOM     19  C   UNL     1      -9.807   5.970 132.098  0.00  0.00    +0.000 C 
ATOM     20  N   UNL     1      -9.075   6.051 132.989  0.00  0.00    +0.000 NA
ENDBRANCH  10  19
ENDBRANCH   1  11
BRANCH   4  21
ATOM     21  O   UNL     1      -7.382   0.194 130.854  0.00  0.00    +0.000 OA
ATOM     22  H   UNL     1      -7.398  -0.085 131.797  0.00  0.00    +0.000 HD
ENDBRANCH   4  21
BRANCH   5  23
ATOM     23  O   UNL     1      -9.621   0.376 132.388  0.00  0.00    +0.000 OA
ATOM     24  H   UNL     1     -10.211   0.776 133.054  0.00  0.00    +0.000 HD
ENDBRANCH   5  23
TORSDOF 8
ENDMDL
MODEL 8
REMARK VINA RESULT:      -6.0      4.335      6.402
REMARK  Name = Entacapone
REMARK  10 active torsions:
REMARK  status: ('A' for Active; 'I' for Inactive)
REMARK    1  A    between atoms: C_1  and  C_2
REMARK    2  A    between atoms: C_2  and  N_3
REMARK    3  A    between atoms: N_3  and  C_4
REMARK    4  A    between atoms: C_4  and  C_5
REMARK    5  A    between atoms: C_6  and  C_8
REMARK    6  A    between atoms: C_8  and  C_21
REMARK    7  A    between atoms: C_9  and  C_10
REMARK    8  A    between atoms: C_12  and  N_18
REMARK    9  A    between atoms: C_13  and  O_14
REMARK   10  A    between atoms: C_15  and  O_16
REMARK                            x       y       z     vdW  Elec       q    Type
REMARK                         _______ _______ _______ _____ _____    ______ ____
ROOT
ATOM      1  C   UNL     1      -7.599   1.540 125.336  0.00  0.00    +0.000 A 
ATOM      2  C   UNL     1      -7.033   0.403 124.778  0.00  0.00    +0.000 A 
ATOM      3  C   UNL     1      -7.776  -0.353 123.876  0.00  0.00    +0.000 A 
ATOM      4  C   UNL     1      -9.112  -0.020 123.603  0.00  0.00    +0.000 A 
ATOM      5  C   UNL     1      -9.688   1.074 124.252  0.00  0.00    +0.000 A 
ATOM      6  C   UNL     1      -8.944   1.856 125.117  0.00  0.00    +0.000 A 
ENDROOT
BRANCH   3   7
ATOM      7  N   UNL     1      -7.104  -1.476 123.230  0.00  0.00    +0.000 N 
ATOM      8  O   UNL     1      -6.049  -1.894 123.726  0.00  0.00    +0.000 OA
ATOM      9  O   UNL     1      -7.644  -1.947 122.218  0.00  0.00    +0.000 OA
ENDBRANCH   3   7
BRANCH   1  11
ATOM     10  C   UNL     1      -6.010   3.404 126.021  0.00  0.00    +0.000 C 
ATOM     11  C   UNL     1      -6.834   2.364 126.255  0.00  0.00    +0.000 C 
BRANCH  10  13
ATOM     12  N   UNL     1      -3.840   4.045 127.305  0.00  0.00    +0.000 N 
ATOM     13  C   UNL     1      -5.242   4.192 127.085  0.00  0.00    +0.000 C 
ATOM     14  O   UNL     1      -5.897   4.988 127.769  0.00  0.00    +0.000 OA
BRANCH  12  16
ATOM     15  C   UNL     1      -2.596   6.199 128.024  0.00  0.00    +0.000 C 
ATOM     16  C   UNL     1      -3.266   4.884 128.387  0.00  0.00    +0.000 C 
ENDBRANCH  12  16
BRANCH  12  17
ATOM     17  C   UNL     1      -3.020   3.125 126.518  0.00  0.00    +0.000 C 
ATOM     18  C   UNL     1      -1.530   2.951 126.645  0.00  0.00    +0.000 C 
ENDBRANCH  12  17
ENDBRANCH  10  13
BRANCH  10  19
ATOM     19  C   UNL     1      -5.837   3.819 124.647  0.00  0.00    +0.000 C 
ATOM     20  N   UNL     1      -5.723   4.319 123.611  0.00  0.00    +0.000 NA
ENDBRANCH  10  19
ENDBRANCH   1  11
BRANCH   4  21
ATOM     21  O   UNL     1      -9.927  -0.698 122.736  0.00  0.00    +0.000 OA
ATOM     22  H   UNL     1      -9.571  -1.607 122.614  0.00  0.00    +0.000 HD
ENDBRANCH   4  21
BRANCH   5  23
ATOM     23  O   UNL     1     -10.993   1.429 124.056  0.00  0.00    +0.000 OA
ATOM     24  H   UNL     1     -11.128   2.265 124.541  0.00  0.00    +0.000 HD
ENDBRANCH   5  23
TORSDOF 8
ENDMDL
MODEL 9
REMARK VINA RESULT:      -5.9      8.390     11.295
REMARK  Name = Entacapone
REMARK  10 active torsions:
REMARK  status: ('A' for Active; 'I' for Inactive)
REMARK    1  A    between atoms: C_1  and  C_2
REMARK    2  A    between atoms: C_2  and  N_3
REMARK    3  A    between atoms: N_3  and  C_4
REMARK    4  A    between atoms: C_4  and  C_5
REMARK    5  A    between atoms: C_6  and  C_8
REMARK    6  A    between atoms: C_8  and  C_21
REMARK    7  A    between atoms: C_9  and  C_10
REMARK    8  A    between atoms: C_12  and  N_18
REMARK    9  A    between atoms: C_13  and  O_14
REMARK   10  A    between atoms: C_15  and  O_16
REMARK                            x       y       z     vdW  Elec       q    Type
REMARK                         _______ _______ _______ _____ _____    ______ ____
ROOT
ATOM      1  C   UNL     1      -8.554   6.330 131.570  0.00  0.00    +0.000 A 
ATOM      2  C   UNL     1      -8.490   5.892 132.885  0.00  0.00    +0.000 A 
ATOM      3  C   UNL     1      -7.309   5.326 133.355  0.00  0.00    +0.000 A 
ATOM      4  C   UNL     1      -6.226   5.118 132.486  0.00  0.00    +0.000 A 
ATOM      5  C   UNL     1      -6.352   5.480 131.143  0.00  0.00    +0.000 A 
ATOM      6  C   UNL     1      -7.506   6.082 130.678  0.00  0.00    +0.000 A 
ENDROOT
BRANCH   3   7
ATOM      7  N   UNL     1      -7.249   4.982 134.772  0.00  0.00    +0.000 N 
ATOM      8  O   UNL     1      -6.650   3.949 135.102  0.00  0.00    +0.000 OA
ATOM      9  O   UNL     1      -7.801   5.761 135.564  0.00  0.00    +0.000 OA
ENDBRANCH   3   7
BRANCH   1  11
ATOM     10  C   UNL     1     -10.870   6.407 130.523  0.00  0.00    +0.000 C 
ATOM     11  C   UNL     1      -9.764   6.954 131.064  0.00  0.00    +0.000 C 
BRANCH  10  13
ATOM     12  N   UNL     1     -12.094   7.897 128.777  0.00  0.00    +0.000 N 
ATOM     13  C   UNL     1     -12.088   7.179 130.010  0.00  0.00    +0.000 C 
ATOM     14  O   UNL     1     -13.100   7.159 130.719  0.00  0.00    +0.000 OA
BRANCH  12  16
ATOM     15  C   UNL     1     -13.516  10.060 128.820  0.00  0.00    +0.000 C 
ATOM     16  C   UNL     1     -13.361   8.596 128.443  0.00  0.00    +0.000 C 
ENDBRANCH  12  16
BRANCH  12  17
ATOM     17  C   UNL     1     -10.926   7.945 127.897  0.00  0.00    +0.000 C 
ATOM     18  C   UNL     1     -10.922   7.619 126.427  0.00  0.00    +0.000 C 
ENDBRANCH  12  17
ENDBRANCH  10  13
BRANCH  10  19
ATOM     19  C   UNL     1     -10.919   4.966 130.422  0.00  0.00    +0.000 C 
ATOM     20  N   UNL     1     -10.928   3.838 130.166  0.00  0.00    +0.000 NA
ENDBRANCH  10  19
ENDBRANCH   1  11
BRANCH   4  21
ATOM     21  O   UNL     1      -5.025   4.569 132.848  0.00  0.00    +0.000 OA
ATOM     22  H   UNL     1      -4.846   3.794 132.270  0.00  0.00    +0.000 HD
ENDBRANCH   4  21
BRANCH   5  23
ATOM     23  O   UNL     1      -5.348   5.271 130.239  0.00  0.00    +0.000 OA
ATOM     24  H   UNL     1      -5.454   5.951 129.548  0.00  0.00    +0.000 HD
ENDBRANCH   5  23
TORSDOF 8
ENDMDL
