MODEL 1
REMARK VINA RESULT:      -6.3      0.000      0.000
REMARK  Name = Entecavir
REMARK  4 active torsions:
REMARK  status: ('A' for Active; 'I' for Inactive)
REMARK    1  A    between atoms: N_9  and  C_12
REMARK    2  A    between atoms: C_14  and  O_15
REMARK    3  A    between atoms: C_16  and  C_17
REMARK    4  A    between atoms: C_17  and  O_18
REMARK                            x       y       z     vdW  Elec       q    Type
REMARK                         _______ _______ _______ _____ _____    ______ ____
ROOT
ATOM      1  N   UNL     1      -9.751  -3.443 123.597  0.00  0.00    +0.000 N 
ATOM      2  C   UNL     1      -8.623  -2.849 124.041  0.00  0.00    +0.000 A 
ATOM      3  N   UNL     1      -7.503  -3.513 124.056  0.00  0.00    +0.000 NA
ATOM      4  C   UNL     1      -6.329  -2.899 124.500  0.00  0.00    +0.000 A 
ATOM      5  O   UNL     1      -5.247  -3.485 124.532  0.00  0.00    +0.000 OA
ATOM      6  C   UNL     1      -6.466  -1.499 124.906  0.00  0.00    +0.000 A 
ATOM      7  C   UNL     1      -7.695  -0.892 124.847  0.00  0.00    +0.000 A 
ATOM      8  N   UNL     1      -8.793  -1.543 124.430  0.00  0.00    +0.000 N 
ATOM      9  N   UNL     1      -7.529   0.386 125.298  0.00  0.00    +0.000 N 
ATOM     10  C   UNL     1      -6.174   0.526 125.498  0.00  0.00    +0.000 A 
ATOM     11  N   UNL     1      -5.520  -0.607 125.343  0.00  0.00    +0.000 NA
ATOM     12  H   UNL     1      -9.674  -4.403 123.284  0.00  0.00    +0.000 HD
ATOM     13  H   UNL     1     -10.660  -3.012 123.570  0.00  0.00    +0.000 HD
ATOM     14  H   UNL     1      -9.720  -1.144 124.397  0.00  0.00    +0.000 HD
ENDROOT
BRANCH   9  15
ATOM     15  C   UNL     1      -8.591   1.353 125.585  0.00  0.00    +0.000 C 
ATOM     16  C   UNL     1      -8.012   2.657 126.164  0.00  0.00    +0.000 C 
ATOM     17  C   UNL     1      -7.981   3.696 125.036  0.00  0.00    +0.000 C 
ATOM     18  C   UNL     1      -8.594   3.045 123.787  0.00  0.00    +0.000 C 
ATOM     19  C   UNL     1      -9.353   1.870 124.379  0.00  0.00    +0.000 C 
ATOM     20  C   UNL     1     -10.578   1.473 123.996  0.00  0.00    +0.000 C 
BRANCH  17  21
ATOM     21  O   UNL     1      -8.721   4.845 125.443  0.00  0.00    +0.000 OA
ATOM     22  H   UNL     1      -9.173   5.219 124.668  0.00  0.00    +0.000 HD
ENDBRANCH  17  21
BRANCH  18  23
ATOM     23  C   UNL     1      -7.491   2.585 122.820  0.00  0.00    +0.000 C 
BRANCH  23  24
ATOM     24  O   UNL     1      -7.035   3.629 121.979  0.00  0.00    +0.000 OA
ATOM     25  H   UNL     1      -7.667   3.733 121.253  0.00  0.00    +0.000 HD
ENDBRANCH  23  24
ENDBRANCH  18  23
ENDBRANCH   9  15
TORSDOF 4
ENDMDL
MODEL 2
REMARK VINA RESULT:      -6.2      2.162      5.896
REMARK  Name = Entecavir
REMARK  4 active torsions:
REMARK  status: ('A' for Active; 'I' for Inactive)
REMARK    1  A    between atoms: N_9  and  C_12
REMARK    2  A    between atoms: C_14  and  O_15
REMARK    3  A    between atoms: C_16  and  C_17
REMARK    4  A    between atoms: C_17  and  O_18
REMARK                            x       y       z     vdW  Elec       q    Type
REMARK                         _______ _______ _______ _____ _____    ______ ____
ROOT
ATOM      1  N   UNL     1      -5.993   3.484 121.956  0.00  0.00    +0.000 N 
ATOM      2  C   UNL     1      -6.861   3.053 122.895  0.00  0.00    +0.000 A 
ATOM      3  N   UNL     1      -7.335   3.889 123.773  0.00  0.00    +0.000 NA
ATOM      4  C   UNL     1      -8.245   3.452 124.738  0.00  0.00    +0.000 A 
ATOM      5  O   UNL     1      -8.721   4.206 125.588  0.00  0.00    +0.000 OA
ATOM      6  C   UNL     1      -8.615   2.039 124.660  0.00  0.00    +0.000 A 
ATOM      7  C   UNL     1      -8.059   1.244 123.691  0.00  0.00    +0.000 A 
ATOM      8  N   UNL     1      -7.171   1.718 122.802  0.00  0.00    +0.000 N 
ATOM      9  N   UNL     1      -8.564  -0.012 123.867  0.00  0.00    +0.000 N 
ATOM     10  C   UNL     1      -9.500   0.112 124.870  0.00  0.00    +0.000 A 
ATOM     11  N   UNL     1      -9.501   1.311 125.415  0.00  0.00    +0.000 NA
ATOM     12  H   UNL     1      -5.744   4.466 121.973  0.00  0.00    +0.000 HD
ATOM     13  H   UNL     1      -5.563   2.904 121.255  0.00  0.00    +0.000 HD
ATOM     14  H   UNL     1      -6.716   1.163 122.091  0.00  0.00    +0.000 HD
ENDROOT
BRANCH   9  15
ATOM     15  C   UNL     1      -8.124  -1.232 123.186  0.00  0.00    +0.000 C 
ATOM     16  C   UNL     1      -6.588  -1.328 123.157  0.00  0.00    +0.000 C 
ATOM     17  C   UNL     1      -6.161  -2.316 124.249  0.00  0.00    +0.000 C 
ATOM     18  C   UNL     1      -7.437  -2.865 124.905  0.00  0.00    +0.000 C 
ATOM     19  C   UNL     1      -8.496  -2.536 123.867  0.00  0.00    +0.000 C 
ATOM     20  C   UNL     1      -9.497  -3.354 123.503  0.00  0.00    +0.000 C 
BRANCH  17  21
ATOM     21  O   UNL     1      -5.388  -3.358 123.657  0.00  0.00    +0.000 OA
ATOM     22  H   UNL     1      -4.959  -3.871 124.363  0.00  0.00    +0.000 HD
ENDBRANCH  17  21
BRANCH  18  23
ATOM     23  C   UNL     1      -7.706  -2.156 126.242  0.00  0.00    +0.000 C 
BRANCH  23  24
ATOM     24  O   UNL     1      -8.791  -2.726 126.952  0.00  0.00    +0.000 OA
ATOM     25  H   UNL     1      -8.914  -2.226 127.773  0.00  0.00    +0.000 HD
ENDBRANCH  23  24
ENDBRANCH  18  23
ENDBRANCH   9  15
TORSDOF 4
ENDMDL
MODEL 3
REMARK VINA RESULT:      -6.2      2.537      5.565
REMARK  Name = Entecavir
REMARK  4 active torsions:
REMARK  status: ('A' for Active; 'I' for Inactive)
REMARK    1  A    between atoms: N_9  and  C_12
REMARK    2  A    between atoms: C_14  and  O_15
REMARK    3  A    between atoms: C_16  and  C_17
REMARK    4  A    between atoms: C_17  and  O_18
REMARK                            x       y       z     vdW  Elec       q    Type
REMARK                         _______ _______ _______ _____ _____    ______ ____
ROOT
ATOM      1  N   UNL     1      -7.925   3.548 123.494  0.00  0.00    +0.000 N 
ATOM      2  C   UNL     1      -8.410   2.292 123.392  0.00  0.00    +0.000 A 
ATOM      3  N   UNL     1      -9.646   2.101 123.028  0.00  0.00    +0.000 NA
ATOM      4  C   UNL     1     -10.149   0.804 122.906  0.00  0.00    +0.000 A 
ATOM      5  O   UNL     1     -11.309   0.574 122.565  0.00  0.00    +0.000 OA
ATOM      6  C   UNL     1      -9.195  -0.270 123.190  0.00  0.00    +0.000 A 
ATOM      7  C   UNL     1      -7.913   0.042 123.563  0.00  0.00    +0.000 A 
ATOM      8  N   UNL     1      -7.494   1.312 123.684  0.00  0.00    +0.000 N 
ATOM      9  N   UNL     1      -7.263  -1.139 123.780  0.00  0.00    +0.000 N 
ATOM     10  C   UNL     1      -8.159  -2.118 123.411  0.00  0.00    +0.000 A 
ATOM     11  N   UNL     1      -9.349  -1.632 123.123  0.00  0.00    +0.000 NA
ATOM     12  H   UNL     1      -8.560   4.307 123.275  0.00  0.00    +0.000 HD
ATOM     13  H   UNL     1      -6.993   3.786 123.788  0.00  0.00    +0.000 HD
ATOM     14  H   UNL     1      -6.568   1.586 123.981  0.00  0.00    +0.000 HD
ENDROOT
BRANCH   9  15
ATOM     15  C   UNL     1      -5.931  -1.306 124.366  0.00  0.00    +0.000 C 
ATOM     16  C   UNL     1      -5.701  -0.308 125.515  0.00  0.00    +0.000 C 
ATOM     17  C   UNL     1      -5.891  -1.064 126.836  0.00  0.00    +0.000 C 
ATOM     18  C   UNL     1      -6.178  -2.534 126.493  0.00  0.00    +0.000 C 
ATOM     19  C   UNL     1      -5.681  -2.632 125.062  0.00  0.00    +0.000 C 
ATOM     20  C   UNL     1      -4.983  -3.663 124.558  0.00  0.00    +0.000 C 
BRANCH  17  21
ATOM     21  O   UNL     1      -4.707  -0.932 127.620  0.00  0.00    +0.000 OA
ATOM     22  H   UNL     1      -4.950  -0.613 128.506  0.00  0.00    +0.000 HD
ENDBRANCH  17  21
BRANCH  18  23
ATOM     23  C   UNL     1      -7.683  -2.829 126.598  0.00  0.00    +0.000 C 
BRANCH  23  24
ATOM     24  O   UNL     1      -8.438  -1.686 126.953  0.00  0.00    +0.000 OA
ATOM     25  H   UNL     1      -8.036  -1.287 127.739  0.00  0.00    +0.000 HD
ENDBRANCH  23  24
ENDBRANCH  18  23
ENDBRANCH   9  15
TORSDOF 4
ENDMDL
MODEL 4
REMARK VINA RESULT:      -6.1      7.195      9.628
REMARK  Name = Entecavir
REMARK  4 active torsions:
REMARK  status: ('A' for Active; 'I' for Inactive)
REMARK    1  A    between atoms: N_9  and  C_12
REMARK    2  A    between atoms: C_14  and  O_15
REMARK    3  A    between atoms: C_16  and  C_17
REMARK    4  A    between atoms: C_17  and  O_18
REMARK                            x       y       z     vdW  Elec       q    Type
REMARK                         _______ _______ _______ _____ _____    ______ ____
ROOT
ATOM      1  N   UNL     1     -12.672   8.990 129.985  0.00  0.00    +0.000 N 
ATOM      2  C   UNL     1     -11.867   8.258 129.186  0.00  0.00    +0.000 A 
ATOM      3  N   UNL     1     -11.806   8.519 127.912  0.00  0.00    +0.000 NA
ATOM      4  C   UNL     1     -10.964   7.775 127.083  0.00  0.00    +0.000 A 
ATOM      5  O   UNL     1     -10.873   7.985 125.873  0.00  0.00    +0.000 OA
ATOM      6  C   UNL     1     -10.176   6.739 127.753  0.00  0.00    +0.000 A 
ATOM      7  C   UNL     1     -10.314   6.549 129.104  0.00  0.00    +0.000 A 
ATOM      8  N   UNL     1     -11.158   7.284 129.846  0.00  0.00    +0.000 N 
ATOM      9  N   UNL     1      -9.485   5.520 129.448  0.00  0.00    +0.000 N 
ATOM     10  C   UNL     1      -8.794   5.212 128.297  0.00  0.00    +0.000 A 
ATOM     11  N   UNL     1      -9.238   5.874 127.249  0.00  0.00    +0.000 NA
ATOM     12  H   UNL     1     -13.205   9.732 129.548  0.00  0.00    +0.000 HD
ATOM     13  H   UNL     1     -12.795   8.844 130.974  0.00  0.00    +0.000 HD
ATOM     14  H   UNL     1     -11.310   7.160 130.836  0.00  0.00    +0.000 HD
ENDROOT
BRANCH   9  15
ATOM     15  C   UNL     1      -9.427   4.844 130.746  0.00  0.00    +0.000 C 
ATOM     16  C   UNL     1      -8.283   3.815 130.785  0.00  0.00    +0.000 C 
ATOM     17  C   UNL     1      -7.117   4.442 131.558  0.00  0.00    +0.000 C 
ATOM     18  C   UNL     1      -7.571   5.828 132.041  0.00  0.00    +0.000 C 
ATOM     19  C   UNL     1      -9.082   5.725 131.932  0.00  0.00    +0.000 C 
ATOM     20  C   UNL     1      -9.953   6.198 132.838  0.00  0.00    +0.000 C 
BRANCH  17  21
ATOM     21  O   UNL     1      -6.777   3.593 132.653  0.00  0.00    +0.000 OA
ATOM     22  H   UNL     1      -5.895   3.214 132.495  0.00  0.00    +0.000 HD
ENDBRANCH  17  21
BRANCH  18  23
ATOM     23  C   UNL     1      -7.004   6.929 131.131  0.00  0.00    +0.000 C 
BRANCH  23  24
ATOM     24  O   UNL     1      -6.058   6.434 130.201  0.00  0.00    +0.000 OA
ATOM     25  H   UNL     1      -5.176   6.714 130.487  0.00  0.00    +0.000 HD
ENDBRANCH  23  24
ENDBRANCH  18  23
ENDBRANCH   9  15
TORSDOF 4
ENDMDL
MODEL 5
REMARK VINA RESULT:      -6.0      1.852      3.417
REMARK  Name = Entecavir
REMARK  4 active torsions:
REMARK  status: ('A' for Active; 'I' for Inactive)
REMARK    1  A    between atoms: N_9  and  C_12
REMARK    2  A    between atoms: C_14  and  O_15
REMARK    3  A    between atoms: C_16  and  C_17
REMARK    4  A    between atoms: C_17  and  O_18
REMARK                            x       y       z     vdW  Elec       q    Type
REMARK                         _______ _______ _______ _____ _____    ______ ____
ROOT
ATOM      1  N   UNL     1      -5.382  -3.014 124.439  0.00  0.00    +0.000 N 
ATOM      2  C   UNL     1      -6.558  -2.403 124.183  0.00  0.00    +0.000 A 
ATOM      3  N   UNL     1      -7.609  -3.115 123.895  0.00  0.00    +0.000 NA
ATOM      4  C   UNL     1      -8.833  -2.490 123.644  0.00  0.00    +0.000 A 
ATOM      5  O   UNL     1      -9.854  -3.121 123.369  0.00  0.00    +0.000 OA
ATOM      6  C   UNL     1      -8.828  -1.030 123.752  0.00  0.00    +0.000 A 
ATOM      7  C   UNL     1      -7.663  -0.377 124.066  0.00  0.00    +0.000 A 
ATOM      8  N   UNL     1      -6.511  -1.033 124.275  0.00  0.00    +0.000 N 
ATOM      9  N   UNL     1      -7.947   0.958 124.078  0.00  0.00    +0.000 N 
ATOM     10  C   UNL     1      -9.308   1.041 123.885  0.00  0.00    +0.000 A 
ATOM     11  N   UNL     1      -9.852  -0.128 123.613  0.00  0.00    +0.000 NA
ATOM     12  H   UNL     1      -5.368  -4.026 124.398  0.00  0.00    +0.000 HD
ATOM     13  H   UNL     1      -4.518  -2.541 124.648  0.00  0.00    +0.000 HD
ATOM     14  H   UNL     1      -5.627  -0.591 124.481  0.00  0.00    +0.000 HD
ENDROOT
BRANCH   9  15
ATOM     15  C   UNL     1      -6.981   2.054 124.185  0.00  0.00    +0.000 C 
ATOM     16  C   UNL     1      -7.661   3.417 123.967  0.00  0.00    +0.000 C 
ATOM     17  C   UNL     1      -7.871   4.060 125.343  0.00  0.00    +0.000 C 
ATOM     18  C   UNL     1      -7.267   3.117 126.395  0.00  0.00    +0.000 C 
ATOM     19  C   UNL     1      -6.351   2.245 125.553  0.00  0.00    +0.000 C 
ATOM     20  C   UNL     1      -5.116   1.857 125.909  0.00  0.00    +0.000 C 
BRANCH  17  21
ATOM     21  O   UNL     1      -7.236   5.337 125.361  0.00  0.00    +0.000 OA
ATOM     22  H   UNL     1      -7.882   6.013 125.094  0.00  0.00    +0.000 HD
ENDBRANCH  17  21
BRANCH  18  23
ATOM     23  C   UNL     1      -8.370   2.294 127.080  0.00  0.00    +0.000 C 
BRANCH  23  24
ATOM     24  O   UNL     1      -8.772   2.849 128.319  0.00  0.00    +0.000 OA
ATOM     25  H   UNL     1      -8.779   2.143 128.981  0.00  0.00    +0.000 HD
ENDBRANCH  23  24
ENDBRANCH  18  23
ENDBRANCH   9  15
TORSDOF 4
ENDMDL
MODEL 6
REMARK VINA RESULT:      -5.9      2.500      4.110
REMARK  Name = Entecavir
REMARK  4 active torsions:
REMARK  status: ('A' for Active; 'I' for Inactive)
REMARK    1  A    between atoms: N_9  and  C_12
REMARK    2  A    between atoms: C_14  and  O_15
REMARK    3  A    between atoms: C_16  and  C_17
REMARK    4  A    between atoms: C_17  and  O_18
REMARK                            x       y       z     vdW  Elec       q    Type
REMARK                         _______ _______ _______ _____ _____    ______ ____
ROOT
ATOM      1  N   UNL     1      -7.894  -2.370 124.588  0.00  0.00    +0.000 N 
ATOM      2  C   UNL     1      -8.282  -1.146 124.169  0.00  0.00    +0.000 A 
ATOM      3  N   UNL     1      -9.372  -1.016 123.470  0.00  0.00    +0.000 NA
ATOM      4  C   UNL     1      -9.787   0.250 123.047  0.00  0.00    +0.000 A 
ATOM      5  O   UNL     1     -10.810   0.422 122.384  0.00  0.00    +0.000 OA
ATOM      6  C   UNL     1      -8.934   1.363 123.464  0.00  0.00    +0.000 A 
ATOM      7  C   UNL     1      -7.807   1.115 124.205  0.00  0.00    +0.000 A 
ATOM      8  N   UNL     1      -7.448  -0.128 124.563  0.00  0.00    +0.000 N 
ATOM      9  N   UNL     1      -7.205   2.319 124.429  0.00  0.00    +0.000 N 
ATOM     10  C   UNL     1      -8.067   3.258 123.908  0.00  0.00    +0.000 A 
ATOM     11  N   UNL     1      -9.075   2.712 123.258  0.00  0.00    +0.000 NA
ATOM     12  H   UNL     1      -8.485  -3.153 124.335  0.00  0.00    +0.000 HD
ATOM     13  H   UNL     1      -7.057  -2.564 125.113  0.00  0.00    +0.000 HD
ATOM     14  H   UNL     1      -6.614  -0.359 125.084  0.00  0.00    +0.000 HD
ENDROOT
BRANCH   9  15
ATOM     15  C   UNL     1      -5.881   2.536 125.019  0.00  0.00    +0.000 C 
ATOM     16  C   UNL     1      -5.490   4.024 124.973  0.00  0.00    +0.000 C 
ATOM     17  C   UNL     1      -5.719   4.611 126.371  0.00  0.00    +0.000 C 
ATOM     18  C   UNL     1      -6.194   3.468 127.283  0.00  0.00    +0.000 C 
ATOM     19  C   UNL     1      -5.766   2.238 126.502  0.00  0.00    +0.000 C 
ATOM     20  C   UNL     1      -5.216   1.137 127.041  0.00  0.00    +0.000 C 
BRANCH  17  21
ATOM     21  O   UNL     1      -4.499   5.181 126.840  0.00  0.00    +0.000 OA
ATOM     22  H   UNL     1      -3.832   4.478 126.916  0.00  0.00    +0.000 HD
ENDBRANCH  17  21
BRANCH  18  23
ATOM     23  C   UNL     1      -7.718   3.525 127.471  0.00  0.00    +0.000 C 
BRANCH  23  24
ATOM     24  O   UNL     1      -8.243   4.824 127.269  0.00  0.00    +0.000 OA
ATOM     25  H   UNL     1      -8.433   5.215 128.135  0.00  0.00    +0.000 HD
ENDBRANCH  23  24
ENDBRANCH  18  23
ENDBRANCH   9  15
TORSDOF 4
ENDMDL
MODEL 7
REMARK VINA RESULT:      -5.9      2.264      5.896
REMARK  Name = Entecavir
REMARK  4 active torsions:
REMARK  status: ('A' for Active; 'I' for Inactive)
REMARK    1  A    between atoms: N_9  and  C_12
REMARK    2  A    between atoms: C_14  and  O_15
REMARK    3  A    between atoms: C_16  and  C_17
REMARK    4  A    between atoms: C_17  and  O_18
REMARK                            x       y       z     vdW  Elec       q    Type
REMARK                         _______ _______ _______ _____ _____    ______ ____
ROOT
ATOM      1  N   UNL     1      -4.338   3.229 125.847  0.00  0.00    +0.000 N 
ATOM      2  C   UNL     1      -5.666   2.998 125.768  0.00  0.00    +0.000 A 
ATOM      3  N   UNL     1      -6.495   4.000 125.686  0.00  0.00    +0.000 NA
ATOM      4  C   UNL     1      -7.869   3.767 125.588  0.00  0.00    +0.000 A 
ATOM      5  O   UNL     1      -8.690   4.681 125.508  0.00  0.00    +0.000 OA
ATOM      6  C   UNL     1      -8.268   2.360 125.566  0.00  0.00    +0.000 A 
ATOM      7  C   UNL     1      -7.312   1.380 125.655  0.00  0.00    +0.000 A 
ATOM      8  N   UNL     1      -6.005   1.668 125.769  0.00  0.00    +0.000 N 
ATOM      9  N   UNL     1      -7.965   0.182 125.630  0.00  0.00    +0.000 N 
ATOM     10  C   UNL     1      -9.288   0.495 125.407  0.00  0.00    +0.000 A 
ATOM     11  N   UNL     1      -9.511   1.793 125.438  0.00  0.00    +0.000 NA
ATOM     12  H   UNL     1      -4.036   4.196 125.835  0.00  0.00    +0.000 HD
ATOM     13  H   UNL     1      -3.631   2.518 125.935  0.00  0.00    +0.000 HD
ATOM     14  H   UNL     1      -5.271   0.980 125.864  0.00  0.00    +0.000 HD
ENDROOT
BRANCH   9  15
ATOM     15  C   UNL     1      -7.378  -1.136 125.880  0.00  0.00    +0.000 C 
ATOM     16  C   UNL     1      -8.469  -2.188 126.148  0.00  0.00    +0.000 C 
ATOM     17  C   UNL     1      -8.655  -3.006 124.864  0.00  0.00    +0.000 C 
ATOM     18  C   UNL     1      -7.638  -2.492 123.834  0.00  0.00    +0.000 C 
ATOM     19  C   UNL     1      -6.638  -1.759 124.711  0.00  0.00    +0.000 C 
ATOM     20  C   UNL     1      -5.304  -1.805 124.561  0.00  0.00    +0.000 C 
BRANCH  17  21
ATOM     21  O   UNL     1      -8.449  -4.386 125.159  0.00  0.00    +0.000 OA
ATOM     22  H   UNL     1      -9.311  -4.807 125.317  0.00  0.00    +0.000 HD
ENDBRANCH  17  21
BRANCH  18  23
ATOM     23  C   UNL     1      -8.316  -1.549 122.828  0.00  0.00    +0.000 C 
BRANCH  23  24
ATOM     24  O   UNL     1      -9.729  -1.631 122.872  0.00  0.00    +0.000 OA
ATOM     25  H   UNL     1     -10.070  -1.500 121.975  0.00  0.00    +0.000 HD
ENDBRANCH  23  24
ENDBRANCH  18  23
ENDBRANCH   9  15
TORSDOF 4
ENDMDL
MODEL 8
REMARK VINA RESULT:      -5.8      7.048      9.611
REMARK  Name = Entecavir
REMARK  4 active torsions:
REMARK  status: ('A' for Active; 'I' for Inactive)
REMARK    1  A    between atoms: N_9  and  C_12
REMARK    2  A    between atoms: C_14  and  O_15
REMARK    3  A    between atoms: C_16  and  C_17
REMARK    4  A    between atoms: C_17  and  O_18
REMARK                            x       y       z     vdW  Elec       q    Type
REMARK                         _______ _______ _______ _____ _____    ______ ____
ROOT
ATOM      1  N   UNL     1     -12.713   7.336 131.665  0.00  0.00    +0.000 N 
ATOM      2  C   UNL     1     -11.772   6.901 130.800  0.00  0.00    +0.000 A 
ATOM      3  N   UNL     1     -11.508   7.591 129.728  0.00  0.00    +0.000 NA
ATOM      4  C   UNL     1     -10.525   7.154 128.837  0.00  0.00    +0.000 A 
ATOM      5  O   UNL     1     -10.241   7.772 127.811  0.00  0.00    +0.000 OA
ATOM      6  C   UNL     1      -9.837   5.919 129.216  0.00  0.00    +0.000 A 
ATOM      7  C   UNL     1     -10.190   5.272 130.373  0.00  0.00    +0.000 A 
ATOM      8  N   UNL     1     -11.161   5.731 131.179  0.00  0.00    +0.000 N 
ATOM      9  N   UNL     1      -9.408   4.157 130.460  0.00  0.00    +0.000 N 
ATOM     10  C   UNL     1      -8.530   4.247 129.402  0.00  0.00    +0.000 A 
ATOM     11  N   UNL     1      -8.809   5.252 128.598  0.00  0.00    +0.000 NA
ATOM     12  H   UNL     1     -13.183   8.204 131.438  0.00  0.00    +0.000 HD
ATOM     13  H   UNL     1     -12.994   6.856 132.505  0.00  0.00    +0.000 HD
ATOM     14  H   UNL     1     -11.471   5.273 132.024  0.00  0.00    +0.000 HD
ENDROOT
BRANCH   9  15
ATOM     15  C   UNL     1      -9.550   3.066 131.427  0.00  0.00    +0.000 C 
ATOM     16  C   UNL     1      -8.889   1.776 130.909  0.00  0.00    +0.000 C 
ATOM     17  C   UNL     1      -7.534   1.630 131.613  0.00  0.00    +0.000 C 
ATOM     18  C   UNL     1      -7.395   2.798 132.602  0.00  0.00    +0.000 C 
ATOM     19  C   UNL     1      -8.833   3.263 132.750  0.00  0.00    +0.000 C 
ATOM     20  C   UNL     1      -9.409   3.625 133.908  0.00  0.00    +0.000 C 
BRANCH  17  21
ATOM     21  O   UNL     1      -7.492   0.371 132.282  0.00  0.00    +0.000 OA
ATOM     22  H   UNL     1      -7.670   0.511 133.228  0.00  0.00    +0.000 HD
ENDBRANCH  17  21
BRANCH  18  23
ATOM     23  C   UNL     1      -6.495   3.897 132.016  0.00  0.00    +0.000 C 
BRANCH  23  24
ATOM     24  O   UNL     1      -6.715   5.159 132.619  0.00  0.00    +0.000 OA
ATOM     25  H   UNL     1      -7.196   5.717 131.990  0.00  0.00    +0.000 HD
ENDBRANCH  23  24
ENDBRANCH  18  23
ENDBRANCH   9  15
TORSDOF 4
ENDMDL
MODEL 9
REMARK VINA RESULT:      -5.8      3.545      6.125
REMARK  Name = Entecavir
REMARK  4 active torsions:
REMARK  status: ('A' for Active; 'I' for Inactive)
REMARK    1  A    between atoms: N_9  and  C_12
REMARK    2  A    between atoms: C_14  and  O_15
REMARK    3  A    between atoms: C_16  and  C_17
REMARK    4  A    between atoms: C_17  and  O_18
REMARK                            x       y       z     vdW  Elec       q    Type
REMARK                         _______ _______ _______ _____ _____    ______ ____
ROOT
ATOM      1  N   UNL     1      -1.782   2.685 126.607  0.00  0.00    +0.000 N 
ATOM      2  C   UNL     1      -2.938   3.322 126.894  0.00  0.00    +0.000 A 
ATOM      3  N   UNL     1      -2.921   4.585 127.210  0.00  0.00    +0.000 NA
ATOM      4  C   UNL     1      -4.114   5.253 127.494  0.00  0.00    +0.000 A 
ATOM      5  O   UNL     1      -4.148   6.446 127.797  0.00  0.00    +0.000 OA
ATOM      6  C   UNL     1      -5.329   4.445 127.385  0.00  0.00    +0.000 A 
ATOM      7  C   UNL     1      -5.235   3.121 127.039  0.00  0.00    +0.000 A 
ATOM      8  N   UNL     1      -4.054   2.529 126.799  0.00  0.00    +0.000 N 
ATOM      9  N   UNL     1      -6.505   2.620 127.034  0.00  0.00    +0.000 N 
ATOM     10  C   UNL     1      -7.323   3.704 127.263  0.00  0.00    +0.000 A 
ATOM     11  N   UNL     1      -6.645   4.796 127.551  0.00  0.00    +0.000 NA
ATOM     12  H   UNL     1      -0.931   3.233 126.648  0.00  0.00    +0.000 HD
ATOM     13  H   UNL     1      -1.702   1.709 126.374  0.00  0.00    +0.000 HD
ATOM     14  H   UNL     1      -3.937   1.552 126.569  0.00  0.00    +0.000 HD
ENDROOT
BRANCH   9  15
ATOM     15  C   UNL     1      -6.886   1.212 126.900  0.00  0.00    +0.000 C 
ATOM     16  C   UNL     1      -8.396   1.021 127.129  0.00  0.00    +0.000 C 
ATOM     17  C   UNL     1      -9.062   0.872 125.756  0.00  0.00    +0.000 C 
ATOM     18  C   UNL     1      -7.952   0.912 124.694  0.00  0.00    +0.000 C 
ATOM     19  C   UNL     1      -6.711   0.612 125.517  0.00  0.00    +0.000 C 
ATOM     20  C   UNL     1      -5.709  -0.196 125.133  0.00  0.00    +0.000 C 
BRANCH  17  21
ATOM     21  O   UNL     1      -9.776  -0.362 125.718  0.00  0.00    +0.000 OA
ATOM     22  H   UNL     1     -10.531  -0.270 125.113  0.00  0.00    +0.000 HD
ENDBRANCH  17  21
BRANCH  18  23
ATOM     23  C   UNL     1      -7.882   2.300 124.037  0.00  0.00    +0.000 C 
BRANCH  23  24
ATOM     24  O   UNL     1      -9.058   3.060 124.245  0.00  0.00    +0.000 OA
ATOM     25  H   UNL     1      -9.595   3.017 123.439  0.00  0.00    +0.000 HD
ENDBRANCH  23  24
ENDBRANCH  18  23
ENDBRANCH   9  15
TORSDOF 4
ENDMDL
