MODEL 1
REMARK VINA RESULT:     -10.3      0.000      0.000
REMARK  Name = Entrectinib
REMARK  7 active torsions:
REMARK  status: ('A' for Active; 'I' for Inactive)
REMARK    1  A    between atoms: C_1  and  N_2
REMARK    2  A    between atoms: N_5  and  C_8
REMARK    3  A    between atoms: C_11  and  C_12
REMARK    4  A    between atoms: C_21  and  C_22
REMARK    5  A    between atoms: C_22  and  C_23
REMARK    6  A    between atoms: C_33  and  N_34
REMARK    7  A    between atoms: N_34  and  C_35
REMARK                            x       y       z     vdW  Elec       q    Type
REMARK                         _______ _______ _______ _____ _____    ______ ____
ROOT
ATOM      1  C   UNL     1      -6.534   2.781 131.822  0.00  0.00    +0.000 C 
ATOM      2  O   UNL     1      -6.261   1.595 132.039  0.00  0.00    +0.000 OA
ATOM      3  N   UNL     1      -6.891   3.391 130.325  0.00  0.00    +0.000 N 
ATOM      4  C   UNL     1      -7.424   2.631 128.960  0.00  0.00    +0.000 A 
ATOM      5  N   UNL     1      -8.313   1.730 129.348  0.00  0.00    +0.000 NA
ATOM      6  N   UNL     1      -8.114   0.920 128.358  0.00  0.00    +0.000 N 
ATOM      7  C   UNL     1      -8.343   1.507 127.156  0.00  0.00    +0.000 A 
ATOM      8  C   UNL     1      -9.028   0.713 126.141  0.00  0.00    +0.000 A 
ATOM      9  C   UNL     1      -9.205   0.978 124.813  0.00  0.00    +0.000 A 
ATOM     10  C   UNL     1      -8.723   2.182 124.436  0.00  0.00    +0.000 A 
ATOM     11  C   UNL     1      -7.961   2.971 125.568  0.00  0.00    +0.000 A 
ATOM     12  C   UNL     1      -7.677   2.851 127.195  0.00  0.00    +0.000 A 
ATOM     13  H   UNL     1      -7.756   3.859 130.582  0.00  0.00    +0.000 HD
ATOM     14  H   UNL     1      -7.535   0.110 128.500  0.00  0.00    +0.000 HD
ENDROOT
BRANCH   1  18
ATOM     15  C   UNL     1      -6.605   5.507 135.789  0.00  0.00    +0.000 A 
ATOM     16  C   UNL     1      -5.400   5.086 135.254  0.00  0.00    +0.000 A 
ATOM     17  C   UNL     1      -5.333   4.254 134.018  0.00  0.00    +0.000 A 
ATOM     18  C   UNL     1      -6.487   3.774 133.257  0.00  0.00    +0.000 A 
ATOM     19  C   UNL     1      -7.671   4.211 133.838  0.00  0.00    +0.000 A 
ATOM     20  C   UNL     1      -7.682   5.002 135.076  0.00  0.00    +0.000 A 
BRANCH  15  25
ATOM     21  C   UNL     1      -7.775  10.216 138.654  0.00  0.00    +0.000 C 
ATOM     22  N   UNL     1      -7.409   8.822 138.410  0.00  0.00    +0.000 NA
ATOM     23  C   UNL     1      -6.178   8.718 137.596  0.00  0.00    +0.000 C 
ATOM     24  C   UNL     1      -5.721   7.237 137.382  0.00  0.00    +0.000 C 
ATOM     25  N   UNL     1      -6.804   6.383 136.847  0.00  0.00    +0.000 N 
ATOM     26  C   UNL     1      -8.131   6.603 137.480  0.00  0.00    +0.000 C 
ATOM     27  C   UNL     1      -8.473   8.109 137.672  0.00  0.00    +0.000 C 
ENDBRANCH  15  25
BRANCH  19  28
ATOM     28  N   UNL     1      -8.856   3.809 133.219  0.00  0.00    +0.000 N 
ATOM     29  H   UNL     1      -8.813   2.816 132.994  0.00  0.00    +0.000 HD
BRANCH  28  30
ATOM     30  C   UNL     1      -9.443   4.591 132.161  0.00  0.00    +0.000 C 
ATOM     31  C   UNL     1     -10.075   5.899 132.656  0.00  0.00    +0.000 C 
ATOM     32  C   UNL     1     -10.823   6.550 131.516  0.00  0.00    +0.000 C 
ATOM     33  O   UNL     1     -11.713   5.625 130.887  0.00  0.00    +0.000 OA
ATOM     34  C   UNL     1     -11.038   4.525 130.274  0.00  0.00    +0.000 C 
ATOM     35  C   UNL     1     -10.333   3.691 131.308  0.00  0.00    +0.000 C 
ENDBRANCH  28  30
ENDBRANCH  19  28
ENDBRANCH   1  18
BRANCH  10  36
ATOM     36  C   UNL     1      -9.179   2.471 122.945  0.00  0.00    +0.000 C 
BRANCH  36  37
ATOM     37  C   UNL     1      -8.213   3.054 121.967  0.00  0.00    +0.000 A 
ATOM     38  C   UNL     1      -6.824   3.130 122.185  0.00  0.00    +0.000 A 
ATOM     39  C   UNL     1      -6.015   3.730 121.220  0.00  0.00    +0.000 A 
ATOM     40  F   UNL     1      -4.703   3.881 121.449  0.00  0.00    +0.000 F 
ATOM     41  C   UNL     1      -6.552   4.190 120.026  0.00  0.00    +0.000 A 
ATOM     42  C   UNL     1      -7.927   4.157 119.852  0.00  0.00    +0.000 A 
ATOM     43  F   UNL     1      -8.476   4.630 118.728  0.00  0.00    +0.000 F 
ATOM     44  C   UNL     1      -8.758   3.636 120.826  0.00  0.00    +0.000 A 
ENDBRANCH  36  37
ENDBRANCH  10  36
TORSDOF 6
ENDMDL
MODEL 2
REMARK VINA RESULT:     -10.3      1.904      2.955
REMARK  Name = Entrectinib
REMARK  7 active torsions:
REMARK  status: ('A' for Active; 'I' for Inactive)
REMARK    1  A    between atoms: C_1  and  N_2
REMARK    2  A    between atoms: N_5  and  C_8
REMARK    3  A    between atoms: C_11  and  C_12
REMARK    4  A    between atoms: C_21  and  C_22
REMARK    5  A    between atoms: C_22  and  C_23
REMARK    6  A    between atoms: C_33  and  N_34
REMARK    7  A    between atoms: N_34  and  C_35
REMARK                            x       y       z     vdW  Elec       q    Type
REMARK                         _______ _______ _______ _____ _____    ______ ____
ROOT
ATOM      1  C   UNL     1      -6.949   2.977 131.694  0.00  0.00    +0.000 C 
ATOM      2  O   UNL     1      -6.562   1.824 131.915  0.00  0.00    +0.000 OA
ATOM      3  N   UNL     1      -7.300   3.565 130.187  0.00  0.00    +0.000 N 
ATOM      4  C   UNL     1      -7.690   2.771 128.793  0.00  0.00    +0.000 A 
ATOM      5  N   UNL     1      -8.496   1.777 129.134  0.00  0.00    +0.000 NA
ATOM      6  N   UNL     1      -8.170   1.004 128.148  0.00  0.00    +0.000 N 
ATOM      7  C   UNL     1      -8.406   1.579 126.942  0.00  0.00    +0.000 A 
ATOM      8  C   UNL     1      -8.958   0.730 125.891  0.00  0.00    +0.000 A 
ATOM      9  C   UNL     1      -9.102   0.991 124.558  0.00  0.00    +0.000 A 
ATOM     10  C   UNL     1      -8.734   2.244 124.212  0.00  0.00    +0.000 A 
ATOM     11  C   UNL     1      -8.108   3.094 125.383  0.00  0.00    +0.000 A 
ATOM     12  C   UNL     1      -7.886   2.984 127.020  0.00  0.00    +0.000 A 
ATOM     13  H   UNL     1      -8.220   3.937 130.408  0.00  0.00    +0.000 HD
ATOM     14  H   UNL     1      -7.515   0.257 128.310  0.00  0.00    +0.000 HD
ENDROOT
BRANCH   1  18
ATOM     15  C   UNL     1      -7.101   5.745 135.630  0.00  0.00    +0.000 A 
ATOM     16  C   UNL     1      -8.200   4.985 135.269  0.00  0.00    +0.000 A 
ATOM     17  C   UNL     1      -8.189   4.101 134.067  0.00  0.00    +0.000 A 
ATOM     18  C   UNL     1      -7.069   3.952 133.137  0.00  0.00    +0.000 A 
ATOM     19  C   UNL     1      -5.997   4.742 133.534  0.00  0.00    +0.000 A 
ATOM     20  C   UNL     1      -6.071   5.620 134.709  0.00  0.00    +0.000 A 
BRANCH  15  25
ATOM     21  C   UNL     1      -7.084  10.134 139.164  0.00  0.00    +0.000 C 
ATOM     22  N   UNL     1      -6.901   8.763 138.688  0.00  0.00    +0.000 NA
ATOM     23  C   UNL     1      -5.958   8.705 137.549  0.00  0.00    +0.000 C 
ATOM     24  C   UNL     1      -5.686   7.242 137.067  0.00  0.00    +0.000 C 
ATOM     25  N   UNL     1      -6.933   6.500 136.782  0.00  0.00    +0.000 N 
ATOM     26  C   UNL     1      -8.010   6.697 137.788  0.00  0.00    +0.000 C 
ATOM     27  C   UNL     1      -8.177   8.183 138.219  0.00  0.00    +0.000 C 
ENDBRANCH  15  25
BRANCH  19  28
ATOM     28  N   UNL     1      -4.862   4.706 132.721  0.00  0.00    +0.000 N 
ATOM     29  H   UNL     1      -4.143   4.125 133.150  0.00  0.00    +0.000 HD
BRANCH  28  30
ATOM     30  C   UNL     1      -4.326   5.912 132.142  0.00  0.00    +0.000 C 
ATOM     31  C   UNL     1      -5.231   6.515 131.059  0.00  0.00    +0.000 C 
ATOM     32  C   UNL     1      -4.503   7.657 130.386  0.00  0.00    +0.000 C 
ATOM     33  O   UNL     1      -3.198   7.257 129.960  0.00  0.00    +0.000 OA
ATOM     34  C   UNL     1      -2.341   6.892 131.043  0.00  0.00    +0.000 C 
ATOM     35  C   UNL     1      -2.870   5.676 131.753  0.00  0.00    +0.000 C 
ENDBRANCH  28  30
ENDBRANCH  19  28
ENDBRANCH   1  18
BRANCH  10  36
ATOM     36  C   UNL     1      -9.151   2.501 122.704  0.00  0.00    +0.000 C 
BRANCH  36  37
ATOM     37  C   UNL     1      -8.176   3.114 121.753  0.00  0.00    +0.000 A 
ATOM     38  C   UNL     1      -6.791   3.199 121.993  0.00  0.00    +0.000 A 
ATOM     39  C   UNL     1      -5.974   3.827 121.053  0.00  0.00    +0.000 A 
ATOM     40  F   UNL     1      -4.667   3.987 121.304  0.00  0.00    +0.000 F 
ATOM     41  C   UNL     1      -6.498   4.306 119.860  0.00  0.00    +0.000 A 
ATOM     42  C   UNL     1      -7.870   4.262 119.665  0.00  0.00    +0.000 A 
ATOM     43  F   UNL     1      -8.408   4.753 118.543  0.00  0.00    +0.000 F 
ATOM     44  C   UNL     1      -8.710   3.714 120.615  0.00  0.00    +0.000 A 
ENDBRANCH  36  37
ENDBRANCH  10  36
TORSDOF 6
ENDMDL
MODEL 3
REMARK VINA RESULT:     -10.2      1.432      2.306
REMARK  Name = Entrectinib
REMARK  7 active torsions:
REMARK  status: ('A' for Active; 'I' for Inactive)
REMARK    1  A    between atoms: C_1  and  N_2
REMARK    2  A    between atoms: N_5  and  C_8
REMARK    3  A    between atoms: C_11  and  C_12
REMARK    4  A    between atoms: C_21  and  C_22
REMARK    5  A    between atoms: C_22  and  C_23
REMARK    6  A    between atoms: C_33  and  N_34
REMARK    7  A    between atoms: N_34  and  C_35
REMARK                            x       y       z     vdW  Elec       q    Type
REMARK                         _______ _______ _______ _____ _____    ______ ____
ROOT
ATOM      1  C   UNL     1      -7.357   2.486 130.798  0.00  0.00    +0.000 C 
ATOM      2  O   UNL     1      -7.484   1.270 130.978  0.00  0.00    +0.000 OA
ATOM      3  N   UNL     1      -7.295   3.202 129.307  0.00  0.00    +0.000 N 
ATOM      4  C   UNL     1      -7.827   2.665 127.839  0.00  0.00    +0.000 A 
ATOM      5  N   UNL     1      -8.991   2.069 128.052  0.00  0.00    +0.000 NA
ATOM      6  N   UNL     1      -8.902   1.255 127.049  0.00  0.00    +0.000 N 
ATOM      7  C   UNL     1      -8.769   1.905 125.866  0.00  0.00    +0.000 A 
ATOM      8  C   UNL     1      -9.506   1.374 124.723  0.00  0.00    +0.000 A 
ATOM      9  C   UNL     1      -9.402   1.703 123.401  0.00  0.00    +0.000 A 
ATOM     10  C   UNL     1      -8.533   2.711 123.164  0.00  0.00    +0.000 A 
ATOM     11  C   UNL     1      -7.742   3.210 124.433  0.00  0.00    +0.000 A 
ATOM     12  C   UNL     1      -7.745   2.981 126.073  0.00  0.00    +0.000 A 
ATOM     13  H   UNL     1      -8.008   3.906 129.475  0.00  0.00    +0.000 HD
ATOM     14  H   UNL     1      -8.618   0.304 127.217  0.00  0.00    +0.000 HD
ENDROOT
BRANCH   1  18
ATOM     15  C   UNL     1      -7.075   5.142 134.804  0.00  0.00    +0.000 A 
ATOM     16  C   UNL     1      -6.716   3.806 134.827  0.00  0.00    +0.000 A 
ATOM     17  C   UNL     1      -6.772   2.952 133.605  0.00  0.00    +0.000 A 
ATOM     18  C   UNL     1      -7.223   3.393 132.284  0.00  0.00    +0.000 A 
ATOM     19  C   UNL     1      -7.584   4.734 132.314  0.00  0.00    +0.000 A 
ATOM     20  C   UNL     1      -7.541   5.522 133.553  0.00  0.00    +0.000 A 
BRANCH  15  25
ATOM     21  C   UNL     1      -6.492   7.344 139.958  0.00  0.00    +0.000 C 
ATOM     22  N   UNL     1      -6.641   7.292 138.504  0.00  0.00    +0.000 NA
ATOM     23  C   UNL     1      -7.894   6.610 138.110  0.00  0.00    +0.000 C 
ATOM     24  C   UNL     1      -8.115   6.605 136.561  0.00  0.00    +0.000 C 
ATOM     25  N   UNL     1      -6.948   6.073 135.825  0.00  0.00    +0.000 N 
ATOM     26  C   UNL     1      -5.632   6.555 136.324  0.00  0.00    +0.000 C 
ATOM     27  C   UNL     1      -5.530   6.546 137.877  0.00  0.00    +0.000 C 
ENDBRANCH  15  25
BRANCH  19  28
ATOM     28  N   UNL     1      -8.051   5.282 131.118  0.00  0.00    +0.000 N 
ATOM     29  H   UNL     1      -7.366   5.935 130.741  0.00  0.00    +0.000 HD
BRANCH  28  30
ATOM     30  C   UNL     1      -9.402   5.770 131.003  0.00  0.00    +0.000 C 
ATOM     31  C   UNL     1     -10.393   4.699 130.529  0.00  0.00    +0.000 C 
ATOM     32  C   UNL     1     -11.731   5.349 130.259  0.00  0.00    +0.000 C 
ATOM     33  O   UNL     1     -11.590   6.489 129.410  0.00  0.00    +0.000 OA
ATOM     34  C   UNL     1     -10.811   7.533 129.997  0.00  0.00    +0.000 C 
ATOM     35  C   UNL     1      -9.395   7.080 130.220  0.00  0.00    +0.000 C 
ENDBRANCH  28  30
ENDBRANCH  19  28
ENDBRANCH   1  18
BRANCH  10  36
ATOM     36  C   UNL     1      -8.662   3.150 121.646  0.00  0.00    +0.000 C 
BRANCH  36  37
ATOM     37  C   UNL     1      -7.512   3.811 120.960  0.00  0.00    +0.000 A 
ATOM     38  C   UNL     1      -7.565   4.313 119.646  0.00  0.00    +0.000 A 
ATOM     39  C   UNL     1      -6.419   4.878 119.086  0.00  0.00    +0.000 A 
ATOM     40  F   UNL     1      -6.431   5.289 117.810  0.00  0.00    +0.000 F 
ATOM     41  C   UNL     1      -5.254   5.011 119.830  0.00  0.00    +0.000 A 
ATOM     42  C   UNL     1      -5.204   4.462 121.102  0.00  0.00    +0.000 A 
ATOM     43  F   UNL     1      -4.082   4.538 121.826  0.00  0.00    +0.000 F 
ATOM     44  C   UNL     1      -6.303   3.829 121.650  0.00  0.00    +0.000 A 
ENDBRANCH  36  37
ENDBRANCH  10  36
TORSDOF 6
ENDMDL
MODEL 4
REMARK VINA RESULT:     -10.1      4.248      5.145
REMARK  Name = Entrectinib
REMARK  7 active torsions:
REMARK  status: ('A' for Active; 'I' for Inactive)
REMARK    1  A    between atoms: C_1  and  N_2
REMARK    2  A    between atoms: N_5  and  C_8
REMARK    3  A    between atoms: C_11  and  C_12
REMARK    4  A    between atoms: C_21  and  C_22
REMARK    5  A    between atoms: C_22  and  C_23
REMARK    6  A    between atoms: C_33  and  N_34
REMARK    7  A    between atoms: N_34  and  C_35
REMARK                            x       y       z     vdW  Elec       q    Type
REMARK                         _______ _______ _______ _____ _____    ______ ____
ROOT
ATOM      1  C   UNL     1      -5.878   2.912 134.719  0.00  0.00    +0.000 C 
ATOM      2  O   UNL     1      -4.836   2.392 135.132  0.00  0.00    +0.000 OA
ATOM      3  N   UNL     1      -6.742   2.353 133.422  0.00  0.00    +0.000 N 
ATOM      4  C   UNL     1      -6.768   0.862 132.716  0.00  0.00    +0.000 A 
ATOM      5  N   UNL     1      -6.727  -0.025 133.699  0.00  0.00    +0.000 NA
ATOM      6  N   UNL     1      -6.150  -0.955 133.007  0.00  0.00    +0.000 N 
ATOM      7  C   UNL     1      -6.871  -1.307 131.913  0.00  0.00    +0.000 A 
ATOM      8  C   UNL     1      -6.936  -2.727 131.581  0.00  0.00    +0.000 A 
ATOM      9  C   UNL     1      -7.412  -3.328 130.451  0.00  0.00    +0.000 A 
ATOM     10  C   UNL     1      -7.951  -2.460 129.566  0.00  0.00    +0.000 A 
ATOM     11  C   UNL     1      -7.812  -0.941 129.965  0.00  0.00    +0.000 A 
ATOM     12  C   UNL     1      -7.322  -0.034 131.261  0.00  0.00    +0.000 A 
ATOM     13  H   UNL     1      -7.648   2.316 133.881  0.00  0.00    +0.000 HD
ATOM     14  H   UNL     1      -5.160  -1.098 133.113  0.00  0.00    +0.000 HD
ENDROOT
BRANCH   1  18
ATOM     15  C   UNL     1      -7.322   6.847 137.087  0.00  0.00    +0.000 A 
ATOM     16  C   UNL     1      -6.374   6.007 137.644  0.00  0.00    +0.000 A 
ATOM     17  C   UNL     1      -5.887   4.787 136.937  0.00  0.00    +0.000 A 
ATOM     18  C   UNL     1      -6.350   4.326 135.628  0.00  0.00    +0.000 A 
ATOM     19  C   UNL     1      -7.308   5.193 135.116  0.00  0.00    +0.000 A 
ATOM     20  C   UNL     1      -7.777   6.364 135.868  0.00  0.00    +0.000 A 
BRANCH  15  25
ATOM     21  C   UNL     1      -9.752  10.692 140.413  0.00  0.00    +0.000 C 
ATOM     22  N   UNL     1      -9.018  10.139 139.276  0.00  0.00    +0.000 NA
ATOM     23  C   UNL     1      -9.838   9.164 138.522  0.00  0.00    +0.000 C 
ATOM     24  C   UNL     1      -9.103   8.611 137.257  0.00  0.00    +0.000 C 
ATOM     25  N   UNL     1      -7.763   8.070 137.572  0.00  0.00    +0.000 N 
ATOM     26  C   UNL     1      -6.968   8.905 138.512  0.00  0.00    +0.000 C 
ATOM     27  C   UNL     1      -7.801   9.426 139.718  0.00  0.00    +0.000 C 
ENDBRANCH  15  25
BRANCH  19  28
ATOM     28  N   UNL     1      -7.850   4.860 133.873  0.00  0.00    +0.000 N 
ATOM     29  H   UNL     1      -7.369   4.048 133.488  0.00  0.00    +0.000 HD
BRANCH  28  30
ATOM     30  C   UNL     1      -8.108   5.873 132.881  0.00  0.00    +0.000 C 
ATOM     31  C   UNL     1      -9.407   5.635 132.099  0.00  0.00    +0.000 C 
ATOM     32  C   UNL     1      -9.491   6.633 130.966  0.00  0.00    +0.000 C 
ATOM     33  O   UNL     1      -8.289   6.639 130.193  0.00  0.00    +0.000 OA
ATOM     34  C   UNL     1      -7.145   7.059 130.939  0.00  0.00    +0.000 C 
ATOM     35  C   UNL     1      -6.847   6.089 132.048  0.00  0.00    +0.000 C 
ENDBRANCH  28  30
ENDBRANCH  19  28
ENDBRANCH   1  18
BRANCH  10  36
ATOM     36  C   UNL     1      -8.662  -3.283 128.413  0.00  0.00    +0.000 C 
BRANCH  36  37
ATOM     37  C   UNL     1      -8.278  -3.056 126.987  0.00  0.00    +0.000 A 
ATOM     38  C   UNL     1      -7.052  -2.494 126.584  0.00  0.00    +0.000 A 
ATOM     39  C   UNL     1      -6.811  -2.290 125.225  0.00  0.00    +0.000 A 
ATOM     40  F   UNL     1      -5.683  -1.683 124.831  0.00  0.00    +0.000 F 
ATOM     41  C   UNL     1      -7.733  -2.696 124.269  0.00  0.00    +0.000 A 
ATOM     42  C   UNL     1      -8.956  -3.197 124.687  0.00  0.00    +0.000 A 
ATOM     43  F   UNL     1      -9.879  -3.557 123.789  0.00  0.00    +0.000 F 
ATOM     44  C   UNL     1      -9.249  -3.337 126.029  0.00  0.00    +0.000 A 
ENDBRANCH  36  37
ENDBRANCH  10  36
TORSDOF 6
ENDMDL
MODEL 5
REMARK VINA RESULT:     -10.1      4.469      5.732
REMARK  Name = Entrectinib
REMARK  7 active torsions:
REMARK  status: ('A' for Active; 'I' for Inactive)
REMARK    1  A    between atoms: C_1  and  N_2
REMARK    2  A    between atoms: N_5  and  C_8
REMARK    3  A    between atoms: C_11  and  C_12
REMARK    4  A    between atoms: C_21  and  C_22
REMARK    5  A    between atoms: C_22  and  C_23
REMARK    6  A    between atoms: C_33  and  N_34
REMARK    7  A    between atoms: N_34  and  C_35
REMARK                            x       y       z     vdW  Elec       q    Type
REMARK                         _______ _______ _______ _____ _____    ______ ____
ROOT
ATOM      1  C   UNL     1      -3.443   1.904 132.691  0.00  0.00    +0.000 C 
ATOM      2  O   UNL     1      -3.391   1.158 133.675  0.00  0.00    +0.000 OA
ATOM      3  N   UNL     1      -4.043   1.452 131.216  0.00  0.00    +0.000 N 
ATOM      4  C   UNL     1      -5.077   0.231 130.810  0.00  0.00    +0.000 A 
ATOM      5  N   UNL     1      -6.006   0.189 131.753  0.00  0.00    +0.000 NA
ATOM      6  N   UNL     1      -6.264  -1.073 131.622  0.00  0.00    +0.000 N 
ATOM      7  C   UNL     1      -6.671  -1.389 130.367  0.00  0.00    +0.000 A 
ATOM      8  C   UNL     1      -7.760  -2.351 130.238  0.00  0.00    +0.000 A 
ATOM      9  C   UNL     1      -8.223  -2.986 129.120  0.00  0.00    +0.000 A 
ATOM     10  C   UNL     1      -7.606  -2.593 127.984  0.00  0.00    +0.000 A 
ATOM     11  C   UNL     1      -6.413  -1.585 128.197  0.00  0.00    +0.000 A 
ATOM     12  C   UNL     1      -5.738  -0.695 129.420  0.00  0.00    +0.000 A 
ATOM     13  H   UNL     1      -4.682   2.233 131.095  0.00  0.00    +0.000 HD
ATOM     14  H   UNL     1      -5.863  -1.722 132.277  0.00  0.00    +0.000 HD
ENDROOT
BRANCH   1  18
ATOM     15  C   UNL     1      -1.789   6.314 133.683  0.00  0.00    +0.000 A 
ATOM     16  C   UNL     1      -1.140   5.519 132.754  0.00  0.00    +0.000 A 
ATOM     17  C   UNL     1      -1.629   4.154 132.405  0.00  0.00    +0.000 A 
ATOM     18  C   UNL     1      -2.794   3.495 132.997  0.00  0.00    +0.000 A 
ATOM     19  C   UNL     1      -3.403   4.326 133.930  0.00  0.00    +0.000 A 
ATOM     20  C   UNL     1      -2.861   5.651 134.261  0.00  0.00    +0.000 A 
BRANCH  15  25
ATOM     21  C   UNL     1      -0.400  11.747 133.131  0.00  0.00    +0.000 C 
ATOM     22  N   UNL     1      -0.801  10.500 133.779  0.00  0.00    +0.000 NA
ATOM     23  C   UNL     1       0.210   9.437 133.586  0.00  0.00    +0.000 C 
ATOM     24  C   UNL     1      -0.159   8.113 134.332  0.00  0.00    +0.000 C 
ATOM     25  N   UNL     1      -1.520   7.638 134.002  0.00  0.00    +0.000 N 
ATOM     26  C   UNL     1      -2.553   8.708 133.962  0.00  0.00    +0.000 C 
ATOM     27  C   UNL     1      -2.072   9.990 133.222  0.00  0.00    +0.000 C 
ENDBRANCH  15  25
BRANCH  19  28
ATOM     28  N   UNL     1      -4.523   3.812 134.586  0.00  0.00    +0.000 N 
ATOM     29  H   UNL     1      -4.393   2.819 134.775  0.00  0.00    +0.000 HD
BRANCH  28  30
ATOM     30  C   UNL     1      -5.856   4.117 134.129  0.00  0.00    +0.000 C 
ATOM     31  C   UNL     1      -6.470   5.336 134.830  0.00  0.00    +0.000 C 
ATOM     32  C   UNL     1      -7.921   5.460 134.426  0.00  0.00    +0.000 C 
ATOM     33  O   UNL     1      -8.614   4.222 134.602  0.00  0.00    +0.000 OA
ATOM     34  C   UNL     1      -8.112   3.175 133.771  0.00  0.00    +0.000 C 
ATOM     35  C   UNL     1      -6.692   2.840 134.135  0.00  0.00    +0.000 C 
ENDBRANCH  28  30
ENDBRANCH  19  28
ENDBRANCH   1  18
BRANCH  10  36
ATOM     36  C   UNL     1      -8.369  -3.222 126.745  0.00  0.00    +0.000 C 
BRANCH  36  37
ATOM     37  C   UNL     1      -7.997  -2.820 125.356  0.00  0.00    +0.000 A 
ATOM     38  C   UNL     1      -6.707  -2.973 124.812  0.00  0.00    +0.000 A 
ATOM     39  C   UNL     1      -6.458  -2.527 123.514  0.00  0.00    +0.000 A 
ATOM     40  F   UNL     1      -5.217  -2.593 123.012  0.00  0.00    +0.000 F 
ATOM     41  C   UNL     1      -7.478  -2.000 122.734  0.00  0.00    +0.000 A 
ATOM     42  C   UNL     1      -8.727  -1.807 123.303  0.00  0.00    +0.000 A 
ATOM     43  F   UNL     1      -9.718  -1.263 122.588  0.00  0.00    +0.000 F 
ATOM     44  C   UNL     1      -8.979  -2.170 124.612  0.00  0.00    +0.000 A 
ENDBRANCH  36  37
ENDBRANCH  10  36
TORSDOF 6
ENDMDL
MODEL 6
REMARK VINA RESULT:     -10.1      5.246      7.003
REMARK  Name = Entrectinib
REMARK  7 active torsions:
REMARK  status: ('A' for Active; 'I' for Inactive)
REMARK    1  A    between atoms: C_1  and  N_2
REMARK    2  A    between atoms: N_5  and  C_8
REMARK    3  A    between atoms: C_11  and  C_12
REMARK    4  A    between atoms: C_21  and  C_22
REMARK    5  A    between atoms: C_22  and  C_23
REMARK    6  A    between atoms: C_33  and  N_34
REMARK    7  A    between atoms: N_34  and  C_35
REMARK                            x       y       z     vdW  Elec       q    Type
REMARK                         _______ _______ _______ _____ _____    ______ ____
ROOT
ATOM      1  C   UNL     1      -5.747  -2.882 130.063  0.00  0.00    +0.000 C 
ATOM      2  O   UNL     1      -4.849  -3.572 129.568  0.00  0.00    +0.000 OA
ATOM      3  N   UNL     1      -6.417  -1.562 129.321  0.00  0.00    +0.000 N 
ATOM      4  C   UNL     1      -6.459  -1.137 127.727  0.00  0.00    +0.000 A 
ATOM      5  N   UNL     1      -6.677  -2.249 127.042  0.00  0.00    +0.000 NA
ATOM      6  N   UNL     1      -6.077  -1.855 125.964  0.00  0.00    +0.000 N 
ATOM      7  C   UNL     1      -6.623  -0.722 125.455  0.00  0.00    +0.000 A 
ATOM      8  C   UNL     1      -6.762  -0.638 124.005  0.00  0.00    +0.000 A 
ATOM      9  C   UNL     1      -7.086   0.440 123.230  0.00  0.00    +0.000 A 
ATOM     10  C   UNL     1      -7.375   1.549 123.945  0.00  0.00    +0.000 A 
ATOM     11  C   UNL     1      -7.165   1.404 125.501  0.00  0.00    +0.000 A 
ATOM     12  C   UNL     1      -6.828   0.218 126.607  0.00  0.00    +0.000 A 
ATOM     13  H   UNL     1      -7.390  -1.838 129.427  0.00  0.00    +0.000 HD
ATOM     14  H   UNL     1      -5.140  -2.172 125.785  0.00  0.00    +0.000 HD
ENDROOT
BRANCH   1  18
ATOM     15  C   UNL     1      -7.249  -4.236 134.432  0.00  0.00    +0.000 A 
ATOM     16  C   UNL     1      -6.226  -4.923 133.802  0.00  0.00    +0.000 A 
ATOM     17  C   UNL     1      -5.719  -4.526 132.457  0.00  0.00    +0.000 A 
ATOM     18  C   UNL     1      -6.237  -3.421 131.649  0.00  0.00    +0.000 A 
ATOM     19  C   UNL     1      -7.269  -2.771 132.316  0.00  0.00    +0.000 A 
ATOM     20  C   UNL     1      -7.752  -3.223 133.628  0.00  0.00    +0.000 A 
BRANCH  15  25
ATOM     21  C   UNL     1     -10.769  -4.482 138.825  0.00  0.00    +0.000 C 
ATOM     22  N   UNL     1      -9.519  -4.564 138.070  0.00  0.00    +0.000 NA
ATOM     23  C   UNL     1      -9.172  -3.266 137.451  0.00  0.00    +0.000 C 
ATOM     24  C   UNL     1      -7.801  -3.306 136.699  0.00  0.00    +0.000 C 
ATOM     25  N   UNL     1      -7.723  -4.415 135.724  0.00  0.00    +0.000 N 
ATOM     26  C   UNL     1      -8.268  -5.708 136.216  0.00  0.00    +0.000 C 
ATOM     27  C   UNL     1      -9.618  -5.550 136.974  0.00  0.00    +0.000 C 
ENDBRANCH  15  25
BRANCH  19  28
ATOM     28  N   UNL     1      -7.867  -1.701 131.648  0.00  0.00    +0.000 N 
ATOM     29  H   UNL     1      -7.433  -1.573 130.735  0.00  0.00    +0.000 HD
BRANCH  28  30
ATOM     30  C   UNL     1      -8.118  -0.452 132.322  0.00  0.00    +0.000 C 
ATOM     31  C   UNL     1      -9.200   0.395 131.639  0.00  0.00    +0.000 C 
ATOM     32  C   UNL     1      -9.256   1.753 132.302  0.00  0.00    +0.000 C 
ATOM     33  O   UNL     1      -7.957   2.343 132.380  0.00  0.00    +0.000 OA
ATOM     34  C   UNL     1      -7.050   1.598 133.195  0.00  0.00    +0.000 C 
ATOM     35  C   UNL     1      -6.788   0.243 132.597  0.00  0.00    +0.000 C 
ENDBRANCH  28  30
ENDBRANCH  19  28
ENDBRANCH   1  18
BRANCH  10  36
ATOM     36  C   UNL     1      -7.945   2.656 122.963  0.00  0.00    +0.000 C 
BRANCH  36  37
ATOM     37  C   UNL     1      -7.024   3.379 122.036  0.00  0.00    +0.000 A 
ATOM     38  C   UNL     1      -5.747   3.846 122.403  0.00  0.00    +0.000 A 
ATOM     39  C   UNL     1      -4.983   4.544 121.468  0.00  0.00    +0.000 A 
ATOM     40  F   UNL     1      -3.801   5.063 121.826  0.00  0.00    +0.000 F 
ATOM     41  C   UNL     1      -5.437   4.723 120.168  0.00  0.00    +0.000 A 
ATOM     42  C   UNL     1      -6.717   4.305 119.841  0.00  0.00    +0.000 A 
ATOM     43  F   UNL     1      -7.196   4.501 118.608  0.00  0.00    +0.000 F 
ATOM     44  C   UNL     1      -7.524   3.678 120.772  0.00  0.00    +0.000 A 
ENDBRANCH  36  37
ENDBRANCH  10  36
TORSDOF 6
ENDMDL
MODEL 7
REMARK VINA RESULT:      -9.9      5.067      7.101
REMARK  Name = Entrectinib
REMARK  7 active torsions:
REMARK  status: ('A' for Active; 'I' for Inactive)
REMARK    1  A    between atoms: C_1  and  N_2
REMARK    2  A    between atoms: N_5  and  C_8
REMARK    3  A    between atoms: C_11  and  C_12
REMARK    4  A    between atoms: C_21  and  C_22
REMARK    5  A    between atoms: C_22  and  C_23
REMARK    6  A    between atoms: C_33  and  N_34
REMARK    7  A    between atoms: N_34  and  C_35
REMARK                            x       y       z     vdW  Elec       q    Type
REMARK                         _______ _______ _______ _____ _____    ______ ____
ROOT
ATOM      1  C   UNL     1      -6.757  -2.611 128.377  0.00  0.00    +0.000 C 
ATOM      2  O   UNL     1      -7.680  -3.426 128.267  0.00  0.00    +0.000 OA
ATOM      3  N   UNL     1      -6.432  -1.424 127.270  0.00  0.00    +0.000 N 
ATOM      4  C   UNL     1      -7.400  -0.735 126.124  0.00  0.00    +0.000 A 
ATOM      5  N   UNL     1      -8.592  -0.578 126.678  0.00  0.00    +0.000 NA
ATOM      6  N   UNL     1      -9.259  -0.654 125.571  0.00  0.00    +0.000 N 
ATOM      7  C   UNL     1      -8.884   0.294 124.676  0.00  0.00    +0.000 A 
ATOM      8  C   UNL     1      -9.939   0.938 123.900  0.00  0.00    +0.000 A 
ATOM      9  C   UNL     1      -9.833   1.763 122.817  0.00  0.00    +0.000 A 
ATOM     10  C   UNL     1      -8.556   2.054 122.485  0.00  0.00    +0.000 A 
ATOM     11  C   UNL     1      -7.465   1.295 123.334  0.00  0.00    +0.000 A 
ATOM     12  C   UNL     1      -7.384   0.318 124.669  0.00  0.00    +0.000 A 
ATOM     13  H   UNL     1      -6.400  -0.647 127.924  0.00  0.00    +0.000 HD
ATOM     14  H   UNL     1      -9.711  -1.521 125.333  0.00  0.00    +0.000 HD
ENDROOT
BRANCH   1  18
ATOM     15  C   UNL     1      -4.268  -3.173 132.459  0.00  0.00    +0.000 A 
ATOM     16  C   UNL     1      -3.779  -3.683 131.269  0.00  0.00    +0.000 A 
ATOM     17  C   UNL     1      -4.510  -3.517 129.979  0.00  0.00    +0.000 A 
ATOM     18  C   UNL     1      -5.800  -2.844 129.818  0.00  0.00    +0.000 A 
ATOM     19  C   UNL     1      -6.254  -2.361 131.039  0.00  0.00    +0.000 A 
ATOM     20  C   UNL     1      -5.510  -2.580 132.287  0.00  0.00    +0.000 A 
BRANCH  15  25
ATOM     21  C   UNL     1      -0.442  -4.051 136.502  0.00  0.00    +0.000 C 
ATOM     22  N   UNL     1      -1.663  -3.567 135.859  0.00  0.00    +0.000 NA
ATOM     23  C   UNL     1      -2.482  -4.683 135.337  0.00  0.00    +0.000 C 
ATOM     24  C   UNL     1      -3.831  -4.198 134.711  0.00  0.00    +0.000 C 
ATOM     25  N   UNL     1      -3.634  -3.143 133.693  0.00  0.00    +0.000 N 
ATOM     26  C   UNL     1      -2.644  -2.099 134.072  0.00  0.00    +0.000 C 
ATOM     27  C   UNL     1      -1.353  -2.688 134.712  0.00  0.00    +0.000 C 
ENDBRANCH  15  25
BRANCH  19  28
ATOM     28  N   UNL     1      -7.489  -1.708 131.032  0.00  0.00    +0.000 N 
ATOM     29  H   UNL     1      -7.987  -1.912 130.167  0.00  0.00    +0.000 HD
BRANCH  28  30
ATOM     30  C   UNL     1      -7.598  -0.324 131.421  0.00  0.00    +0.000 C 
ATOM     31  C   UNL     1      -8.999   0.053 131.922  0.00  0.00    +0.000 C 
ATOM     32  C   UNL     1      -9.066   1.550 132.123  0.00  0.00    +0.000 C 
ATOM     33  O   UNL     1      -8.609   2.247 130.962  0.00  0.00    +0.000 OA
ATOM     34  C   UNL     1      -7.234   2.000 130.664  0.00  0.00    +0.000 C 
ATOM     35  C   UNL     1      -7.017   0.553 130.316  0.00  0.00    +0.000 C 
ENDBRANCH  28  30
ENDBRANCH  19  28
ENDBRANCH   1  18
BRANCH  10  36
ATOM     36  C   UNL     1      -8.561   3.180 121.369  0.00  0.00    +0.000 C 
BRANCH  36  37
ATOM     37  C   UNL     1      -7.276   3.800 120.927  0.00  0.00    +0.000 A 
ATOM     38  C   UNL     1      -6.136   3.912 121.745  0.00  0.00    +0.000 A 
ATOM     39  C   UNL     1      -4.998   4.544 121.243  0.00  0.00    +0.000 A 
ATOM     40  F   UNL     1      -3.933   4.729 122.035  0.00  0.00    +0.000 F 
ATOM     41  C   UNL     1      -4.956   5.002 119.933  0.00  0.00    +0.000 A 
ATOM     42  C   UNL     1      -6.106   4.932 119.161  0.00  0.00    +0.000 A 
ATOM     43  F   UNL     1      -6.106   5.402 117.909  0.00  0.00    +0.000 F 
ATOM     44  C   UNL     1      -7.269   4.379 119.661  0.00  0.00    +0.000 A 
ENDBRANCH  36  37
ENDBRANCH  10  36
TORSDOF 6
ENDMDL
MODEL 8
REMARK VINA RESULT:      -9.8      5.688      7.779
REMARK  Name = Entrectinib
REMARK  7 active torsions:
REMARK  status: ('A' for Active; 'I' for Inactive)
REMARK    1  A    between atoms: C_1  and  N_2
REMARK    2  A    between atoms: N_5  and  C_8
REMARK    3  A    between atoms: C_11  and  C_12
REMARK    4  A    between atoms: C_21  and  C_22
REMARK    5  A    between atoms: C_22  and  C_23
REMARK    6  A    between atoms: C_33  and  N_34
REMARK    7  A    between atoms: N_34  and  C_35
REMARK                            x       y       z     vdW  Elec       q    Type
REMARK                         _______ _______ _______ _____ _____    ______ ____
ROOT
ATOM      1  C   UNL     1      -4.528  -3.023 129.385  0.00  0.00    +0.000 C 
ATOM      2  O   UNL     1      -3.754  -3.727 128.726  0.00  0.00    +0.000 OA
ATOM      3  N   UNL     1      -5.286  -1.675 128.794  0.00  0.00    +0.000 N 
ATOM      4  C   UNL     1      -5.607  -1.223 127.239  0.00  0.00    +0.000 A 
ATOM      5  N   UNL     1      -5.976  -2.318 126.593  0.00  0.00    +0.000 NA
ATOM      6  N   UNL     1      -5.573  -1.921 125.428  0.00  0.00    +0.000 N 
ATOM      7  C   UNL     1      -6.172  -0.767 125.041  0.00  0.00    +0.000 A 
ATOM      8  C   UNL     1      -6.571  -0.655 123.642  0.00  0.00    +0.000 A 
ATOM      9  C   UNL     1      -7.001   0.442 122.952  0.00  0.00    +0.000 A 
ATOM     10  C   UNL     1      -7.125   1.547 123.721  0.00  0.00    +0.000 A 
ATOM     11  C   UNL     1      -6.638   1.370 125.210  0.00  0.00    +0.000 A 
ATOM     12  C   UNL     1      -6.138   0.159 126.221  0.00  0.00    +0.000 A 
ATOM     13  H   UNL     1      -6.230  -1.929 129.073  0.00  0.00    +0.000 HD
ATOM     14  H   UNL     1      -4.693  -2.258 125.076  0.00  0.00    +0.000 HD
ENDROOT
BRANCH   1  18
ATOM     15  C   UNL     1      -5.004  -4.381 133.979  0.00  0.00    +0.000 A 
ATOM     16  C   UNL     1      -5.601  -5.116 132.969  0.00  0.00    +0.000 A 
ATOM     17  C   UNL     1      -5.464  -4.740 131.532  0.00  0.00    +0.000 A 
ATOM     18  C   UNL     1      -4.734  -3.576 131.028  0.00  0.00    +0.000 A 
ATOM     19  C   UNL     1      -4.165  -2.865 132.077  0.00  0.00    +0.000 A 
ATOM     20  C   UNL     1      -4.357  -3.261 133.478  0.00  0.00    +0.000 A 
BRANCH  15  25
ATOM     21  C   UNL     1      -6.154  -4.393 139.495  0.00  0.00    +0.000 C 
ATOM     22  N   UNL     1      -5.498  -4.743 138.236  0.00  0.00    +0.000 NA
ATOM     23  C   UNL     1      -4.887  -3.559 137.593  0.00  0.00    +0.000 C 
ATOM     24  C   UNL     1      -4.114  -3.918 136.282  0.00  0.00    +0.000 C 
ATOM     25  N   UNL     1      -4.942  -4.690 135.330  0.00  0.00    +0.000 N 
ATOM     26  C   UNL     1      -5.759  -5.764 135.956  0.00  0.00    +0.000 C 
ATOM     27  C   UNL     1      -6.460  -5.310 137.269  0.00  0.00    +0.000 C 
ENDBRANCH  15  25
BRANCH  19  28
ATOM     28  N   UNL     1      -3.450  -1.715 131.735  0.00  0.00    +0.000 N 
ATOM     29  H   UNL     1      -2.452  -1.870 131.874  0.00  0.00    +0.000 HD
BRANCH  28  30
ATOM     30  C   UNL     1      -3.876  -0.415 132.187  0.00  0.00    +0.000 C 
ATOM     31  C   UNL     1      -4.113   0.575 131.039  0.00  0.00    +0.000 C 
ATOM     32  C   UNL     1      -4.369   1.949 131.615  0.00  0.00    +0.000 C 
ATOM     33  O   UNL     1      -3.355   2.312 132.554  0.00  0.00    +0.000 OA
ATOM     34  C   UNL     1      -3.319   1.458 133.699  0.00  0.00    +0.000 C 
ATOM     35  C   UNL     1      -2.950   0.055 133.305  0.00  0.00    +0.000 C 
ENDBRANCH  28  30
ENDBRANCH  19  28
ENDBRANCH   1  18
BRANCH  10  36
ATOM     36  C   UNL     1      -7.834   2.683 122.873  0.00  0.00    +0.000 C 
BRANCH  36  37
ATOM     37  C   UNL     1      -7.054   3.460 121.864  0.00  0.00    +0.000 A 
ATOM     38  C   UNL     1      -7.506   3.727 120.557  0.00  0.00    +0.000 A 
ATOM     39  C   UNL     1      -6.679   4.431 119.681  0.00  0.00    +0.000 A 
ATOM     40  F   UNL     1      -7.061   4.623 118.411  0.00  0.00    +0.000 F 
ATOM     41  C   UNL     1      -5.452   4.926 120.103  0.00  0.00    +0.000 A 
ATOM     42  C   UNL     1      -5.001   4.607 121.374  0.00  0.00    +0.000 A 
ATOM     43  F   UNL     1      -3.806   5.036 121.793  0.00  0.00    +0.000 F 
ATOM     44  C   UNL     1      -5.769   3.846 122.235  0.00  0.00    +0.000 A 
ENDBRANCH  36  37
ENDBRANCH  10  36
TORSDOF 6
ENDMDL
MODEL 9
REMARK VINA RESULT:      -9.8      4.556      5.816
REMARK  Name = Entrectinib
REMARK  7 active torsions:
REMARK  status: ('A' for Active; 'I' for Inactive)
REMARK    1  A    between atoms: C_1  and  N_2
REMARK    2  A    between atoms: N_5  and  C_8
REMARK    3  A    between atoms: C_11  and  C_12
REMARK    4  A    between atoms: C_21  and  C_22
REMARK    5  A    between atoms: C_22  and  C_23
REMARK    6  A    between atoms: C_33  and  N_34
REMARK    7  A    between atoms: N_34  and  C_35
REMARK                            x       y       z     vdW  Elec       q    Type
REMARK                         _______ _______ _______ _____ _____    ______ ____
ROOT
ATOM      1  C   UNL     1      -4.119   6.134 128.919  0.00  0.00    +0.000 C 
ATOM      2  O   UNL     1      -4.163   7.167 128.240  0.00  0.00    +0.000 OA
ATOM      3  N   UNL     1      -4.883   4.723 128.511  0.00  0.00    +0.000 N 
ATOM      4  C   UNL     1      -5.419   4.181 127.047  0.00  0.00    +0.000 A 
ATOM      5  N   UNL     1      -4.499   4.517 126.157  0.00  0.00    +0.000 NA
ATOM      6  N   UNL     1      -5.314   4.598 125.154  0.00  0.00    +0.000 N 
ATOM      7  C   UNL     1      -5.969   3.432 124.927  0.00  0.00    +0.000 A 
ATOM      8  C   UNL     1      -6.156   3.028 123.537  0.00  0.00    +0.000 A 
ATOM      9  C   UNL     1      -6.934   2.028 123.026  0.00  0.00    +0.000 A 
ATOM     10  C   UNL     1      -7.551   1.289 123.974  0.00  0.00    +0.000 A 
ATOM     11  C   UNL     1      -7.342   1.802 125.450  0.00  0.00    +0.000 A 
ATOM     12  C   UNL     1      -6.439   2.930 126.260  0.00  0.00    +0.000 A 
ATOM     13  H   UNL     1      -4.078   4.111 128.611  0.00  0.00    +0.000 HD
ATOM     14  H   UNL     1      -5.635   5.505 124.859  0.00  0.00    +0.000 HD
ENDROOT
BRANCH   1  18
ATOM     15  C   UNL     1      -1.702   6.671 133.047  0.00  0.00    +0.000 A 
ATOM     16  C   UNL     1      -1.068   6.154 131.931  0.00  0.00    +0.000 A 
ATOM     17  C   UNL     1      -1.775   5.988 130.628  0.00  0.00    +0.000 A 
ATOM     18  C   UNL     1      -3.181   6.310 130.381  0.00  0.00    +0.000 A 
ATOM     19  C   UNL     1      -3.776   6.812 131.532  0.00  0.00    +0.000 A 
ATOM     20  C   UNL     1      -3.043   6.926 132.799  0.00  0.00    +0.000 A 
BRANCH  15  25
ATOM     21  C   UNL     1      -0.074   9.676 137.528  0.00  0.00    +0.000 C 
ATOM     22  N   UNL     1      -0.252   8.519 136.651  0.00  0.00    +0.000 NA
ATOM     23  C   UNL     1       0.366   8.743 135.325  0.00  0.00    +0.000 C 
ATOM     24  C   UNL     1       0.255   7.492 134.391  0.00  0.00    +0.000 C 
ATOM     25  N   UNL     1      -1.133   6.998 134.270  0.00  0.00    +0.000 N 
ATOM     26  C   UNL     1      -1.888   6.961 135.552  0.00  0.00    +0.000 C 
ATOM     27  C   UNL     1      -1.684   8.240 136.416  0.00  0.00    +0.000 C 
ENDBRANCH  15  25
BRANCH  19  28
ATOM     28  N   UNL     1      -5.129   7.146 131.440  0.00  0.00    +0.000 N 
ATOM     29  H   UNL     1      -5.262   8.131 131.663  0.00  0.00    +0.000 HD
BRANCH  28  30
ATOM     30  C   UNL     1      -6.142   6.305 132.024  0.00  0.00    +0.000 C 
ATOM     31  C   UNL     1      -5.727   4.830 132.110  0.00  0.00    +0.000 C 
ATOM     32  C   UNL     1      -6.914   4.006 132.555  0.00  0.00    +0.000 C 
ATOM     33  O   UNL     1      -8.065   4.286 131.755  0.00  0.00    +0.000 OA
ATOM     34  C   UNL     1      -8.517   5.636 131.874  0.00  0.00    +0.000 C 
ATOM     35  C   UNL     1      -7.481   6.592 131.350  0.00  0.00    +0.000 C 
ENDBRANCH  28  30
ENDBRANCH  19  28
ENDBRANCH   1  18
BRANCH  10  36
ATOM     36  C   UNL     1      -8.236   0.038 123.281  0.00  0.00    +0.000 C 
BRANCH  36  37
ATOM     37  C   UNL     1      -8.135  -1.313 123.910  0.00  0.00    +0.000 A 
ATOM     38  C   UNL     1      -7.062  -2.199 123.700  0.00  0.00    +0.000 A 
ATOM     39  C   UNL     1      -7.086  -3.454 124.308  0.00  0.00    +0.000 A 
ATOM     40  F   UNL     1      -6.111  -4.338 124.054  0.00  0.00    +0.000 F 
ATOM     41  C   UNL     1      -8.118  -3.810 125.165  0.00  0.00    +0.000 A 
ATOM     42  C   UNL     1      -9.193  -2.947 125.317  0.00  0.00    +0.000 A 
ATOM     43  F   UNL     1     -10.220  -3.282 126.104  0.00  0.00    +0.000 F 
ATOM     44  C   UNL     1      -9.228  -1.730 124.665  0.00  0.00    +0.000 A 
ENDBRANCH  36  37
ENDBRANCH  10  36
TORSDOF 6
ENDMDL
