MODEL 1
REMARK VINA RESULT:      -8.1      0.000      0.000
REMARK  Name = Enzalutamide
REMARK  8 active torsions:
REMARK  status: ('A' for Active; 'I' for Inactive)
REMARK    1  A    between atoms: C_1  and  N_2
REMARK    2  A    between atoms: C_3  and  C_5
REMARK    3  A    between atoms: C_9  and  N_12
REMARK    4  A    between atoms: N_15  and  C_21
REMARK    5  A    between atoms: C_18  and  C_19
REMARK    6  A    between atoms: C_18  and  C_20
REMARK    7  A    between atoms: C_24  and  C_25
REMARK    8  A    between atoms: C_27  and  C_29
REMARK                            x       y       z     vdW  Elec       q    Type
REMARK                         _______ _______ _______ _____ _____    ______ ____
ROOT
ATOM      1  N   UNL     1      -8.263   3.785 131.361  0.00  0.00    +0.000 N 
ATOM      2  C   UNL     1      -7.532   2.806 130.639  0.00  0.00    +0.000 C 
ATOM      3  S   UNL     1      -7.307   2.777 128.975  0.00  0.00    +0.000 S 
ATOM      4  N   UNL     1      -7.039   1.884 131.556  0.00  0.00    +0.000 N 
ATOM      5  C   UNL     1      -7.399   2.228 132.845  0.00  0.00    +0.000 C 
ATOM      6  O   UNL     1      -7.084   1.646 133.876  0.00  0.00    +0.000 OA
ATOM      7  C   UNL     1      -8.261   3.507 132.803  0.00  0.00    +0.000 C 
ATOM      8  C   UNL     1      -9.648   3.150 133.349  0.00  0.00    +0.000 C 
ATOM      9  C   UNL     1      -7.615   4.606 133.645  0.00  0.00    +0.000 C 
ENDROOT
BRANCH   1  14
ATOM     10  C   UNL     1     -10.471   7.063 129.775  0.00  0.00    +0.000 A 
ATOM     11  C   UNL     1     -11.020   5.789 129.827  0.00  0.00    +0.000 A 
ATOM     12  F   UNL     1     -12.270   5.560 129.401  0.00  0.00    +0.000 F 
ATOM     13  C   UNL     1     -10.286   4.706 130.323  0.00  0.00    +0.000 A 
ATOM     14  C   UNL     1      -8.977   4.873 130.785  0.00  0.00    +0.000 A 
ATOM     15  C   UNL     1      -8.413   6.153 130.720  0.00  0.00    +0.000 A 
ATOM     16  C   UNL     1      -9.148   7.238 130.204  0.00  0.00    +0.000 A 
BRANCH  10  19
ATOM     17  C   UNL     1     -13.108   9.792 129.483  0.00  0.00    +0.000 C 
ATOM     18  N   UNL     1     -12.315   8.676 129.951  0.00  0.00    +0.000 N 
ATOM     19  C   UNL     1     -11.234   8.212 129.223  0.00  0.00    +0.000 C 
ATOM     20  O   UNL     1     -10.867   8.717 128.167  0.00  0.00    +0.000 OA
ATOM     21  H   UNL     1     -12.572   8.234 130.825  0.00  0.00    +0.000 HD
ENDBRANCH  10  19
ENDBRANCH   1  14
BRANCH   4  22
ATOM     22  C   UNL     1      -6.239   0.748 131.258  0.00  0.00    +0.000 A 
ATOM     23  C   UNL     1      -4.844   0.847 131.185  0.00  0.00    +0.000 A 
ATOM     24  C   UNL     1      -4.058  -0.275 130.890  0.00  0.00    +0.000 A 
ATOM     25  C   UNL     1      -4.649  -1.523 130.663  0.00  0.00    +0.000 A 
ATOM     26  C   UNL     1      -6.048  -1.637 130.690  0.00  0.00    +0.000 A 
ATOM     27  C   UNL     1      -6.831  -0.496 131.004  0.00  0.00    +0.000 A 
BRANCH  26  28
ATOM     28  C   UNL     1      -6.755  -2.939 130.393  0.00  0.00    +0.000 C 
ATOM     29  F   UNL     1      -6.542  -3.863 131.367  0.00  0.00    +0.000 F 
ATOM     30  F   UNL     1      -8.104  -2.776 130.315  0.00  0.00    +0.000 F 
ATOM     31  F   UNL     1      -6.398  -3.541 129.231  0.00  0.00    +0.000 F 
ENDBRANCH  26  28
BRANCH  25  32
ATOM     32  C   UNL     1      -3.787  -2.659 130.461  0.00  0.00    +0.000 C 
ATOM     33  N   UNL     1      -3.087  -3.572 130.333  0.00  0.00    +0.000 NA
ENDBRANCH  25  32
ENDBRANCH   4  22
TORSDOF 5
ENDMDL
MODEL 2
REMARK VINA RESULT:      -7.9      6.161     10.049
REMARK  Name = Enzalutamide
REMARK  8 active torsions:
REMARK  status: ('A' for Active; 'I' for Inactive)
REMARK    1  A    between atoms: C_1  and  N_2
REMARK    2  A    between atoms: C_3  and  C_5
REMARK    3  A    between atoms: C_9  and  N_12
REMARK    4  A    between atoms: N_15  and  C_21
REMARK    5  A    between atoms: C_18  and  C_19
REMARK    6  A    between atoms: C_18  and  C_20
REMARK    7  A    between atoms: C_24  and  C_25
REMARK    8  A    between atoms: C_27  and  C_29
REMARK                            x       y       z     vdW  Elec       q    Type
REMARK                         _______ _______ _______ _____ _____    ______ ____
ROOT
ATOM      1  N   UNL     1      -7.105   0.132 127.825  0.00  0.00    +0.000 N 
ATOM      2  C   UNL     1      -7.278   0.186 126.417  0.00  0.00    +0.000 C 
ATOM      3  S   UNL     1      -7.128  -1.107 125.358  0.00  0.00    +0.000 S 
ATOM      4  N   UNL     1      -7.597   1.498 126.081  0.00  0.00    +0.000 N 
ATOM      5  C   UNL     1      -7.657   2.296 127.207  0.00  0.00    +0.000 C 
ATOM      6  O   UNL     1      -7.955   3.484 127.250  0.00  0.00    +0.000 OA
ATOM      7  C   UNL     1      -7.309   1.446 128.447  0.00  0.00    +0.000 C 
ATOM      8  C   UNL     1      -6.031   2.026 129.064  0.00  0.00    +0.000 C 
ATOM      9  C   UNL     1      -8.459   1.485 129.451  0.00  0.00    +0.000 C 
ENDROOT
BRANCH   1  14
ATOM     10  C   UNL     1      -5.900  -3.222 130.158  0.00  0.00    +0.000 A 
ATOM     11  C   UNL     1      -4.970  -2.468 129.454  0.00  0.00    +0.000 A 
ATOM     12  F   UNL     1      -3.664  -2.762 129.508  0.00  0.00    +0.000 F 
ATOM     13  C   UNL     1      -5.368  -1.383 128.666  0.00  0.00    +0.000 A 
ATOM     14  C   UNL     1      -6.714  -1.020 128.564  0.00  0.00    +0.000 A 
ATOM     15  C   UNL     1      -7.658  -1.786 129.259  0.00  0.00    +0.000 A 
ATOM     16  C   UNL     1      -7.257  -2.889 130.038  0.00  0.00    +0.000 A 
BRANCH  10  19
ATOM     17  C   UNL     1      -4.521  -5.236 133.077  0.00  0.00    +0.000 C 
ATOM     18  N   UNL     1      -4.945  -4.149 132.221  0.00  0.00    +0.000 N 
ATOM     19  C   UNL     1      -5.489  -4.394 130.973  0.00  0.00    +0.000 C 
ATOM     20  O   UNL     1      -5.669  -5.522 130.526  0.00  0.00    +0.000 OA
ATOM     21  H   UNL     1      -4.827  -3.199 132.552  0.00  0.00    +0.000 HD
ENDBRANCH  10  19
ENDBRANCH   1  14
BRANCH   4  22
ATOM     22  C   UNL     1      -7.867   1.988 124.775  0.00  0.00    +0.000 A 
ATOM     23  C   UNL     1      -9.149   1.893 124.219  0.00  0.00    +0.000 A 
ATOM     24  C   UNL     1      -9.412   2.376 122.931  0.00  0.00    +0.000 A 
ATOM     25  C   UNL     1      -8.399   2.969 122.168  0.00  0.00    +0.000 A 
ATOM     26  C   UNL     1      -7.097   3.037 122.689  0.00  0.00    +0.000 A 
ATOM     27  C   UNL     1      -6.847   2.558 124.000  0.00  0.00    +0.000 A 
BRANCH  26  28
ATOM     28  C   UNL     1      -5.943   3.608 121.897  0.00  0.00    +0.000 C 
ATOM     29  F   UNL     1      -4.934   4.028 122.705  0.00  0.00    +0.000 F 
ATOM     30  F   UNL     1      -5.398   2.683 121.060  0.00  0.00    +0.000 F 
ATOM     31  F   UNL     1      -6.249   4.669 121.108  0.00  0.00    +0.000 F 
ENDBRANCH  26  28
BRANCH  25  32
ATOM     32  C   UNL     1      -8.749   3.535 120.892  0.00  0.00    +0.000 C 
ATOM     33  N   UNL     1      -9.049   3.962 119.858  0.00  0.00    +0.000 NA
ENDBRANCH  25  32
ENDBRANCH   4  22
TORSDOF 5
ENDMDL
MODEL 3
REMARK VINA RESULT:      -7.9      3.649      4.198
REMARK  Name = Enzalutamide
REMARK  8 active torsions:
REMARK  status: ('A' for Active; 'I' for Inactive)
REMARK    1  A    between atoms: C_1  and  N_2
REMARK    2  A    between atoms: C_3  and  C_5
REMARK    3  A    between atoms: C_9  and  N_12
REMARK    4  A    between atoms: N_15  and  C_21
REMARK    5  A    between atoms: C_18  and  C_19
REMARK    6  A    between atoms: C_18  and  C_20
REMARK    7  A    between atoms: C_24  and  C_25
REMARK    8  A    between atoms: C_27  and  C_29
REMARK                            x       y       z     vdW  Elec       q    Type
REMARK                         _______ _______ _______ _____ _____    ______ ____
ROOT
ATOM      1  N   UNL     1      -8.423   1.791 129.705  0.00  0.00    +0.000 N 
ATOM      2  C   UNL     1      -8.146   1.311 128.399  0.00  0.00    +0.000 C 
ATOM      3  S   UNL     1      -8.550   2.080 126.962  0.00  0.00    +0.000 S 
ATOM      4  N   UNL     1      -7.479   0.097 128.528  0.00  0.00    +0.000 N 
ATOM      5  C   UNL     1      -7.294  -0.227 129.858  0.00  0.00    +0.000 C 
ATOM      6  O   UNL     1      -6.705  -1.206 130.302  0.00  0.00    +0.000 OA
ATOM      7  C   UNL     1      -7.932   0.869 130.737  0.00  0.00    +0.000 C 
ATOM      8  C   UNL     1      -9.058   0.218 131.548  0.00  0.00    +0.000 C 
ATOM      9  C   UNL     1      -6.882   1.479 131.663  0.00  0.00    +0.000 C 
ENDROOT
BRANCH   1  14
ATOM     10  C   UNL     1     -10.602   5.371 130.463  0.00  0.00    +0.000 A 
ATOM     11  C   UNL     1      -9.235   5.403 130.222  0.00  0.00    +0.000 A 
ATOM     12  F   UNL     1      -8.567   6.565 130.199  0.00  0.00    +0.000 F 
ATOM     13  C   UNL     1      -8.514   4.225 130.001  0.00  0.00    +0.000 A 
ATOM     14  C   UNL     1      -9.146   2.979 130.010  0.00  0.00    +0.000 A 
ATOM     15  C   UNL     1     -10.522   2.939 130.268  0.00  0.00    +0.000 A 
ATOM     16  C   UNL     1     -11.244   4.125 130.508  0.00  0.00    +0.000 A 
BRANCH  10  19
ATOM     17  C   UNL     1     -12.422   8.652 129.824  0.00  0.00    +0.000 C 
ATOM     18  N   UNL     1     -11.676   7.424 129.650  0.00  0.00    +0.000 N 
ATOM     19  C   UNL     1     -11.370   6.615 130.729  0.00  0.00    +0.000 C 
ATOM     20  O   UNL     1     -11.723   6.862 131.877  0.00  0.00    +0.000 OA
ATOM     21  H   UNL     1     -11.373   7.172 128.717  0.00  0.00    +0.000 HD
ENDBRANCH  10  19
ENDBRANCH   1  14
BRANCH   4  22
ATOM     22  C   UNL     1      -7.004  -0.718 127.465  0.00  0.00    +0.000 A 
ATOM     23  C   UNL     1      -5.677  -0.628 127.025  0.00  0.00    +0.000 A 
ATOM     24  C   UNL     1      -5.211  -1.432 125.977  0.00  0.00    +0.000 A 
ATOM     25  C   UNL     1      -6.061  -2.347 125.344  0.00  0.00    +0.000 A 
ATOM     26  C   UNL     1      -7.406  -2.424 125.740  0.00  0.00    +0.000 A 
ATOM     27  C   UNL     1      -7.861  -1.615 126.813  0.00  0.00    +0.000 A 
BRANCH  26  28
ATOM     28  C   UNL     1      -8.394  -3.344 125.060  0.00  0.00    +0.000 C 
ATOM     29  F   UNL     1      -9.626  -3.272 125.629  0.00  0.00    +0.000 F 
ATOM     30  F   UNL     1      -8.563  -3.023 123.748  0.00  0.00    +0.000 F 
ATOM     31  F   UNL     1      -8.061  -4.659 125.068  0.00  0.00    +0.000 F 
ENDBRANCH  26  28
BRANCH  25  32
ATOM     32  C   UNL     1      -5.503  -3.214 124.339  0.00  0.00    +0.000 C 
ATOM     33  N   UNL     1      -5.058  -3.938 123.554  0.00  0.00    +0.000 NA
ENDBRANCH  25  32
ENDBRANCH   4  22
TORSDOF 5
ENDMDL
MODEL 4
REMARK VINA RESULT:      -7.9      2.059      2.761
REMARK  Name = Enzalutamide
REMARK  8 active torsions:
REMARK  status: ('A' for Active; 'I' for Inactive)
REMARK    1  A    between atoms: C_1  and  N_2
REMARK    2  A    between atoms: C_3  and  C_5
REMARK    3  A    between atoms: C_9  and  N_12
REMARK    4  A    between atoms: N_15  and  C_21
REMARK    5  A    between atoms: C_18  and  C_19
REMARK    6  A    between atoms: C_18  and  C_20
REMARK    7  A    between atoms: C_24  and  C_25
REMARK    8  A    between atoms: C_27  and  C_29
REMARK                            x       y       z     vdW  Elec       q    Type
REMARK                         _______ _______ _______ _____ _____    ______ ____
ROOT
ATOM      1  N   UNL     1      -9.010   5.167 131.256  0.00  0.00    +0.000 N 
ATOM      2  C   UNL     1      -8.979   3.802 130.867  0.00  0.00    +0.000 C 
ATOM      3  S   UNL     1      -9.973   3.085 129.720  0.00  0.00    +0.000 S 
ATOM      4  N   UNL     1      -7.980   3.175 131.604  0.00  0.00    +0.000 N 
ATOM      5  C   UNL     1      -7.346   4.072 132.441  0.00  0.00    +0.000 C 
ATOM      6  O   UNL     1      -6.398   3.842 133.184  0.00  0.00    +0.000 OA
ATOM      7  C   UNL     1      -8.005   5.459 132.286  0.00  0.00    +0.000 C 
ATOM      8  C   UNL     1      -8.619   5.835 133.639  0.00  0.00    +0.000 C 
ATOM      9  C   UNL     1      -6.963   6.492 131.859  0.00  0.00    +0.000 C 
ENDROOT
BRANCH   1  14
ATOM     10  C   UNL     1     -11.816   7.975 129.715  0.00  0.00    +0.000 A 
ATOM     11  C   UNL     1     -10.547   7.857 129.165  0.00  0.00    +0.000 A 
ATOM     12  F   UNL     1     -10.177   8.608 128.118  0.00  0.00    +0.000 F 
ATOM     13  C   UNL     1      -9.615   6.954 129.689  0.00  0.00    +0.000 A 
ATOM     14  C   UNL     1      -9.933   6.140 130.779  0.00  0.00    +0.000 A 
ATOM     15  C   UNL     1     -11.206   6.266 131.347  0.00  0.00    +0.000 A 
ATOM     16  C   UNL     1     -12.137   7.188 130.831  0.00  0.00    +0.000 A 
BRANCH  10  19
ATOM     17  C   UNL     1     -13.887  11.153 129.412  0.00  0.00    +0.000 C 
ATOM     18  N   UNL     1     -12.950  10.148 129.864  0.00  0.00    +0.000 N 
ATOM     19  C   UNL     1     -12.801   8.952 129.185  0.00  0.00    +0.000 C 
ATOM     20  O   UNL     1     -13.421   8.677 128.162  0.00  0.00    +0.000 OA
ATOM     21  H   UNL     1     -12.407  10.336 130.698  0.00  0.00    +0.000 HD
ENDBRANCH  10  19
ENDBRANCH   1  14
BRANCH   4  22
ATOM     22  C   UNL     1      -7.602   1.807 131.515  0.00  0.00    +0.000 A 
ATOM     23  C   UNL     1      -8.306   0.819 132.214  0.00  0.00    +0.000 A 
ATOM     24  C   UNL     1      -7.932  -0.528 132.125  0.00  0.00    +0.000 A 
ATOM     25  C   UNL     1      -6.845  -0.919 131.334  0.00  0.00    +0.000 A 
ATOM     26  C   UNL     1      -6.099   0.061 130.658  0.00  0.00    +0.000 A 
ATOM     27  C   UNL     1      -6.499   1.419 130.744  0.00  0.00    +0.000 A 
BRANCH  26  28
ATOM     28  C   UNL     1      -4.879  -0.283 129.836  0.00  0.00    +0.000 C 
ATOM     29  F   UNL     1      -4.251   0.831 129.374  0.00  0.00    +0.000 F 
ATOM     30  F   UNL     1      -3.953  -0.964 130.566  0.00  0.00    +0.000 F 
ATOM     31  F   UNL     1      -5.113  -1.053 128.744  0.00  0.00    +0.000 F 
ENDBRANCH  26  28
BRANCH  25  32
ATOM     32  C   UNL     1      -6.567  -2.325 131.203  0.00  0.00    +0.000 C 
ATOM     33  N   UNL     1      -6.375  -3.461 131.085  0.00  0.00    +0.000 NA
ENDBRANCH  25  32
ENDBRANCH   4  22
TORSDOF 5
ENDMDL
MODEL 5
REMARK VINA RESULT:      -7.7      1.641      2.250
REMARK  Name = Enzalutamide
REMARK  8 active torsions:
REMARK  status: ('A' for Active; 'I' for Inactive)
REMARK    1  A    between atoms: C_1  and  N_2
REMARK    2  A    between atoms: C_3  and  C_5
REMARK    3  A    between atoms: C_9  and  N_12
REMARK    4  A    between atoms: N_15  and  C_21
REMARK    5  A    between atoms: C_18  and  C_19
REMARK    6  A    between atoms: C_18  and  C_20
REMARK    7  A    between atoms: C_24  and  C_25
REMARK    8  A    between atoms: C_27  and  C_29
REMARK                            x       y       z     vdW  Elec       q    Type
REMARK                         _______ _______ _______ _____ _____    ______ ____
ROOT
ATOM      1  N   UNL     1      -8.661   3.724 131.561  0.00  0.00    +0.000 N 
ATOM      2  C   UNL     1      -8.390   2.499 130.897  0.00  0.00    +0.000 C 
ATOM      3  S   UNL     1      -8.760   2.145 129.298  0.00  0.00    +0.000 S 
ATOM      4  N   UNL     1      -7.763   1.655 131.807  0.00  0.00    +0.000 N 
ATOM      5  C   UNL     1      -7.597   2.279 133.028  0.00  0.00    +0.000 C 
ATOM      6  O   UNL     1      -7.041   1.820 134.020  0.00  0.00    +0.000 OA
ATOM      7  C   UNL     1      -8.206   3.696 132.957  0.00  0.00    +0.000 C 
ATOM      8  C   UNL     1      -9.357   3.758 133.967  0.00  0.00    +0.000 C 
ATOM      9  C   UNL     1      -7.143   4.743 133.283  0.00  0.00    +0.000 C 
ENDROOT
BRANCH   1  14
ATOM     10  C   UNL     1     -10.660   7.005 129.724  0.00  0.00    +0.000 A 
ATOM     11  C   UNL     1      -9.332   7.105 130.115  0.00  0.00    +0.000 A 
ATOM     12  F   UNL     1      -8.635   8.230 129.905  0.00  0.00    +0.000 F 
ATOM     13  C   UNL     1      -8.683   6.037 130.744  0.00  0.00    +0.000 A 
ATOM     14  C   UNL     1      -9.348   4.834 130.994  0.00  0.00    +0.000 A 
ATOM     15  C   UNL     1     -10.693   4.733 130.616  0.00  0.00    +0.000 A 
ATOM     16  C   UNL     1     -11.350   5.815 129.999  0.00  0.00    +0.000 A 
BRANCH  10  19
ATOM     17  C   UNL     1     -13.151   9.838 129.222  0.00  0.00    +0.000 C 
ATOM     18  N   UNL     1     -12.414   8.723 129.776  0.00  0.00    +0.000 N 
ATOM     19  C   UNL     1     -11.366   8.144 129.083  0.00  0.00    +0.000 C 
ATOM     20  O   UNL     1     -10.982   8.542 127.988  0.00  0.00    +0.000 OA
ATOM     21  H   UNL     1     -12.687   8.368 130.685  0.00  0.00    +0.000 HD
ENDBRANCH  10  19
ENDBRANCH   1  14
BRANCH   4  22
ATOM     22  C   UNL     1      -7.306   0.333 131.551  0.00  0.00    +0.000 A 
ATOM     23  C   UNL     1      -8.110  -0.777 131.840  0.00  0.00    +0.000 A 
ATOM     24  C   UNL     1      -7.657  -2.078 131.588  0.00  0.00    +0.000 A 
ATOM     25  C   UNL     1      -6.389  -2.300 131.038  0.00  0.00    +0.000 A 
ATOM     26  C   UNL     1      -5.550  -1.204 130.780  0.00  0.00    +0.000 A 
ATOM     27  C   UNL     1      -6.027   0.109 131.026  0.00  0.00    +0.000 A 
BRANCH  26  28
ATOM     28  C   UNL     1      -4.147  -1.375 130.245  0.00  0.00    +0.000 C 
ATOM     29  F   UNL     1      -3.367  -2.100 131.090  0.00  0.00    +0.000 F 
ATOM     30  F   UNL     1      -4.135  -2.038 129.056  0.00  0.00    +0.000 F 
ATOM     31  F   UNL     1      -3.469  -0.221 130.018  0.00  0.00    +0.000 F 
ENDBRANCH  26  28
BRANCH  25  32
ATOM     32  C   UNL     1      -6.015  -3.651 130.709  0.00  0.00    +0.000 C 
ATOM     33  N   UNL     1      -5.684  -4.732 130.461  0.00  0.00    +0.000 NA
ENDBRANCH  25  32
ENDBRANCH   4  22
TORSDOF 5
ENDMDL
MODEL 6
REMARK VINA RESULT:      -7.6      6.188      9.840
REMARK  Name = Enzalutamide
REMARK  8 active torsions:
REMARK  status: ('A' for Active; 'I' for Inactive)
REMARK    1  A    between atoms: C_1  and  N_2
REMARK    2  A    between atoms: C_3  and  C_5
REMARK    3  A    between atoms: C_9  and  N_12
REMARK    4  A    between atoms: N_15  and  C_21
REMARK    5  A    between atoms: C_18  and  C_19
REMARK    6  A    between atoms: C_18  and  C_20
REMARK    7  A    between atoms: C_24  and  C_25
REMARK    8  A    between atoms: C_27  and  C_29
REMARK                            x       y       z     vdW  Elec       q    Type
REMARK                         _______ _______ _______ _____ _____    ______ ____
ROOT
ATOM      1  N   UNL     1      -6.138  -2.196 130.077  0.00  0.00    +0.000 N 
ATOM      2  C   UNL     1      -7.142  -2.271 129.076  0.00  0.00    +0.000 C 
ATOM      3  S   UNL     1      -8.478  -3.288 129.098  0.00  0.00    +0.000 S 
ATOM      4  N   UNL     1      -6.820  -1.351 128.084  0.00  0.00    +0.000 N 
ATOM      5  C   UNL     1      -5.662  -0.667 128.401  0.00  0.00    +0.000 C 
ATOM      6  O   UNL     1      -5.141   0.235 127.755  0.00  0.00    +0.000 OA
ATOM      7  C   UNL     1      -5.113  -1.200 129.741  0.00  0.00    +0.000 C 
ATOM      8  C   UNL     1      -3.738  -1.820 129.465  0.00  0.00    +0.000 C 
ATOM      9  C   UNL     1      -5.000  -0.062 130.753  0.00  0.00    +0.000 C 
ENDROOT
BRANCH   1  14
ATOM     10  C   UNL     1      -6.070  -4.711 133.513  0.00  0.00    +0.000 A 
ATOM     11  C   UNL     1      -6.682  -3.465 133.550  0.00  0.00    +0.000 A 
ATOM     12  F   UNL     1      -7.289  -3.029 134.663  0.00  0.00    +0.000 F 
ATOM     13  C   UNL     1      -6.681  -2.627 132.430  0.00  0.00    +0.000 A 
ATOM     14  C   UNL     1      -6.067  -3.017 131.237  0.00  0.00    +0.000 A 
ATOM     15  C   UNL     1      -5.435  -4.267 131.198  0.00  0.00    +0.000 A 
ATOM     16  C   UNL     1      -5.422  -5.102 132.332  0.00  0.00    +0.000 A 
BRANCH  10  19
ATOM     17  C   UNL     1      -4.704  -6.662 136.480  0.00  0.00    +0.000 C 
ATOM     18  N   UNL     1      -4.817  -5.816 135.312  0.00  0.00    +0.000 N 
ATOM     19  C   UNL     1      -6.041  -5.594 134.707  0.00  0.00    +0.000 C 
ATOM     20  O   UNL     1      -7.093  -6.069 135.122  0.00  0.00    +0.000 OA
ATOM     21  H   UNL     1      -3.976  -5.392 134.940  0.00  0.00    +0.000 HD
ENDBRANCH  10  19
ENDBRANCH   1  14
BRANCH   4  22
ATOM     22  C   UNL     1      -7.569  -1.090 126.904  0.00  0.00    +0.000 A 
ATOM     23  C   UNL     1      -8.306   0.093 126.765  0.00  0.00    +0.000 A 
ATOM     24  C   UNL     1      -9.044   0.347 125.602  0.00  0.00    +0.000 A 
ATOM     25  C   UNL     1      -9.061  -0.575 124.549  0.00  0.00    +0.000 A 
ATOM     26  C   UNL     1      -8.364  -1.787 124.684  0.00  0.00    +0.000 A 
ATOM     27  C   UNL     1      -7.608  -2.024 125.862  0.00  0.00    +0.000 A 
BRANCH  26  28
ATOM     28  C   UNL     1      -8.389  -2.854 123.614  0.00  0.00    +0.000 C 
ATOM     29  F   UNL     1      -7.840  -2.415 122.450  0.00  0.00    +0.000 F 
ATOM     30  F   UNL     1      -7.675  -3.954 123.980  0.00  0.00    +0.000 F 
ATOM     31  F   UNL     1      -9.621  -3.318 123.288  0.00  0.00    +0.000 F 
ENDBRANCH  26  28
BRANCH  25  32
ATOM     32  C   UNL     1      -9.756  -0.218 123.340  0.00  0.00    +0.000 C 
ATOM     33  N   UNL     1     -10.346   0.069 122.386  0.00  0.00    +0.000 NA
ENDBRANCH  25  32
ENDBRANCH   4  22
TORSDOF 5
ENDMDL
MODEL 7
REMARK VINA RESULT:      -7.5      2.298      3.037
REMARK  Name = Enzalutamide
REMARK  8 active torsions:
REMARK  status: ('A' for Active; 'I' for Inactive)
REMARK    1  A    between atoms: C_1  and  N_2
REMARK    2  A    between atoms: C_3  and  C_5
REMARK    3  A    between atoms: C_9  and  N_12
REMARK    4  A    between atoms: N_15  and  C_21
REMARK    5  A    between atoms: C_18  and  C_19
REMARK    6  A    between atoms: C_18  and  C_20
REMARK    7  A    between atoms: C_24  and  C_25
REMARK    8  A    between atoms: C_27  and  C_29
REMARK                            x       y       z     vdW  Elec       q    Type
REMARK                         _______ _______ _______ _____ _____    ______ ____
ROOT
ATOM      1  N   UNL     1      -7.723   2.591 130.015  0.00  0.00    +0.000 N 
ATOM      2  C   UNL     1      -7.267   1.615 130.939  0.00  0.00    +0.000 C 
ATOM      3  S   UNL     1      -7.835   1.402 132.504  0.00  0.00    +0.000 S 
ATOM      4  N   UNL     1      -6.273   0.871 130.311  0.00  0.00    +0.000 N 
ATOM      5  C   UNL     1      -6.073   1.306 129.016  0.00  0.00    +0.000 C 
ATOM      6  O   UNL     1      -5.302   0.830 128.191  0.00  0.00    +0.000 OA
ATOM      7  C   UNL     1      -7.010   2.500 128.735  0.00  0.00    +0.000 C 
ATOM      8  C   UNL     1      -6.130   3.722 128.446  0.00  0.00    +0.000 C 
ATOM      9  C   UNL     1      -7.914   2.191 127.543  0.00  0.00    +0.000 C 
ENDROOT
BRANCH   1  14
ATOM     10  C   UNL     1     -10.623   5.638 130.682  0.00  0.00    +0.000 A 
ATOM     11  C   UNL     1      -9.266   5.900 130.816  0.00  0.00    +0.000 A 
ATOM     12  F   UNL     1      -8.830   7.127 131.136  0.00  0.00    +0.000 F 
ATOM     13  C   UNL     1      -8.314   4.893 130.623  0.00  0.00    +0.000 A 
ATOM     14  C   UNL     1      -8.697   3.592 130.287  0.00  0.00    +0.000 A 
ATOM     15  C   UNL     1     -10.066   3.318 130.166  0.00  0.00    +0.000 A 
ATOM     16  C   UNL     1     -11.023   4.329 130.377  0.00  0.00    +0.000 A 
BRANCH  10  19
ATOM     17  C   UNL     1     -12.719   8.764 130.120  0.00  0.00    +0.000 C 
ATOM     18  N   UNL     1     -11.751   7.699 129.969  0.00  0.00    +0.000 N 
ATOM     19  C   UNL     1     -11.641   6.695 130.913  0.00  0.00    +0.000 C 
ATOM     20  O   UNL     1     -12.356   6.624 131.908  0.00  0.00    +0.000 OA
ATOM     21  H   UNL     1     -11.146   7.709 129.157  0.00  0.00    +0.000 HD
ENDBRANCH  10  19
ENDBRANCH   1  14
BRANCH   4  22
ATOM     22  C   UNL     1      -5.557  -0.220 130.875  0.00  0.00    +0.000 A 
ATOM     23  C   UNL     1      -4.364  -0.014 131.578  0.00  0.00    +0.000 A 
ATOM     24  C   UNL     1      -3.660  -1.091 132.132  0.00  0.00    +0.000 A 
ATOM     25  C   UNL     1      -4.135  -2.401 131.998  0.00  0.00    +0.000 A 
ATOM     26  C   UNL     1      -5.307  -2.635 131.261  0.00  0.00    +0.000 A 
ATOM     27  C   UNL     1      -6.018  -1.534 130.719  0.00  0.00    +0.000 A 
BRANCH  26  28
ATOM     28  C   UNL     1      -5.843  -4.028 131.024  0.00  0.00    +0.000 C 
ATOM     29  F   UNL     1      -6.150  -4.657 132.190  0.00  0.00    +0.000 F 
ATOM     30  F   UNL     1      -6.988  -4.011 130.289  0.00  0.00    +0.000 F 
ATOM     31  F   UNL     1      -5.005  -4.867 130.364  0.00  0.00    +0.000 F 
ENDBRANCH  26  28
BRANCH  25  32
ATOM     32  C   UNL     1      -3.423  -3.456 132.670  0.00  0.00    +0.000 C 
ATOM     33  N   UNL     1      -2.821  -4.293 133.197  0.00  0.00    +0.000 NA
ENDBRANCH  25  32
ENDBRANCH   4  22
TORSDOF 5
ENDMDL
MODEL 8
REMARK VINA RESULT:      -7.5      6.279      7.857
REMARK  Name = Enzalutamide
REMARK  8 active torsions:
REMARK  status: ('A' for Active; 'I' for Inactive)
REMARK    1  A    between atoms: C_1  and  N_2
REMARK    2  A    between atoms: C_3  and  C_5
REMARK    3  A    between atoms: C_9  and  N_12
REMARK    4  A    between atoms: N_15  and  C_21
REMARK    5  A    between atoms: C_18  and  C_19
REMARK    6  A    between atoms: C_18  and  C_20
REMARK    7  A    between atoms: C_24  and  C_25
REMARK    8  A    between atoms: C_27  and  C_29
REMARK                            x       y       z     vdW  Elec       q    Type
REMARK                         _______ _______ _______ _____ _____    ______ ____
ROOT
ATOM      1  N   UNL     1      -5.599  -1.468 131.549  0.00  0.00    +0.000 N 
ATOM      2  C   UNL     1      -6.272  -1.219 130.324  0.00  0.00    +0.000 C 
ATOM      3  S   UNL     1      -6.704   0.290 129.729  0.00  0.00    +0.000 S 
ATOM      4  N   UNL     1      -6.500  -2.447 129.711  0.00  0.00    +0.000 N 
ATOM      5  C   UNL     1      -5.992  -3.482 130.471  0.00  0.00    +0.000 C 
ATOM      6  O   UNL     1      -5.994  -4.674 130.185  0.00  0.00    +0.000 OA
ATOM      7  C   UNL     1      -5.376  -2.904 131.763  0.00  0.00    +0.000 C 
ATOM      8  C   UNL     1      -6.169  -3.467 132.947  0.00  0.00    +0.000 C 
ATOM      9  C   UNL     1      -3.903  -3.293 131.864  0.00  0.00    +0.000 C 
ENDROOT
BRANCH   1  14
ATOM     10  C   UNL     1      -4.541   1.604 134.303  0.00  0.00    +0.000 A 
ATOM     11  C   UNL     1      -3.622   1.121 133.381  0.00  0.00    +0.000 A 
ATOM     12  F   UNL     1      -2.381   1.625 133.318  0.00  0.00    +0.000 F 
ATOM     13  C   UNL     1      -3.960   0.093 132.495  0.00  0.00    +0.000 A 
ATOM     14  C   UNL     1      -5.235  -0.479 132.505  0.00  0.00    +0.000 A 
ATOM     15  C   UNL     1      -6.162  -0.006 133.443  0.00  0.00    +0.000 A 
ATOM     16  C   UNL     1      -5.814   1.017 134.346  0.00  0.00    +0.000 A 
BRANCH  10  19
ATOM     17  C   UNL     1      -3.371   3.270 137.517  0.00  0.00    +0.000 C 
ATOM     18  N   UNL     1      -3.743   2.289 136.521  0.00  0.00    +0.000 N 
ATOM     19  C   UNL     1      -4.181   2.675 135.267  0.00  0.00    +0.000 C 
ATOM     20  O   UNL     1      -4.261   3.847 134.913  0.00  0.00    +0.000 OA
ATOM     21  H   UNL     1      -3.682   1.308 136.764  0.00  0.00    +0.000 HD
ENDBRANCH  10  19
ENDBRANCH   1  14
BRANCH   4  22
ATOM     22  C   UNL     1      -7.136  -2.654 128.456  0.00  0.00    +0.000 A 
ATOM     23  C   UNL     1      -8.410  -3.229 128.379  0.00  0.00    +0.000 A 
ATOM     24  C   UNL     1      -9.033  -3.433 127.141  0.00  0.00    +0.000 A 
ATOM     25  C   UNL     1      -8.397  -3.064 125.950  0.00  0.00    +0.000 A 
ATOM     26  C   UNL     1      -7.102  -2.524 126.001  0.00  0.00    +0.000 A 
ATOM     27  C   UNL     1      -6.489  -2.309 127.262  0.00  0.00    +0.000 A 
BRANCH  26  28
ATOM     28  C   UNL     1      -6.332  -2.160 124.752  0.00  0.00    +0.000 C 
ATOM     29  F   UNL     1      -6.145  -3.236 123.943  0.00  0.00    +0.000 F 
ATOM     30  F   UNL     1      -6.991  -1.233 124.004  0.00  0.00    +0.000 F 
ATOM     31  F   UNL     1      -5.098  -1.639 124.964  0.00  0.00    +0.000 F 
ENDBRANCH  26  28
BRANCH  25  32
ATOM     32  C   UNL     1      -9.125  -3.207 124.716  0.00  0.00    +0.000 C 
ATOM     33  N   UNL     1      -9.730  -3.295 123.733  0.00  0.00    +0.000 NA
ENDBRANCH  25  32
ENDBRANCH   4  22
TORSDOF 5
ENDMDL
MODEL 9
REMARK VINA RESULT:      -7.4      6.140      7.106
REMARK  Name = Enzalutamide
REMARK  8 active torsions:
REMARK  status: ('A' for Active; 'I' for Inactive)
REMARK    1  A    between atoms: C_1  and  N_2
REMARK    2  A    between atoms: C_3  and  C_5
REMARK    3  A    between atoms: C_9  and  N_12
REMARK    4  A    between atoms: N_15  and  C_21
REMARK    5  A    between atoms: C_18  and  C_19
REMARK    6  A    between atoms: C_18  and  C_20
REMARK    7  A    between atoms: C_24  and  C_25
REMARK    8  A    between atoms: C_27  and  C_29
REMARK                            x       y       z     vdW  Elec       q    Type
REMARK                         _______ _______ _______ _____ _____    ______ ____
ROOT
ATOM      1  N   UNL     1      -7.873  -1.534 126.418  0.00  0.00    +0.000 N 
ATOM      2  C   UNL     1      -7.209  -1.476 127.671  0.00  0.00    +0.000 C 
ATOM      3  S   UNL     1      -6.345  -0.165 128.266  0.00  0.00    +0.000 S 
ATOM      4  N   UNL     1      -7.407  -2.694 128.312  0.00  0.00    +0.000 N 
ATOM      5  C   UNL     1      -8.185  -3.537 127.542  0.00  0.00    +0.000 C 
ATOM      6  O   UNL     1      -8.574  -4.659 127.843  0.00  0.00    +0.000 OA
ATOM      7  C   UNL     1      -8.531  -2.830 126.214  0.00  0.00    +0.000 C 
ATOM      8  C   UNL     1      -7.909  -3.649 125.077  0.00  0.00    +0.000 C 
ATOM      9  C   UNL     1     -10.046  -2.736 126.046  0.00  0.00    +0.000 C 
ENDROOT
BRANCH   1  14
ATOM     10  C   UNL     1      -7.756   1.625 123.564  0.00  0.00    +0.000 A 
ATOM     11  C   UNL     1      -8.685   1.627 124.595  0.00  0.00    +0.000 A 
ATOM     12  F   UNL     1      -9.556   2.636 124.735  0.00  0.00    +0.000 F 
ATOM     13  C   UNL     1      -8.742   0.576 125.517  0.00  0.00    +0.000 A 
ATOM     14  C   UNL     1      -7.864  -0.507 125.432  0.00  0.00    +0.000 A 
ATOM     15  C   UNL     1      -6.935  -0.523 124.384  0.00  0.00    +0.000 A 
ATOM     16  C   UNL     1      -6.891   0.527 123.446  0.00  0.00    +0.000 A 
BRANCH  10  19
ATOM     17  C   UNL     1      -8.790   3.865 120.666  0.00  0.00    +0.000 C 
ATOM     18  N   UNL     1      -8.760   2.824 121.671  0.00  0.00    +0.000 N 
ATOM     19  C   UNL     1      -7.708   2.722 122.563  0.00  0.00    +0.000 C 
ATOM     20  O   UNL     1      -6.762   3.502 122.580  0.00  0.00    +0.000 OA
ATOM     21  H   UNL     1      -9.527   2.163 121.703  0.00  0.00    +0.000 HD
ENDBRANCH  10  19
ENDBRANCH   1  14
BRANCH   4  22
ATOM     22  C   UNL     1      -6.924  -3.056 129.599  0.00  0.00    +0.000 A 
ATOM     23  C   UNL     1      -5.826  -3.913 129.742  0.00  0.00    +0.000 A 
ATOM     24  C   UNL     1      -5.352  -4.269 131.011  0.00  0.00    +0.000 A 
ATOM     25  C   UNL     1      -5.964  -3.773 132.168  0.00  0.00    +0.000 A 
ATOM     26  C   UNL     1      -7.093  -2.946 132.049  0.00  0.00    +0.000 A 
ATOM     27  C   UNL     1      -7.553  -2.582 130.757  0.00  0.00    +0.000 A 
BRANCH  26  28
ATOM     28  C   UNL     1      -7.840  -2.426 133.255  0.00  0.00    +0.000 C 
ATOM     29  F   UNL     1      -8.725  -1.450 132.919  0.00  0.00    +0.000 F 
ATOM     30  F   UNL     1      -8.567  -3.404 133.861  0.00  0.00    +0.000 F 
ATOM     31  F   UNL     1      -7.063  -1.897 134.234  0.00  0.00    +0.000 F 
ENDBRANCH  26  28
BRANCH  25  32
ATOM     32  C   UNL     1      -5.375  -4.094 133.442  0.00  0.00    +0.000 C 
ATOM     33  N   UNL     1      -4.931  -4.369 134.475  0.00  0.00    +0.000 NA
ENDBRANCH  25  32
ENDBRANCH   4  22
TORSDOF 5
ENDMDL
