MODEL 1
REMARK VINA RESULT:      -8.3      0.000      0.000
REMARK  Name = Enzacamene
REMARK  5 active torsions:
REMARK  status: ('A' for Active; 'I' for Inactive)
REMARK    1  A    between atoms: C_1  and  C_2
REMARK    2  A    between atoms: C_5  and  C_6
REMARK    3  A    between atoms: C_11  and  C_12
REMARK    4  A    between atoms: C_15  and  C_16
REMARK    5  A    between atoms: C_15  and  C_17
REMARK                            x       y       z     vdW  Elec       q    Type
REMARK                         _______ _______ _______ _____ _____    ______ ____
ROOT
ATOM      1  C   UNL     1      -8.854   2.173 123.167  0.00  0.00    +0.000 C 
ATOM      2  C   UNL     1      -8.464   1.078 123.838  0.00  0.00    +0.000 C 
ATOM      3  C   UNL     1      -7.211   0.219 123.755  0.00  0.00    +0.000 C 
ATOM      4  C   UNL     1      -6.429   0.451 125.064  0.00  0.00    +0.000 C 
ATOM      5  C   UNL     1      -7.261  -0.344 126.097  0.00  0.00    +0.000 C 
ATOM      6  C   UNL     1      -8.427  -0.916 125.243  0.00  0.00    +0.000 C 
ATOM      7  C   UNL     1      -9.152  -2.095 125.834  0.00  0.00    +0.000 C 
ATOM      8  C   UNL     1      -9.270   0.305 124.860  0.00  0.00    +0.000 C 
ATOM      9  O   UNL     1     -10.368   0.618 125.293  0.00  0.00    +0.000 OA
ATOM     10  C   UNL     1      -7.769  -1.201 123.876  0.00  0.00    +0.000 C 
ATOM     11  C   UNL     1      -6.661  -2.265 123.863  0.00  0.00    +0.000 C 
ATOM     12  C   UNL     1      -8.741  -1.549 122.726  0.00  0.00    +0.000 C 
ENDROOT
BRANCH   1  17
ATOM     13  C   UNL     1      -5.536   5.170 119.457  0.00  0.00    +0.000 C 
ATOM     14  C   UNL     1      -6.420   4.372 120.357  0.00  0.00    +0.000 A 
ATOM     15  C   UNL     1      -7.773   4.126 120.091  0.00  0.00    +0.000 A 
ATOM     16  C   UNL     1      -8.567   3.389 120.989  0.00  0.00    +0.000 A 
ATOM     17  C   UNL     1      -8.027   2.915 122.189  0.00  0.00    +0.000 A 
ATOM     18  C   UNL     1      -6.687   3.236 122.438  0.00  0.00    +0.000 A 
ATOM     19  C   UNL     1      -5.877   3.896 121.533  0.00  0.00    +0.000 A 
ENDBRANCH   1  17
TORSDOF 1
ENDMDL
MODEL 2
REMARK VINA RESULT:      -8.0      1.519      2.034
REMARK  Name = Enzacamene
REMARK  5 active torsions:
REMARK  status: ('A' for Active; 'I' for Inactive)
REMARK    1  A    between atoms: C_1  and  C_2
REMARK    2  A    between atoms: C_5  and  C_6
REMARK    3  A    between atoms: C_11  and  C_12
REMARK    4  A    between atoms: C_15  and  C_16
REMARK    5  A    between atoms: C_15  and  C_17
REMARK                            x       y       z     vdW  Elec       q    Type
REMARK                         _______ _______ _______ _____ _____    ______ ____
ROOT
ATOM      1  C   UNL     1      -7.956   1.243 124.085  0.00  0.00    +0.000 C 
ATOM      2  C   UNL     1      -7.577   0.005 124.438  0.00  0.00    +0.000 C 
ATOM      3  C   UNL     1      -6.274  -0.758 124.252  0.00  0.00    +0.000 C 
ATOM      4  C   UNL     1      -5.652  -0.919 125.654  0.00  0.00    +0.000 C 
ATOM      5  C   UNL     1      -6.543  -2.011 126.293  0.00  0.00    +0.000 C 
ATOM      6  C   UNL     1      -7.575  -2.321 125.173  0.00  0.00    +0.000 C 
ATOM      7  C   UNL     1      -8.289  -3.640 125.291  0.00  0.00    +0.000 C 
ATOM      8  C   UNL     1      -8.442  -1.061 125.076  0.00  0.00    +0.000 C 
ATOM      9  O   UNL     1      -9.596  -0.920 125.448  0.00  0.00    +0.000 OA
ATOM     10  C   UNL     1      -6.758  -2.160 123.873  0.00  0.00    +0.000 C 
ATOM     11  C   UNL     1      -5.595  -3.144 123.674  0.00  0.00    +0.000 C 
ATOM     12  C   UNL     1      -7.579  -2.163 122.563  0.00  0.00    +0.000 C 
ENDROOT
BRANCH   1  17
ATOM     13  C   UNL     1      -4.422   5.142 121.622  0.00  0.00    +0.000 C 
ATOM     14  C   UNL     1      -5.351   4.189 122.298  0.00  0.00    +0.000 A 
ATOM     15  C   UNL     1      -5.587   4.188 123.678  0.00  0.00    +0.000 A 
ATOM     16  C   UNL     1      -6.453   3.247 124.265  0.00  0.00    +0.000 A 
ATOM     17  C   UNL     1      -7.073   2.267 123.482  0.00  0.00    +0.000 A 
ATOM     18  C   UNL     1      -6.761   2.273 122.118  0.00  0.00    +0.000 A 
ATOM     19  C   UNL     1      -5.969   3.234 121.516  0.00  0.00    +0.000 A 
ENDBRANCH   1  17
TORSDOF 1
ENDMDL
MODEL 3
REMARK VINA RESULT:      -7.9      3.534      7.435
REMARK  Name = Enzacamene
REMARK  5 active torsions:
REMARK  status: ('A' for Active; 'I' for Inactive)
REMARK    1  A    between atoms: C_1  and  C_2
REMARK    2  A    between atoms: C_5  and  C_6
REMARK    3  A    between atoms: C_11  and  C_12
REMARK    4  A    between atoms: C_15  and  C_16
REMARK    5  A    between atoms: C_15  and  C_17
REMARK                            x       y       z     vdW  Elec       q    Type
REMARK                         _______ _______ _______ _____ _____    ______ ____
ROOT
ATOM      1  C   UNL     1      -7.972  -1.793 127.542  0.00  0.00    +0.000 C 
ATOM      2  C   UNL     1      -8.043  -1.951 126.211  0.00  0.00    +0.000 C 
ATOM      3  C   UNL     1      -7.139  -2.663 125.216  0.00  0.00    +0.000 C 
ATOM      4  C   UNL     1      -7.923  -3.887 124.704  0.00  0.00    +0.000 C 
ATOM      5  C   UNL     1      -8.960  -3.247 123.752  0.00  0.00    +0.000 C 
ATOM      6  C   UNL     1      -8.643  -1.729 123.857  0.00  0.00    +0.000 C 
ATOM      7  C   UNL     1      -9.153  -0.876 122.728  0.00  0.00    +0.000 C 
ATOM      8  C   UNL     1      -9.064  -1.337 125.278  0.00  0.00    +0.000 C 
ATOM      9  O   UNL     1     -10.034  -0.676 125.611  0.00  0.00    +0.000 OA
ATOM     10  C   UNL     1      -7.109  -1.691 124.034  0.00  0.00    +0.000 C 
ATOM     11  C   UNL     1      -6.276  -2.227 122.860  0.00  0.00    +0.000 C 
ATOM     12  C   UNL     1      -6.515  -0.317 124.419  0.00  0.00    +0.000 C 
ENDROOT
BRANCH   1  17
ATOM     13  C   UNL     1      -4.144  -4.276 131.139  0.00  0.00    +0.000 C 
ATOM     14  C   UNL     1      -5.080  -3.639 130.166  0.00  0.00    +0.000 A 
ATOM     15  C   UNL     1      -4.682  -2.682 129.224  0.00  0.00    +0.000 A 
ATOM     16  C   UNL     1      -5.614  -2.094 128.349  0.00  0.00    +0.000 A 
ATOM     17  C   UNL     1      -6.969  -2.429 128.426  0.00  0.00    +0.000 A 
ATOM     18  C   UNL     1      -7.328  -3.345 129.422  0.00  0.00    +0.000 A 
ATOM     19  C   UNL     1      -6.414  -3.984 130.240  0.00  0.00    +0.000 A 
ENDBRANCH   1  17
TORSDOF 1
ENDMDL
MODEL 4
REMARK VINA RESULT:      -7.6      2.747      3.817
REMARK  Name = Enzacamene
REMARK  5 active torsions:
REMARK  status: ('A' for Active; 'I' for Inactive)
REMARK    1  A    between atoms: C_1  and  C_2
REMARK    2  A    between atoms: C_5  and  C_6
REMARK    3  A    between atoms: C_11  and  C_12
REMARK    4  A    between atoms: C_15  and  C_16
REMARK    5  A    between atoms: C_15  and  C_17
REMARK                            x       y       z     vdW  Elec       q    Type
REMARK                         _______ _______ _______ _____ _____    ______ ____
ROOT
ATOM      1  C   UNL     1      -7.404   1.331 124.557  0.00  0.00    +0.000 C 
ATOM      2  C   UNL     1      -7.631   0.009 124.590  0.00  0.00    +0.000 C 
ATOM      3  C   UNL     1      -6.781  -1.165 125.053  0.00  0.00    +0.000 C 
ATOM      4  C   UNL     1      -7.453  -1.722 126.324  0.00  0.00    +0.000 C 
ATOM      5  C   UNL     1      -8.687  -2.461 125.755  0.00  0.00    +0.000 C 
ATOM      6  C   UNL     1      -8.569  -2.214 124.226  0.00  0.00    +0.000 C 
ATOM      7  C   UNL     1      -9.339  -3.165 123.350  0.00  0.00    +0.000 C 
ATOM      8  C   UNL     1      -8.843  -0.717 124.046  0.00  0.00    +0.000 C 
ATOM      9  O   UNL     1      -9.841  -0.194 123.576  0.00  0.00    +0.000 OA
ATOM     10  C   UNL     1      -7.045  -2.218 123.974  0.00  0.00    +0.000 C 
ATOM     11  C   UNL     1      -6.313  -3.538 124.257  0.00  0.00    +0.000 C 
ATOM     12  C   UNL     1      -6.598  -1.746 122.572  0.00  0.00    +0.000 C 
ENDROOT
BRANCH   1  17
ATOM     13  C   UNL     1      -2.774   3.927 126.920  0.00  0.00    +0.000 C 
ATOM     14  C   UNL     1      -3.948   3.289 126.253  0.00  0.00    +0.000 A 
ATOM     15  C   UNL     1      -4.722   3.927 125.277  0.00  0.00    +0.000 A 
ATOM     16  C   UNL     1      -5.835   3.286 124.701  0.00  0.00    +0.000 A 
ATOM     17  C   UNL     1      -6.213   2.007 125.120  0.00  0.00    +0.000 A 
ATOM     18  C   UNL     1      -5.443   1.434 126.140  0.00  0.00    +0.000 A 
ATOM     19  C   UNL     1      -4.306   2.021 126.663  0.00  0.00    +0.000 A 
ENDBRANCH   1  17
TORSDOF 1
ENDMDL
MODEL 5
REMARK VINA RESULT:      -7.5      8.673      9.971
REMARK  Name = Enzacamene
REMARK  5 active torsions:
REMARK  status: ('A' for Active; 'I' for Inactive)
REMARK    1  A    between atoms: C_1  and  C_2
REMARK    2  A    between atoms: C_5  and  C_6
REMARK    3  A    between atoms: C_11  and  C_12
REMARK    4  A    between atoms: C_15  and  C_16
REMARK    5  A    between atoms: C_15  and  C_17
REMARK                            x       y       z     vdW  Elec       q    Type
REMARK                         _______ _______ _______ _____ _____    ______ ____
ROOT
ATOM      1  C   UNL     1     -11.594   5.549 130.157  0.00  0.00    +0.000 C 
ATOM      2  C   UNL     1     -10.493   5.230 130.855  0.00  0.00    +0.000 C 
ATOM      3  C   UNL     1      -9.393   6.078 131.475  0.00  0.00    +0.000 C 
ATOM      4  C   UNL     1      -9.551   5.957 133.004  0.00  0.00    +0.000 C 
ATOM      5  C   UNL     1      -9.017   4.533 133.285  0.00  0.00    +0.000 C 
ATOM      6  C   UNL     1      -8.636   4.016 131.871  0.00  0.00    +0.000 C 
ATOM      7  C   UNL     1      -7.675   2.859 131.835  0.00  0.00    +0.000 C 
ATOM      8  C   UNL     1      -9.974   3.837 131.144  0.00  0.00    +0.000 C 
ATOM      9  O   UNL     1     -10.534   2.790 130.860  0.00  0.00    +0.000 OA
ATOM     10  C   UNL     1      -8.128   5.281 131.146  0.00  0.00    +0.000 C 
ATOM     11  C   UNL     1      -6.862   5.932 131.724  0.00  0.00    +0.000 C 
ATOM     12  C   UNL     1      -7.906   5.135 129.624  0.00  0.00    +0.000 C 
ENDROOT
BRANCH   1  17
ATOM     13  C   UNL     1     -13.637  10.921 129.305  0.00  0.00    +0.000 C 
ATOM     14  C   UNL     1     -13.064   9.553 129.478  0.00  0.00    +0.000 A 
ATOM     15  C   UNL     1     -12.559   8.789 128.419  0.00  0.00    +0.000 A 
ATOM     16  C   UNL     1     -12.055   7.492 128.636  0.00  0.00    +0.000 A 
ATOM     17  C   UNL     1     -12.081   6.926 129.914  0.00  0.00    +0.000 A 
ATOM     18  C   UNL     1     -12.649   7.706 130.928  0.00  0.00    +0.000 A 
ATOM     19  C   UNL     1     -13.081   9.006 130.744  0.00  0.00    +0.000 A 
ENDBRANCH   1  17
TORSDOF 1
ENDMDL
MODEL 6
REMARK VINA RESULT:      -7.4      8.139      9.591
REMARK  Name = Enzacamene
REMARK  5 active torsions:
REMARK  status: ('A' for Active; 'I' for Inactive)
REMARK    1  A    between atoms: C_1  and  C_2
REMARK    2  A    between atoms: C_5  and  C_6
REMARK    3  A    between atoms: C_11  and  C_12
REMARK    4  A    between atoms: C_15  and  C_16
REMARK    5  A    between atoms: C_15  and  C_17
REMARK                            x       y       z     vdW  Elec       q    Type
REMARK                         _______ _______ _______ _____ _____    ______ ____
ROOT
ATOM      1  C   UNL     1      -9.822   5.631 132.550  0.00  0.00    +0.000 C 
ATOM      2  C   UNL     1      -9.000   4.601 132.293  0.00  0.00    +0.000 C 
ATOM      3  C   UNL     1      -8.657   3.863 131.008  0.00  0.00    +0.000 C 
ATOM      4  C   UNL     1      -7.192   4.210 130.677  0.00  0.00    +0.000 C 
ATOM      5  C   UNL     1      -6.406   3.374 131.714  0.00  0.00    +0.000 C 
ATOM      6  C   UNL     1      -7.532   2.666 132.519  0.00  0.00    +0.000 C 
ATOM      7  C   UNL     1      -7.113   1.444 133.290  0.00  0.00    +0.000 C 
ATOM      8  C   UNL     1      -8.220   3.789 133.304  0.00  0.00    +0.000 C 
ATOM      9  O   UNL     1      -8.151   4.010 134.502  0.00  0.00    +0.000 OA
ATOM     10  C   UNL     1      -8.623   2.400 131.459  0.00  0.00    +0.000 C 
ATOM     11  C   UNL     1      -8.243   1.447 130.317  0.00  0.00    +0.000 C 
ATOM     12  C   UNL     1      -9.987   1.925 132.009  0.00  0.00    +0.000 C 
ENDROOT
BRANCH   1  17
ATOM     13  C   UNL     1     -12.563   8.824 128.544  0.00  0.00    +0.000 C 
ATOM     14  C   UNL     1     -11.913   7.963 129.577  0.00  0.00    +0.000 A 
ATOM     15  C   UNL     1     -12.602   7.407 130.662  0.00  0.00    +0.000 A 
ATOM     16  C   UNL     1     -11.932   6.625 131.622  0.00  0.00    +0.000 A 
ATOM     17  C   UNL     1     -10.552   6.416 131.530  0.00  0.00    +0.000 A 
ATOM     18  C   UNL     1      -9.899   7.041 130.461  0.00  0.00    +0.000 A 
ATOM     19  C   UNL     1     -10.554   7.751 129.472  0.00  0.00    +0.000 A 
ENDBRANCH   1  17
TORSDOF 1
ENDMDL
MODEL 7
REMARK VINA RESULT:      -7.2      3.657      7.981
REMARK  Name = Enzacamene
REMARK  5 active torsions:
REMARK  status: ('A' for Active; 'I' for Inactive)
REMARK    1  A    between atoms: C_1  and  C_2
REMARK    2  A    between atoms: C_5  and  C_6
REMARK    3  A    between atoms: C_11  and  C_12
REMARK    4  A    between atoms: C_15  and  C_16
REMARK    5  A    between atoms: C_15  and  C_17
REMARK                            x       y       z     vdW  Elec       q    Type
REMARK                         _______ _______ _______ _____ _____    ______ ____
ROOT
ATOM      1  C   UNL     1      -8.495  -3.046 127.939  0.00  0.00    +0.000 C 
ATOM      2  C   UNL     1      -8.090  -2.456 126.803  0.00  0.00    +0.000 C 
ATOM      3  C   UNL     1      -6.913  -1.546 126.486  0.00  0.00    +0.000 C 
ATOM      4  C   UNL     1      -5.958  -2.356 125.587  0.00  0.00    +0.000 C 
ATOM      5  C   UNL     1      -6.699  -2.361 124.229  0.00  0.00    +0.000 C 
ATOM      6  C   UNL     1      -7.997  -1.563 124.535  0.00  0.00    +0.000 C 
ATOM      7  C   UNL     1      -8.712  -0.996 123.338  0.00  0.00    +0.000 C 
ATOM      8  C   UNL     1      -8.805  -2.470 125.469  0.00  0.00    +0.000 C 
ATOM      9  O   UNL     1      -9.817  -3.099 125.204  0.00  0.00    +0.000 OA
ATOM     10  C   UNL     1      -7.537  -0.501 125.557  0.00  0.00    +0.000 C 
ATOM     11  C   UNL     1      -6.508   0.523 125.057  0.00  0.00    +0.000 C 
ATOM     12  C   UNL     1      -8.668   0.295 126.247  0.00  0.00    +0.000 C 
ENDROOT
BRANCH   1  17
ATOM     13  C   UNL     1      -5.608  -3.143 132.981  0.00  0.00    +0.000 C 
ATOM     14  C   UNL     1      -6.347  -3.050 131.686  0.00  0.00    +0.000 A 
ATOM     15  C   UNL     1      -7.300  -2.062 131.410  0.00  0.00    +0.000 A 
ATOM     16  C   UNL     1      -7.986  -2.038 130.182  0.00  0.00    +0.000 A 
ATOM     17  C   UNL     1      -7.755  -3.028 129.221  0.00  0.00    +0.000 A 
ATOM     18  C   UNL     1      -6.837  -4.027 129.566  0.00  0.00    +0.000 A 
ATOM     19  C   UNL     1      -6.103  -4.022 130.738  0.00  0.00    +0.000 A 
ENDBRANCH   1  17
TORSDOF 1
ENDMDL
MODEL 8
REMARK VINA RESULT:      -7.2      3.825      8.015
REMARK  Name = Enzacamene
REMARK  5 active torsions:
REMARK  status: ('A' for Active; 'I' for Inactive)
REMARK    1  A    between atoms: C_1  and  C_2
REMARK    2  A    between atoms: C_5  and  C_6
REMARK    3  A    between atoms: C_11  and  C_12
REMARK    4  A    between atoms: C_15  and  C_16
REMARK    5  A    between atoms: C_15  and  C_17
REMARK                            x       y       z     vdW  Elec       q    Type
REMARK                         _______ _______ _______ _____ _____    ______ ____
ROOT
ATOM      1  C   UNL     1      -5.421  -1.327 127.745  0.00  0.00    +0.000 C 
ATOM      2  C   UNL     1      -6.237  -1.348 126.679  0.00  0.00    +0.000 C 
ATOM      3  C   UNL     1      -7.209  -2.394 126.154  0.00  0.00    +0.000 C 
ATOM      4  C   UNL     1      -8.625  -1.820 126.354  0.00  0.00    +0.000 C 
ATOM      5  C   UNL     1      -8.714  -0.752 125.239  0.00  0.00    +0.000 C 
ATOM      6  C   UNL     1      -7.323  -0.843 124.553  0.00  0.00    +0.000 C 
ATOM      7  C   UNL     1      -7.241  -0.274 123.163  0.00  0.00    +0.000 C 
ATOM      8  C   UNL     1      -6.336  -0.298 125.592  0.00  0.00    +0.000 C 
ATOM      9  O   UNL     1      -5.750   0.772 125.574  0.00  0.00    +0.000 OA
ATOM     10  C   UNL     1      -6.973  -2.344 124.643  0.00  0.00    +0.000 C 
ATOM     11  C   UNL     1      -7.895  -3.304 123.877  0.00  0.00    +0.000 C 
ATOM     12  C   UNL     1      -5.521  -2.715 124.264  0.00  0.00    +0.000 C 
ENDROOT
BRANCH   1  17
ATOM     13  C   UNL     1      -5.304  -5.297 131.985  0.00  0.00    +0.000 C 
ATOM     14  C   UNL     1      -5.292  -4.317 130.859  0.00  0.00    +0.000 A 
ATOM     15  C   UNL     1      -4.153  -4.030 130.097  0.00  0.00    +0.000 A 
ATOM     16  C   UNL     1      -4.193  -3.075 129.064  0.00  0.00    +0.000 A 
ATOM     17  C   UNL     1      -5.368  -2.364 128.800  0.00  0.00    +0.000 A 
ATOM     18  C   UNL     1      -6.463  -2.644 129.626  0.00  0.00    +0.000 A 
ATOM     19  C   UNL     1      -6.459  -3.629 130.596  0.00  0.00    +0.000 A 
ENDBRANCH   1  17
TORSDOF 1
ENDMDL
MODEL 9
REMARK VINA RESULT:      -7.2      2.238      5.908
REMARK  Name = Enzacamene
REMARK  5 active torsions:
REMARK  status: ('A' for Active; 'I' for Inactive)
REMARK    1  A    between atoms: C_1  and  C_2
REMARK    2  A    between atoms: C_5  and  C_6
REMARK    3  A    between atoms: C_11  and  C_12
REMARK    4  A    between atoms: C_15  and  C_16
REMARK    5  A    between atoms: C_15  and  C_17
REMARK                            x       y       z     vdW  Elec       q    Type
REMARK                         _______ _______ _______ _____ _____    ______ ____
ROOT
ATOM      1  C   UNL     1      -7.390  -0.470 125.918  0.00  0.00    +0.000 C 
ATOM      2  C   UNL     1      -7.509   0.754 125.379  0.00  0.00    +0.000 C 
ATOM      3  C   UNL     1      -6.917   1.382 124.126  0.00  0.00    +0.000 C 
ATOM      4  C   UNL     1      -8.086   1.596 123.144  0.00  0.00    +0.000 C 
ATOM      5  C   UNL     1      -8.823   2.808 123.759  0.00  0.00    +0.000 C 
ATOM      6  C   UNL     1      -7.984   3.121 125.029  0.00  0.00    +0.000 C 
ATOM      7  C   UNL     1      -8.152   4.504 125.599  0.00  0.00    +0.000 C 
ATOM      8  C   UNL     1      -8.241   1.939 125.971  0.00  0.00    +0.000 C 
ATOM      9  O   UNL     1      -8.912   1.931 126.991  0.00  0.00    +0.000 OA
ATOM     10  C   UNL     1      -6.539   2.787 124.601  0.00  0.00    +0.000 C 
ATOM     11  C   UNL     1      -5.949   3.645 123.472  0.00  0.00    +0.000 C 
ATOM     12  C   UNL     1      -5.494   2.760 125.739  0.00  0.00    +0.000 C 
ENDROOT
BRANCH   1  17
ATOM     13  C   UNL     1      -4.530  -4.845 123.381  0.00  0.00    +0.000 C 
ATOM     14  C   UNL     1      -5.303  -3.766 124.067  0.00  0.00    +0.000 A 
ATOM     15  C   UNL     1      -6.678  -3.844 124.319  0.00  0.00    +0.000 A 
ATOM     16  C   UNL     1      -7.362  -2.784 124.945  0.00  0.00    +0.000 A 
ATOM     17  C   UNL     1      -6.684  -1.612 125.296  0.00  0.00    +0.000 A 
ATOM     18  C   UNL     1      -5.323  -1.559 124.971  0.00  0.00    +0.000 A 
ATOM     19  C   UNL     1      -4.625  -2.619 124.423  0.00  0.00    +0.000 A 
ENDBRANCH   1  17
TORSDOF 1
ENDMDL
