MODEL 1
REMARK VINA RESULT:      -5.6      0.000      0.000
REMARK  Name = Ephedrine
REMARK  6 active torsions:
REMARK  status: ('A' for Active; 'I' for Inactive)
REMARK    1  A    between atoms: C_1  and  N_2
REMARK    2  A    between atoms: N_2  and  C_3
REMARK    3  A    between atoms: C_3  and  C_4
REMARK    4  A    between atoms: C_3  and  C_5
REMARK    5  A    between atoms: C_5  and  O_6
REMARK    6  A    between atoms: C_5  and  C_7
REMARK                            x       y       z     vdW  Elec       q    Type
REMARK                         _______ _______ _______ _____ _____    ______ ____
ROOT
ATOM      1  C   UNL     1     -12.110   7.330 131.062  0.00  0.00    +0.000 C 
ENDROOT
BRANCH   1   2
ATOM      2  C   UNL     1     -12.096   7.648 129.572  0.00  0.00    +0.000 A 
ATOM      3  C   UNL     1     -10.943   8.121 128.933  0.00  0.00    +0.000 A 
ATOM      4  C   UNL     1     -10.855   8.105 127.531  0.00  0.00    +0.000 A 
ATOM      5  C   UNL     1     -11.858   7.481 126.780  0.00  0.00    +0.000 A 
ATOM      6  C   UNL     1     -12.992   7.009 127.403  0.00  0.00    +0.000 A 
ATOM      7  C   UNL     1     -13.169   7.209 128.773  0.00  0.00    +0.000 A 
ENDBRANCH   1   2
BRANCH   1   8
ATOM      8  C   UNL     1     -11.241   6.071 131.495  0.00  0.00    +0.000 C 
ATOM      9  C   UNL     1     -11.041   4.922 130.474  0.00  0.00    +0.000 C 
BRANCH   8  11
ATOM     10  C   UNL     1      -8.767   6.432 131.417  0.00  0.00    +0.000 C 
ATOM     11  N   UNL     1      -9.990   6.447 132.216  0.00  0.00    +0.000 NA
ATOM     12  H   UNL     1     -10.118   7.418 132.508  0.00  0.00    +0.000 HD
ENDBRANCH   8  11
ENDBRANCH   1   8
BRANCH   1  13
ATOM     13  O   UNL     1     -13.450   7.217 131.526  0.00  0.00    +0.000 OA
ATOM     14  H   UNL     1     -13.606   7.965 132.125  0.00  0.00    +0.000 HD
ENDBRANCH   1  13
TORSDOF 4
ENDMDL
MODEL 2
REMARK VINA RESULT:      -5.6      1.427      2.249
REMARK  Name = Ephedrine
REMARK  6 active torsions:
REMARK  status: ('A' for Active; 'I' for Inactive)
REMARK    1  A    between atoms: C_1  and  N_2
REMARK    2  A    between atoms: N_2  and  C_3
REMARK    3  A    between atoms: C_3  and  C_4
REMARK    4  A    between atoms: C_3  and  C_5
REMARK    5  A    between atoms: C_5  and  O_6
REMARK    6  A    between atoms: C_5  and  C_7
REMARK                            x       y       z     vdW  Elec       q    Type
REMARK                         _______ _______ _______ _____ _____    ______ ____
ROOT
ATOM      1  C   UNL     1     -11.415   6.897 131.050  0.00  0.00    +0.000 C 
ENDROOT
BRANCH   1   2
ATOM      2  C   UNL     1     -12.075   7.333 129.747  0.00  0.00    +0.000 A 
ATOM      3  C   UNL     1     -12.810   6.437 128.961  0.00  0.00    +0.000 A 
ATOM      4  C   UNL     1     -13.662   6.918 127.953  0.00  0.00    +0.000 A 
ATOM      5  C   UNL     1     -13.887   8.294 127.832  0.00  0.00    +0.000 A 
ATOM      6  C   UNL     1     -13.171   9.181 128.606  0.00  0.00    +0.000 A 
ATOM      7  C   UNL     1     -12.177   8.709 129.465  0.00  0.00    +0.000 A 
ENDBRANCH   1   2
BRANCH   1   8
ATOM      8  C   UNL     1     -10.149   5.950 130.885  0.00  0.00    +0.000 C 
ATOM      9  C   UNL     1      -8.741   6.542 131.145  0.00  0.00    +0.000 C 
BRANCH   8  11
ATOM     10  C   UNL     1     -10.428   3.486 130.552  0.00  0.00    +0.000 C 
ATOM     11  N   UNL     1     -10.347   4.601 131.493  0.00  0.00    +0.000 NA
ATOM     12  H   UNL     1      -9.515   4.426 132.059  0.00  0.00    +0.000 HD
ENDBRANCH   8  11
ENDBRANCH   1   8
BRANCH   1  13
ATOM     13  O   UNL     1     -12.382   6.320 131.919  0.00  0.00    +0.000 OA
ATOM     14  H   UNL     1     -12.505   5.400 131.635  0.00  0.00    +0.000 HD
ENDBRANCH   1  13
TORSDOF 4
ENDMDL
MODEL 3
REMARK VINA RESULT:      -5.5      1.639      2.211
REMARK  Name = Ephedrine
REMARK  6 active torsions:
REMARK  status: ('A' for Active; 'I' for Inactive)
REMARK    1  A    between atoms: C_1  and  N_2
REMARK    2  A    between atoms: N_2  and  C_3
REMARK    3  A    between atoms: C_3  and  C_4
REMARK    4  A    between atoms: C_3  and  C_5
REMARK    5  A    between atoms: C_5  and  O_6
REMARK    6  A    between atoms: C_5  and  C_7
REMARK                            x       y       z     vdW  Elec       q    Type
REMARK                         _______ _______ _______ _____ _____    ______ ____
ROOT
ATOM      1  C   UNL     1     -11.532   5.661 130.773  0.00  0.00    +0.000 C 
ENDROOT
BRANCH   1   2
ATOM      2  C   UNL     1     -12.315   6.786 130.105  0.00  0.00    +0.000 A 
ATOM      3  C   UNL     1     -12.556   8.000 130.759  0.00  0.00    +0.000 A 
ATOM      4  C   UNL     1     -12.990   9.120 130.030  0.00  0.00    +0.000 A 
ATOM      5  C   UNL     1     -13.040   9.061 128.631  0.00  0.00    +0.000 A 
ATOM      6  C   UNL     1     -12.799   7.871 127.983  0.00  0.00    +0.000 A 
ATOM      7  C   UNL     1     -12.567   6.709 128.721  0.00  0.00    +0.000 A 
ENDBRANCH   1   2
BRANCH   1   8
ATOM      8  C   UNL     1     -10.075   6.054 131.273  0.00  0.00    +0.000 C 
ATOM      9  C   UNL     1      -9.265   7.091 130.455  0.00  0.00    +0.000 C 
BRANCH   8  11
ATOM     10  C   UNL     1      -8.776   5.835 133.400  0.00  0.00    +0.000 C 
ATOM     11  N   UNL     1     -10.006   6.278 132.747  0.00  0.00    +0.000 NA
ATOM     12  H   UNL     1     -10.039   7.290 132.877  0.00  0.00    +0.000 HD
ENDBRANCH   8  11
ENDBRANCH   1   8
BRANCH   1  13
ATOM     13  O   UNL     1     -11.497   4.519 129.926  0.00  0.00    +0.000 OA
ATOM     14  H   UNL     1     -11.975   4.754 129.114  0.00  0.00    +0.000 HD
ENDBRANCH   1  13
TORSDOF 4
ENDMDL
MODEL 4
REMARK VINA RESULT:      -5.3      1.562      2.371
REMARK  Name = Ephedrine
REMARK  6 active torsions:
REMARK  status: ('A' for Active; 'I' for Inactive)
REMARK    1  A    between atoms: C_1  and  N_2
REMARK    2  A    between atoms: N_2  and  C_3
REMARK    3  A    between atoms: C_3  and  C_4
REMARK    4  A    between atoms: C_3  and  C_5
REMARK    5  A    between atoms: C_5  and  O_6
REMARK    6  A    between atoms: C_5  and  C_7
REMARK                            x       y       z     vdW  Elec       q    Type
REMARK                         _______ _______ _______ _____ _____    ______ ____
ROOT
ATOM      1  C   UNL     1     -10.840   6.495 131.469  0.00  0.00    +0.000 C 
ENDROOT
BRANCH   1   2
ATOM      2  C   UNL     1     -11.041   6.827 129.995  0.00  0.00    +0.000 A 
ATOM      3  C   UNL     1     -12.229   6.506 129.326  0.00  0.00    +0.000 A 
ATOM      4  C   UNL     1     -12.519   7.091 128.083  0.00  0.00    +0.000 A 
ATOM      5  C   UNL     1     -11.693   8.106 127.584  0.00  0.00    +0.000 A 
ATOM      6  C   UNL     1     -10.527   8.431 128.240  0.00  0.00    +0.000 A 
ATOM      7  C   UNL     1     -10.137   7.706 129.367  0.00  0.00    +0.000 A 
ENDBRANCH   1   2
BRANCH   1   8
ATOM      8  C   UNL     1      -9.634   5.508 131.783  0.00  0.00    +0.000 C 
ATOM      9  C   UNL     1      -8.278   6.112 132.228  0.00  0.00    +0.000 C 
BRANCH   8  11
ATOM     10  C   UNL     1      -9.148   3.948 133.678  0.00  0.00    +0.000 C 
ATOM     11  N   UNL     1     -10.047   4.321 132.588  0.00  0.00    +0.000 NA
ATOM     12  H   UNL     1     -10.929   4.580 133.033  0.00  0.00    +0.000 HD
ENDBRANCH   8  11
ENDBRANCH   1   8
BRANCH   1  13
ATOM     13  O   UNL     1     -12.056   6.021 132.035  0.00  0.00    +0.000 OA
ATOM     14  H   UNL     1     -12.394   6.726 132.610  0.00  0.00    +0.000 HD
ENDBRANCH   1  13
TORSDOF 4
ENDMDL
MODEL 5
REMARK VINA RESULT:      -5.1      9.437     10.496
REMARK  Name = Ephedrine
REMARK  6 active torsions:
REMARK  status: ('A' for Active; 'I' for Inactive)
REMARK    1  A    between atoms: C_1  and  N_2
REMARK    2  A    between atoms: N_2  and  C_3
REMARK    3  A    between atoms: C_3  and  C_4
REMARK    4  A    between atoms: C_3  and  C_5
REMARK    5  A    between atoms: C_5  and  O_6
REMARK    6  A    between atoms: C_5  and  C_7
REMARK                            x       y       z     vdW  Elec       q    Type
REMARK                         _______ _______ _______ _____ _____    ______ ____
ROOT
ATOM      1  C   UNL     1      -9.477   0.371 123.150  0.00  0.00    +0.000 C 
ENDROOT
BRANCH   1   2
ATOM      2  C   UNL     1      -8.628  -0.895 123.196  0.00  0.00    +0.000 A 
ATOM      3  C   UNL     1      -7.244  -0.843 123.404  0.00  0.00    +0.000 A 
ATOM      4  C   UNL     1      -6.539  -2.006 123.757  0.00  0.00    +0.000 A 
ATOM      5  C   UNL     1      -7.241  -3.182 124.045  0.00  0.00    +0.000 A 
ATOM      6  C   UNL     1      -8.603  -3.238 123.848  0.00  0.00    +0.000 A 
ATOM      7  C   UNL     1      -9.273  -2.142 123.302  0.00  0.00    +0.000 A 
ENDBRANCH   1   2
BRANCH   1   8
ATOM      8  C   UNL     1      -9.808   1.016 124.565  0.00  0.00    +0.000 C 
ATOM      9  C   UNL     1      -9.373   0.260 125.845  0.00  0.00    +0.000 C 
BRANCH   8  11
ATOM     10  C   UNL     1      -8.401   2.940 123.804  0.00  0.00    +0.000 C 
ATOM     11  N   UNL     1      -9.526   2.481 124.616  0.00  0.00    +0.000 NA
ATOM     12  H   UNL     1     -10.352   2.938 124.228  0.00  0.00    +0.000 HD
ENDBRANCH   8  11
ENDBRANCH   1   8
BRANCH   1  13
ATOM     13  O   UNL     1     -10.661   0.138 122.398  0.00  0.00    +0.000 OA
ATOM     14  H   UNL     1     -11.379  -0.003 123.036  0.00  0.00    +0.000 HD
ENDBRANCH   1  13
TORSDOF 4
ENDMDL
MODEL 6
REMARK VINA RESULT:      -5.0     10.679     11.914
REMARK  Name = Ephedrine
REMARK  6 active torsions:
REMARK  status: ('A' for Active; 'I' for Inactive)
REMARK    1  A    between atoms: C_1  and  N_2
REMARK    2  A    between atoms: N_2  and  C_3
REMARK    3  A    between atoms: C_3  and  C_4
REMARK    4  A    between atoms: C_3  and  C_5
REMARK    5  A    between atoms: C_5  and  O_6
REMARK    6  A    between atoms: C_5  and  C_7
REMARK                            x       y       z     vdW  Elec       q    Type
REMARK                         _______ _______ _______ _____ _____    ______ ____
ROOT
ATOM      1  C   UNL     1      -8.949  -1.801 123.020  0.00  0.00    +0.000 C 
ENDROOT
BRANCH   1   2
ATOM      2  C   UNL     1      -7.598  -2.315 123.504  0.00  0.00    +0.000 A 
ATOM      3  C   UNL     1      -7.492  -3.463 124.299  0.00  0.00    +0.000 A 
ATOM      4  C   UNL     1      -6.248  -4.094 124.466  0.00  0.00    +0.000 A 
ATOM      5  C   UNL     1      -5.145  -3.662 123.719  0.00  0.00    +0.000 A 
ATOM      6  C   UNL     1      -5.244  -2.537 122.931  0.00  0.00    +0.000 A 
ATOM      7  C   UNL     1      -6.425  -1.793 122.925  0.00  0.00    +0.000 A 
ENDBRANCH   1   2
BRANCH   1   8
ATOM      8  C   UNL     1      -9.301  -0.312 123.452  0.00  0.00    +0.000 C 
ATOM      9  C   UNL     1     -10.166   0.551 122.499  0.00  0.00    +0.000 C 
BRANCH   8  11
ATOM     10  C   UNL     1      -9.093   0.893 125.634  0.00  0.00    +0.000 C 
ATOM     11  N   UNL     1      -9.705  -0.201 124.884  0.00  0.00    +0.000 NA
ATOM     12  H   UNL     1     -10.707  -0.005 124.876  0.00  0.00    +0.000 HD
ENDBRANCH   8  11
ENDBRANCH   1   8
BRANCH   1  13
ATOM     13  O   UNL     1      -9.980  -2.706 123.396  0.00  0.00    +0.000 OA
ATOM     14  H   UNL     1     -10.824  -2.251 123.246  0.00  0.00    +0.000 HD
ENDBRANCH   1  13
TORSDOF 4
ENDMDL
MODEL 7
REMARK VINA RESULT:      -5.0      2.269      2.569
REMARK  Name = Ephedrine
REMARK  6 active torsions:
REMARK  status: ('A' for Active; 'I' for Inactive)
REMARK    1  A    between atoms: C_1  and  N_2
REMARK    2  A    between atoms: N_2  and  C_3
REMARK    3  A    between atoms: C_3  and  C_4
REMARK    4  A    between atoms: C_3  and  C_5
REMARK    5  A    between atoms: C_5  and  O_6
REMARK    6  A    between atoms: C_5  and  C_7
REMARK                            x       y       z     vdW  Elec       q    Type
REMARK                         _______ _______ _______ _____ _____    ______ ____
ROOT
ATOM      1  C   UNL     1     -10.068   6.037 129.503  0.00  0.00    +0.000 C 
ENDROOT
BRANCH   1   2
ATOM      2  C   UNL     1     -11.330   6.876 129.335  0.00  0.00    +0.000 A 
ATOM      3  C   UNL     1     -11.272   8.270 129.205  0.00  0.00    +0.000 A 
ATOM      4  C   UNL     1     -12.390   8.982 128.739  0.00  0.00    +0.000 A 
ATOM      5  C   UNL     1     -13.509   8.286 128.266  0.00  0.00    +0.000 A 
ATOM      6  C   UNL     1     -13.569   6.915 128.386  0.00  0.00    +0.000 A 
ATOM      7  C   UNL     1     -12.543   6.227 129.036  0.00  0.00    +0.000 A 
ENDBRANCH   1   2
BRANCH   1   8
ATOM      8  C   UNL     1      -9.043   6.565 130.596  0.00  0.00    +0.000 C 
ATOM      9  C   UNL     1      -9.344   6.288 132.091  0.00  0.00    +0.000 C 
BRANCH   8  11
ATOM     10  C   UNL     1      -6.620   6.906 131.117  0.00  0.00    +0.000 C 
ATOM     11  N   UNL     1      -7.618   6.323 130.224  0.00  0.00    +0.000 NA
ATOM     12  H   UNL     1      -7.483   5.312 130.281  0.00  0.00    +0.000 HD
ENDBRANCH   8  11
ENDBRANCH   1   8
BRANCH   1  13
ATOM     13  O   UNL     1      -9.432   5.853 128.244  0.00  0.00    +0.000 OA
ATOM     14  H   UNL     1      -9.632   6.637 127.708  0.00  0.00    +0.000 HD
ENDBRANCH   1  13
TORSDOF 4
ENDMDL
MODEL 8
REMARK VINA RESULT:      -5.0      1.950      2.522
REMARK  Name = Ephedrine
REMARK  6 active torsions:
REMARK  status: ('A' for Active; 'I' for Inactive)
REMARK    1  A    between atoms: C_1  and  N_2
REMARK    2  A    between atoms: N_2  and  C_3
REMARK    3  A    between atoms: C_3  and  C_4
REMARK    4  A    between atoms: C_3  and  C_5
REMARK    5  A    between atoms: C_5  and  O_6
REMARK    6  A    between atoms: C_5  and  C_7
REMARK                            x       y       z     vdW  Elec       q    Type
REMARK                         _______ _______ _______ _____ _____    ______ ____
ROOT
ATOM      1  C   UNL     1     -10.201   5.875 131.364  0.00  0.00    +0.000 C 
ENDROOT
BRANCH   1   2
ATOM      2  C   UNL     1     -10.774   7.014 130.528  0.00  0.00    +0.000 A 
ATOM      3  C   UNL     1     -10.057   7.575 129.465  0.00  0.00    +0.000 A 
ATOM      4  C   UNL     1     -10.712   8.386 128.522  0.00  0.00    +0.000 A 
ATOM      5  C   UNL     1     -12.106   8.512 128.564  0.00  0.00    +0.000 A 
ATOM      6  C   UNL     1     -12.817   7.957 129.605  0.00  0.00    +0.000 A 
ATOM      7  C   UNL     1     -12.142   7.324 130.650  0.00  0.00    +0.000 A 
ENDBRANCH   1   2
BRANCH   1   8
ATOM      8  C   UNL     1     -10.033   4.491 130.600  0.00  0.00    +0.000 C 
ATOM      9  C   UNL     1      -8.639   4.122 130.033  0.00  0.00    +0.000 C 
BRANCH   8  11
ATOM     10  C   UNL     1      -9.835   2.280 131.753  0.00  0.00    +0.000 C 
ATOM     11  N   UNL     1     -10.710   3.357 131.295  0.00  0.00    +0.000 NA
ATOM     12  H   UNL     1     -11.126   3.755 132.138  0.00  0.00    +0.000 HD
ENDBRANCH   8  11
ENDBRANCH   1   8
BRANCH   1  13
ATOM     13  O   UNL     1     -10.956   5.717 132.560  0.00  0.00    +0.000 OA
ATOM     14  H   UNL     1     -10.987   6.586 132.991  0.00  0.00    +0.000 HD
ENDBRANCH   1  13
TORSDOF 4
ENDMDL
MODEL 9
REMARK VINA RESULT:      -4.9      9.793     11.482
REMARK  Name = Ephedrine
REMARK  6 active torsions:
REMARK  status: ('A' for Active; 'I' for Inactive)
REMARK    1  A    between atoms: C_1  and  N_2
REMARK    2  A    between atoms: N_2  and  C_3
REMARK    3  A    between atoms: C_3  and  C_4
REMARK    4  A    between atoms: C_3  and  C_5
REMARK    5  A    between atoms: C_5  and  O_6
REMARK    6  A    between atoms: C_5  and  C_7
REMARK                            x       y       z     vdW  Elec       q    Type
REMARK                         _______ _______ _______ _____ _____    ______ ____
ROOT
ATOM      1  C   UNL     1      -7.570  -2.280 125.039  0.00  0.00    +0.000 C 
ENDROOT
BRANCH   1   2
ATOM      2  C   UNL     1      -8.096  -2.498 126.453  0.00  0.00    +0.000 A 
ATOM      3  C   UNL     1      -8.784  -3.665 126.808  0.00  0.00    +0.000 A 
ATOM      4  C   UNL     1      -8.977  -3.987 128.162  0.00  0.00    +0.000 A 
ATOM      5  C   UNL     1      -8.354  -3.218 129.153  0.00  0.00    +0.000 A 
ATOM      6  C   UNL     1      -7.672  -2.072 128.810  0.00  0.00    +0.000 A 
ATOM      7  C   UNL     1      -7.654  -1.643 127.481  0.00  0.00    +0.000 A 
ENDBRANCH   1   2
BRANCH   1   8
ATOM      8  C   UNL     1      -8.677  -1.944 123.948  0.00  0.00    +0.000 C 
ATOM      9  C   UNL     1      -9.464  -3.114 123.306  0.00  0.00    +0.000 C 
BRANCH   8  11
ATOM     10  C   UNL     1      -8.880   0.516 124.353  0.00  0.00    +0.000 C 
ATOM     11  N   UNL     1      -9.539  -0.787 124.331  0.00  0.00    +0.000 NA
ATOM     12  H   UNL     1     -10.256  -0.723 123.606  0.00  0.00    +0.000 HD
ENDBRANCH   8  11
ENDBRANCH   1   8
BRANCH   1  13
ATOM     13  O   UNL     1      -6.769  -3.385 124.639  0.00  0.00    +0.000 OA
ATOM     14  H   UNL     1      -5.952  -3.346 125.162  0.00  0.00    +0.000 HD
ENDBRANCH   1  13
TORSDOF 4
ENDMDL
