MODEL 1
REMARK VINA RESULT:      -9.6      0.000      0.000
REMARK  Name = Epicriptine
REMARK  11 active torsions:
REMARK  status: ('A' for Active; 'I' for Inactive)
REMARK    1  A    between atoms: C_9  and  C_11
REMARK    2  A    between atoms: C_11  and  C_12
REMARK    3  A    between atoms: C_11  and  C_13
REMARK    4  A    between atoms: C_13  and  C_14
REMARK    5  A    between atoms: C_18  and  N_19
REMARK    6  A    between atoms: C_18  and  C_44
REMARK    7  A    between atoms: C_20  and  C_22
REMARK    8  A    between atoms: N_24  and  C_25
REMARK    9  A    between atoms: C_42  and  O_43
REMARK   10  A    between atoms: C_44  and  C_45
REMARK   11  A    between atoms: C_44  and  C_46
REMARK                            x       y       z     vdW  Elec       q    Type
REMARK                         _______ _______ _______ _____ _____    ______ ____
ROOT
ATOM      1  C   UNL     1      -4.092   5.921 131.754  0.00  0.00    +0.000 C 
ATOM      2  C   UNL     1      -3.007   6.999 132.037  0.00  0.00    +0.000 C 
ATOM      3  C   UNL     1      -3.045   7.314 133.557  0.00  0.00    +0.000 C 
ATOM      4  C   UNL     1      -4.036   6.356 134.175  0.00  0.00    +0.000 C 
ATOM      5  N   UNL     1      -4.774   5.834 133.047  0.00  0.00    +0.000 N 
ATOM      6  C   UNL     1      -6.103   5.553 133.064  0.00  0.00    +0.000 C 
ATOM      7  O   UNL     1      -6.865   5.943 133.938  0.00  0.00    +0.000 OA
ATOM      8  C   UNL     1      -6.525   4.921 131.740  0.00  0.00    +0.000 C 
ATOM      9  N   UNL     1      -5.299   4.528 130.744  0.00  0.00    +0.000 N 
ATOM     10  C   UNL     1      -5.226   3.778 129.536  0.00  0.00    +0.000 C 
ATOM     11  O   UNL     1      -4.165   3.491 128.991  0.00  0.00    +0.000 OA
ATOM     12  C   UNL     1      -6.574   3.562 128.941  0.00  0.00    +0.000 C 
ATOM     13  O   UNL     1      -6.320   5.292 129.325  0.00  0.00    +0.000 OA
ATOM     14  C   UNL     1      -5.049   5.781 130.208  0.00  0.00    +0.000 C 
ENDROOT
BRANCH  12  15
ATOM     15  N   UNL     1      -7.425   3.420 127.701  0.00  0.00    +0.000 N 
ATOM     16  C   UNL     1      -6.668   3.605 126.528  0.00  0.00    +0.000 C 
ATOM     17  O   UNL     1      -6.405   4.795 126.332  0.00  0.00    +0.000 OA
ATOM     18  H   UNL     1      -7.928   2.528 127.744  0.00  0.00    +0.000 HD
BRANCH  16  19
ATOM     19  C   UNL     1      -6.030   2.495 125.443  0.00  0.00    +0.000 C 
ATOM     20  C   UNL     1      -6.045   1.062 126.138  0.00  0.00    +0.000 C 
ATOM     21  N   UNL     1      -5.667  -0.283 125.096  0.00  0.00    +0.000 NA
ATOM     22  C   UNL     1      -5.598  -1.603 125.744  0.00  0.00    +0.000 C 
ATOM     23  C   UNL     1      -6.653  -0.656 123.889  0.00  0.00    +0.000 C 
ATOM     24  C   UNL     1      -8.336  -0.805 123.131  0.00  0.00    +0.000 C 
ATOM     25  C   UNL     1      -8.987  -1.802 123.818  0.00  0.00    +0.000 A 
ATOM     26  C   UNL     1      -9.568  -3.002 123.393  0.00  0.00    +0.000 A 
ATOM     27  N   UNL     1      -9.657  -3.708 124.539  0.00  0.00    +0.000 N 
ATOM     28  C   UNL     1      -9.180  -3.005 125.641  0.00  0.00    +0.000 A 
ATOM     29  C   UNL     1      -8.878  -3.495 126.900  0.00  0.00    +0.000 A 
ATOM     30  C   UNL     1      -8.237  -2.555 127.696  0.00  0.00    +0.000 A 
ATOM     31  C   UNL     1      -7.917  -1.178 127.170  0.00  0.00    +0.000 A 
ATOM     32  C   UNL     1      -8.244  -0.586 125.745  0.00  0.00    +0.000 A 
ATOM     33  C   UNL     1      -8.923  -1.709 125.173  0.00  0.00    +0.000 A 
ATOM     34  C   UNL     1      -7.321   0.490 124.458  0.00  0.00    +0.000 C 
ATOM     35  C   UNL     1      -6.698   1.987 124.198  0.00  0.00    +0.000 C 
ATOM     36  H   UNL     1      -9.886  -4.697 124.554  0.00  0.00    +0.000 HD
ENDBRANCH  16  19
ENDBRANCH  12  15
BRANCH  12  37
ATOM     37  C   UNL     1      -7.144   1.985 129.618  0.00  0.00    +0.000 C 
ATOM     38  C   UNL     1      -6.570   0.591 130.183  0.00  0.00    +0.000 C 
ATOM     39  C   UNL     1      -8.592   1.876 129.186  0.00  0.00    +0.000 C 
ENDBRANCH  12  37
BRANCH   8  40
ATOM     40  C   UNL     1      -7.505   3.827 131.658  0.00  0.00    +0.000 C 
ATOM     41  C   UNL     1      -8.884   4.573 131.402  0.00  0.00    +0.000 C 
BRANCH  40  42
ATOM     42  C   UNL     1      -7.629   2.749 132.701  0.00  0.00    +0.000 C 
ATOM     43  C   UNL     1      -8.942   2.950 133.392  0.00  0.00    +0.000 C 
ENDBRANCH  40  42
ENDBRANCH   8  40
BRANCH  14  44
ATOM     44  O   UNL     1      -4.000   6.081 129.302  0.00  0.00    +0.000 OA
ATOM     45  H   UNL     1      -4.092   7.020 129.054  0.00  0.00    +0.000 HD
ENDBRANCH  14  44
TORSDOF 6
ENDMDL
MODEL 2
REMARK VINA RESULT:      -9.5      2.242      8.485
REMARK  Name = Epicriptine
REMARK  11 active torsions:
REMARK  status: ('A' for Active; 'I' for Inactive)
REMARK    1  A    between atoms: C_9  and  C_11
REMARK    2  A    between atoms: C_11  and  C_12
REMARK    3  A    between atoms: C_11  and  C_13
REMARK    4  A    between atoms: C_13  and  C_14
REMARK    5  A    between atoms: C_18  and  N_19
REMARK    6  A    between atoms: C_18  and  C_44
REMARK    7  A    between atoms: C_20  and  C_22
REMARK    8  A    between atoms: N_24  and  C_25
REMARK    9  A    between atoms: C_42  and  O_43
REMARK   10  A    between atoms: C_44  and  C_45
REMARK   11  A    between atoms: C_44  and  C_46
REMARK                            x       y       z     vdW  Elec       q    Type
REMARK                         _______ _______ _______ _____ _____    ______ ____
ROOT
ATOM      1  C   UNL     1      -8.147   2.019 124.148  0.00  0.00    +0.000 C 
ATOM      2  C   UNL     1      -8.627   2.737 122.855  0.00  0.00    +0.000 C 
ATOM      3  C   UNL     1      -9.659   1.808 122.160  0.00  0.00    +0.000 C 
ATOM      4  C   UNL     1      -9.879   0.633 123.083  0.00  0.00    +0.000 C 
ATOM      5  N   UNL     1      -8.773   0.702 124.012  0.00  0.00    +0.000 N 
ATOM      6  C   UNL     1      -8.126  -0.381 124.514  0.00  0.00    +0.000 C 
ATOM      7  O   UNL     1      -8.234  -1.509 124.052  0.00  0.00    +0.000 OA
ATOM      8  C   UNL     1      -7.085   0.058 125.542  0.00  0.00    +0.000 C 
ATOM      9  N   UNL     1      -7.146   1.630 125.955  0.00  0.00    +0.000 N 
ATOM     10  C   UNL     1      -6.512   2.397 126.972  0.00  0.00    +0.000 C 
ATOM     11  O   UNL     1      -6.788   3.572 127.196  0.00  0.00    +0.000 OA
ATOM     12  C   UNL     1      -5.368   1.662 127.581  0.00  0.00    +0.000 C 
ATOM     13  O   UNL     1      -5.246   1.659 125.795  0.00  0.00    +0.000 OA
ATOM     14  C   UNL     1      -6.477   2.164 124.866  0.00  0.00    +0.000 C 
ENDROOT
BRANCH  12  15
ATOM     15  N   UNL     1      -3.991   1.711 128.200  0.00  0.00    +0.000 N 
ATOM     16  C   UNL     1      -3.598   3.032 128.488  0.00  0.00    +0.000 C 
ATOM     17  O   UNL     1      -3.270   3.649 127.470  0.00  0.00    +0.000 OA
ATOM     18  H   UNL     1      -3.966   1.077 129.005  0.00  0.00    +0.000 HD
BRANCH  16  19
ATOM     19  C   UNL     1      -3.580   3.886 129.933  0.00  0.00    +0.000 C 
ATOM     20  C   UNL     1      -4.792   4.919 129.910  0.00  0.00    +0.000 C 
ATOM     21  N   UNL     1      -5.119   5.729 131.418  0.00  0.00    +0.000 NA
ATOM     22  C   UNL     1      -6.183   6.744 131.388  0.00  0.00    +0.000 C 
ATOM     23  C   UNL     1      -5.626   4.883 132.681  0.00  0.00    +0.000 C 
ATOM     24  C   UNL     1      -6.585   3.498 133.451  0.00  0.00    +0.000 C 
ATOM     25  C   UNL     1      -7.915   3.788 133.257  0.00  0.00    +0.000 A 
ATOM     26  C   UNL     1      -8.974   3.953 134.157  0.00  0.00    +0.000 A 
ATOM     27  N   UNL     1      -9.887   4.617 133.419  0.00  0.00    +0.000 N 
ATOM     28  C   UNL     1      -9.454   4.853 132.117  0.00  0.00    +0.000 A 
ATOM     29  C   UNL     1     -10.001   5.714 131.179  0.00  0.00    +0.000 A 
ATOM     30  C   UNL     1      -9.199   5.849 130.053  0.00  0.00    +0.000 A 
ATOM     31  C   UNL     1      -7.880   5.125 129.944  0.00  0.00    +0.000 A 
ATOM     32  C   UNL     1      -7.228   4.140 130.989  0.00  0.00    +0.000 A 
ATOM     33  C   UNL     1      -8.251   4.146 131.990  0.00  0.00    +0.000 A 
ATOM     34  C   UNL     1      -5.470   3.845 131.689  0.00  0.00    +0.000 C 
ATOM     35  C   UNL     1      -3.958   3.350 131.283  0.00  0.00    +0.000 C 
ATOM     36  H   UNL     1     -10.715   5.041 133.826  0.00  0.00    +0.000 HD
ENDBRANCH  16  19
ENDBRANCH  12  15
BRANCH  12  37
ATOM     37  C   UNL     1      -6.068   0.784 128.998  0.00  0.00    +0.000 C 
ATOM     38  C   UNL     1      -7.289   0.878 130.043  0.00  0.00    +0.000 C 
ATOM     39  C   UNL     1      -4.943  -0.093 129.508  0.00  0.00    +0.000 C 
ENDBRANCH  12  37
BRANCH   8  40
ATOM     40  C   UNL     1      -6.822  -0.696 126.778  0.00  0.00    +0.000 C 
ATOM     41  C   UNL     1      -5.622  -1.659 126.385  0.00  0.00    +0.000 C 
BRANCH  40  42
ATOM     42  C   UNL     1      -7.894  -1.413 127.553  0.00  0.00    +0.000 C 
ATOM     43  C   UNL     1      -7.278  -2.655 128.118  0.00  0.00    +0.000 C 
ENDBRANCH  40  42
ENDBRANCH   8  40
BRANCH  14  44
ATOM     44  O   UNL     1      -6.284   3.550 124.632  0.00  0.00    +0.000 OA
ATOM     45  H   UNL     1      -6.864   4.031 125.251  0.00  0.00    +0.000 HD
ENDBRANCH  14  44
TORSDOF 6
ENDMDL
MODEL 3
REMARK VINA RESULT:      -9.0      2.473      4.717
REMARK  Name = Epicriptine
REMARK  11 active torsions:
REMARK  status: ('A' for Active; 'I' for Inactive)
REMARK    1  A    between atoms: C_9  and  C_11
REMARK    2  A    between atoms: C_11  and  C_12
REMARK    3  A    between atoms: C_11  and  C_13
REMARK    4  A    between atoms: C_13  and  C_14
REMARK    5  A    between atoms: C_18  and  N_19
REMARK    6  A    between atoms: C_18  and  C_44
REMARK    7  A    between atoms: C_20  and  C_22
REMARK    8  A    between atoms: N_24  and  C_25
REMARK    9  A    between atoms: C_42  and  O_43
REMARK   10  A    between atoms: C_44  and  C_45
REMARK   11  A    between atoms: C_44  and  C_46
REMARK                            x       y       z     vdW  Elec       q    Type
REMARK                         _______ _______ _______ _____ _____    ______ ____
ROOT
ATOM      1  C   UNL     1      -9.553   4.789 130.407  0.00  0.00    +0.000 C 
ATOM      2  C   UNL     1     -10.963   5.347 130.753  0.00  0.00    +0.000 C 
ATOM      3  C   UNL     1     -10.885   6.896 130.676  0.00  0.00    +0.000 C 
ATOM      4  C   UNL     1      -9.503   7.238 130.171  0.00  0.00    +0.000 C 
ATOM      5  N   UNL     1      -8.753   6.013 130.340  0.00  0.00    +0.000 N 
ATOM      6  C   UNL     1      -7.448   5.959 130.714  0.00  0.00    +0.000 C 
ATOM      7  O   UNL     1      -6.842   6.908 131.192  0.00  0.00    +0.000 OA
ATOM      8  C   UNL     1      -6.953   4.515 130.689  0.00  0.00    +0.000 C 
ATOM      9  N   UNL     1      -7.983   3.446 130.023  0.00  0.00    +0.000 N 
ATOM     10  C   UNL     1      -7.858   2.081 129.639  0.00  0.00    +0.000 C 
ATOM     11  O   UNL     1      -8.736   1.475 129.031  0.00  0.00    +0.000 OA
ATOM     12  C   UNL     1      -6.641   1.455 130.223  0.00  0.00    +0.000 C 
ATOM     13  O   UNL     1      -7.595   2.288 131.488  0.00  0.00    +0.000 OA
ATOM     14  C   UNL     1      -8.831   3.265 131.102  0.00  0.00    +0.000 C 
ENDROOT
BRANCH  12  15
ATOM     15  N   UNL     1      -5.975   0.224 130.795  0.00  0.00    +0.000 N 
ATOM     16  C   UNL     1      -6.844  -0.883 130.797  0.00  0.00    +0.000 C 
ATOM     17  O   UNL     1      -7.691  -0.804 131.692  0.00  0.00    +0.000 OA
ATOM     18  H   UNL     1      -5.090   0.067 130.303  0.00  0.00    +0.000 HD
BRANCH  16  19
ATOM     19  C   UNL     1      -6.950  -2.201 129.763  0.00  0.00    +0.000 C 
ATOM     20  C   UNL     1      -8.075  -1.889 128.680  0.00  0.00    +0.000 C 
ATOM     21  N   UNL     1      -8.173  -3.014 127.352  0.00  0.00    +0.000 NA
ATOM     22  C   UNL     1      -9.261  -2.782 126.389  0.00  0.00    +0.000 C 
ATOM     23  C   UNL     1      -6.954  -3.132 126.319  0.00  0.00    +0.000 C 
ATOM     24  C   UNL     1      -5.557  -2.412 125.340  0.00  0.00    +0.000 C 
ATOM     25  C   UNL     1      -6.123  -1.586 124.398  0.00  0.00    +0.000 A 
ATOM     26  C   UNL     1      -6.049  -1.576 123.001  0.00  0.00    +0.000 A 
ATOM     27  N   UNL     1      -7.116  -0.827 122.655  0.00  0.00    +0.000 N 
ATOM     28  C   UNL     1      -7.829  -0.367 123.757  0.00  0.00    +0.000 A 
ATOM     29  C   UNL     1      -9.095   0.194 123.782  0.00  0.00    +0.000 A 
ATOM     30  C   UNL     1      -9.578   0.357 125.074  0.00  0.00    +0.000 A 
ATOM     31  C   UNL     1      -8.765  -0.075 126.269  0.00  0.00    +0.000 A 
ATOM     32  C   UNL     1      -7.324  -0.715 126.280  0.00  0.00    +0.000 A 
ATOM     33  C   UNL     1      -7.058  -0.722 124.873  0.00  0.00    +0.000 A 
ATOM     34  C   UNL     1      -6.456  -2.131 127.232  0.00  0.00    +0.000 C 
ATOM     35  C   UNL     1      -5.943  -2.594 128.722  0.00  0.00    +0.000 C 
ATOM     36  H   UNL     1      -7.449  -0.760 121.697  0.00  0.00    +0.000 HD
ENDBRANCH  16  19
ENDBRANCH  12  15
BRANCH  12  37
ATOM     37  C   UNL     1      -5.346   1.684 128.982  0.00  0.00    +0.000 C 
ATOM     38  C   UNL     1      -5.159   1.850 127.392  0.00  0.00    +0.000 C 
ATOM     39  C   UNL     1      -4.067   1.247 129.668  0.00  0.00    +0.000 C 
ENDBRANCH  12  37
BRANCH   8  40
ATOM     40  C   UNL     1      -5.604   4.146 130.231  0.00  0.00    +0.000 C 
ATOM     41  C   UNL     1      -4.744   4.126 131.567  0.00  0.00    +0.000 C 
BRANCH  40  42
ATOM     42  C   UNL     1      -4.891   4.849 129.109  0.00  0.00    +0.000 C 
ATOM     43  C   UNL     1      -3.448   4.956 129.497  0.00  0.00    +0.000 C 
ENDBRANCH  40  42
ENDBRANCH   8  40
BRANCH  14  44
ATOM     44  O   UNL     1     -10.006   2.470 131.087  0.00  0.00    +0.000 OA
ATOM     45  H   UNL     1      -9.806   1.650 131.577  0.00  0.00    +0.000 HD
ENDBRANCH  14  44
TORSDOF 6
ENDMDL
MODEL 4
REMARK VINA RESULT:      -8.8      2.370      4.044
REMARK  Name = Epicriptine
REMARK  11 active torsions:
REMARK  status: ('A' for Active; 'I' for Inactive)
REMARK    1  A    between atoms: C_9  and  C_11
REMARK    2  A    between atoms: C_11  and  C_12
REMARK    3  A    between atoms: C_11  and  C_13
REMARK    4  A    between atoms: C_13  and  C_14
REMARK    5  A    between atoms: C_18  and  N_19
REMARK    6  A    between atoms: C_18  and  C_44
REMARK    7  A    between atoms: C_20  and  C_22
REMARK    8  A    between atoms: N_24  and  C_25
REMARK    9  A    between atoms: C_42  and  O_43
REMARK   10  A    between atoms: C_44  and  C_45
REMARK   11  A    between atoms: C_44  and  C_46
REMARK                            x       y       z     vdW  Elec       q    Type
REMARK                         _______ _______ _______ _____ _____    ______ ____
ROOT
ATOM      1  C   UNL     1      -9.718   6.426 129.239  0.00  0.00    +0.000 C 
ATOM      2  C   UNL     1     -10.577   6.921 128.041  0.00  0.00    +0.000 C 
ATOM      3  C   UNL     1     -11.721   7.799 128.616  0.00  0.00    +0.000 C 
ATOM      4  C   UNL     1     -11.470   7.924 130.101  0.00  0.00    +0.000 C 
ATOM      5  N   UNL     1     -10.508   6.883 130.385  0.00  0.00    +0.000 N 
ATOM      6  C   UNL     1     -10.497   6.138 131.521  0.00  0.00    +0.000 C 
ATOM      7  O   UNL     1     -11.435   6.088 132.305  0.00  0.00    +0.000 OA
ATOM      8  C   UNL     1      -9.284   5.210 131.531  0.00  0.00    +0.000 C 
ATOM      9  N   UNL     1      -8.202   5.479 130.346  0.00  0.00    +0.000 N 
ATOM     10  C   UNL     1      -6.888   4.993 130.096  0.00  0.00    +0.000 C 
ATOM     11  O   UNL     1      -6.179   5.419 129.189  0.00  0.00    +0.000 OA
ATOM     12  C   UNL     1      -6.575   3.803 130.934  0.00  0.00    +0.000 C 
ATOM     13  O   UNL     1      -8.139   3.590 130.091  0.00  0.00    +0.000 OA
ATOM     14  C   UNL     1      -8.850   4.823 129.312  0.00  0.00    +0.000 C 
ENDROOT
BRANCH  12  15
ATOM     15  N   UNL     1      -5.867   2.475 131.069  0.00  0.00    +0.000 N 
ATOM     16  C   UNL     1      -6.215   1.593 130.028  0.00  0.00    +0.000 C 
ATOM     17  O   UNL     1      -7.345   1.120 130.183  0.00  0.00    +0.000 OA
ATOM     18  H   UNL     1      -4.860   2.642 131.162  0.00  0.00    +0.000 HD
BRANCH  16  19
ATOM     19  C   UNL     1      -5.396   1.164 128.628  0.00  0.00    +0.000 C 
ATOM     20  C   UNL     1      -5.804  -0.330 128.256  0.00  0.00    +0.000 C 
ATOM     21  N   UNL     1      -5.270  -0.890 126.694  0.00  0.00    +0.000 NA
ATOM     22  C   UNL     1      -5.570  -2.294 126.374  0.00  0.00    +0.000 C 
ATOM     23  C   UNL     1      -5.850  -0.208 125.365  0.00  0.00    +0.000 C 
ATOM     24  C   UNL     1      -7.202   0.596 124.389  0.00  0.00    +0.000 C 
ATOM     25  C   UNL     1      -8.154  -0.372 124.168  0.00  0.00    +0.000 A 
ATOM     26  C   UNL     1      -8.703  -0.888 122.990  0.00  0.00    +0.000 A 
ATOM     27  N   UNL     1      -9.240  -2.055 123.401  0.00  0.00    +0.000 N 
ATOM     28  C   UNL     1      -9.065  -2.274 124.764  0.00  0.00    +0.000 A 
ATOM     29  C   UNL     1      -9.246  -3.453 125.469  0.00  0.00    +0.000 A 
ATOM     30  C   UNL     1      -8.791  -3.364 126.778  0.00  0.00    +0.000 A 
ATOM     31  C   UNL     1      -8.158  -2.097 127.297  0.00  0.00    +0.000 A 
ATOM     32  C   UNL     1      -7.935  -0.739 126.526  0.00  0.00    +0.000 A 
ATOM     33  C   UNL     1      -8.520  -1.085 125.266  0.00  0.00    +0.000 A 
ATOM     34  C   UNL     1      -6.526   0.550 126.391  0.00  0.00    +0.000 C 
ATOM     35  C   UNL     1      -5.681   1.671 127.244  0.00  0.00    +0.000 C 
ATOM     36  H   UNL     1      -9.576  -2.760 122.753  0.00  0.00    +0.000 HD
ENDBRANCH  16  19
ENDBRANCH  12  15
BRANCH  12  37
ATOM     37  C   UNL     1      -5.799   4.465 132.427  0.00  0.00    +0.000 C 
ATOM     38  C   UNL     1      -4.973   5.749 132.939  0.00  0.00    +0.000 C 
ATOM     39  C   UNL     1      -5.616   3.266 133.336  0.00  0.00    +0.000 C 
ENDBRANCH  12  37
BRANCH   8  40
ATOM     40  C   UNL     1      -8.514   4.923 132.751  0.00  0.00    +0.000 C 
ATOM     41  C   UNL     1      -9.173   3.590 133.309  0.00  0.00    +0.000 C 
BRANCH  40  42
ATOM     42  C   UNL     1      -8.279   5.937 133.838  0.00  0.00    +0.000 C 
ATOM     43  C   UNL     1      -8.105   5.182 135.119  0.00  0.00    +0.000 C 
ENDBRANCH  40  42
ENDBRANCH   8  40
BRANCH  14  44
ATOM     44  O   UNL     1      -8.400   4.785 127.967  0.00  0.00    +0.000 OA
ATOM     45  H   UNL     1      -8.465   5.693 127.615  0.00  0.00    +0.000 HD
ENDBRANCH  14  44
TORSDOF 6
ENDMDL
MODEL 5
REMARK VINA RESULT:      -8.7      4.330      9.358
REMARK  Name = Epicriptine
REMARK  11 active torsions:
REMARK  status: ('A' for Active; 'I' for Inactive)
REMARK    1  A    between atoms: C_9  and  C_11
REMARK    2  A    between atoms: C_11  and  C_12
REMARK    3  A    between atoms: C_11  and  C_13
REMARK    4  A    between atoms: C_13  and  C_14
REMARK    5  A    between atoms: C_18  and  N_19
REMARK    6  A    between atoms: C_18  and  C_44
REMARK    7  A    between atoms: C_20  and  C_22
REMARK    8  A    between atoms: N_24  and  C_25
REMARK    9  A    between atoms: C_42  and  O_43
REMARK   10  A    between atoms: C_44  and  C_45
REMARK   11  A    between atoms: C_44  and  C_46
REMARK                            x       y       z     vdW  Elec       q    Type
REMARK                         _______ _______ _______ _____ _____    ______ ____
ROOT
ATOM      1  C   UNL     1      -5.845  -3.696 133.740  0.00  0.00    +0.000 C 
ATOM      2  C   UNL     1      -5.884  -4.582 135.017  0.00  0.00    +0.000 C 
ATOM      3  C   UNL     1      -5.120  -5.896 134.698  0.00  0.00    +0.000 C 
ATOM      4  C   UNL     1      -4.536  -5.735 133.315  0.00  0.00    +0.000 C 
ATOM      5  N   UNL     1      -5.246  -4.605 132.760  0.00  0.00    +0.000 N 
ATOM      6  C   UNL     1      -5.623  -4.500 131.460  0.00  0.00    +0.000 C 
ATOM      7  O   UNL     1      -5.632  -5.443 130.680  0.00  0.00    +0.000 OA
ATOM      8  C   UNL     1      -6.256  -3.134 131.203  0.00  0.00    +0.000 C 
ATOM      9  N   UNL     1      -6.126  -2.074 132.432  0.00  0.00    +0.000 N 
ATOM     10  C   UNL     1      -6.398  -0.683 132.552  0.00  0.00    +0.000 C 
ATOM     11  O   UNL     1      -6.115  -0.030 133.552  0.00  0.00    +0.000 OA
ATOM     12  C   UNL     1      -7.219  -0.183 131.415  0.00  0.00    +0.000 C 
ATOM     13  O   UNL     1      -7.961  -1.642 132.140  0.00  0.00    +0.000 OA
ATOM     14  C   UNL     1      -7.160  -2.541 133.227  0.00  0.00    +0.000 C 
ENDROOT
BRANCH  12  15
ATOM     15  N   UNL     1      -8.291   0.759 130.918  0.00  0.00    +0.000 N 
ATOM     16  C   UNL     1      -9.047   1.291 131.979  0.00  0.00    +0.000 C 
ATOM     17  O   UNL     1      -9.844   0.467 132.437  0.00  0.00    +0.000 OA
ATOM     18  H   UNL     1      -7.859   1.463 130.311  0.00  0.00    +0.000 HD
BRANCH  16  19
ATOM     19  C   UNL     1      -8.980   2.787 132.737  0.00  0.00    +0.000 C 
ATOM     20  C   UNL     1      -7.576   2.901 133.480  0.00  0.00    +0.000 C 
ATOM     21  N   UNL     1      -7.187   4.476 134.116  0.00  0.00    +0.000 NA
ATOM     22  C   UNL     1      -5.930   4.574 134.875  0.00  0.00    +0.000 C 
ATOM     23  C   UNL     1      -6.962   5.706 133.113  0.00  0.00    +0.000 C 
ATOM     24  C   UNL     1      -6.379   6.433 131.513  0.00  0.00    +0.000 C 
ATOM     25  C   UNL     1      -5.008   6.334 131.515  0.00  0.00    +0.000 A 
ATOM     26  C   UNL     1      -4.003   7.299 131.396  0.00  0.00    +0.000 A 
ATOM     27  N   UNL     1      -2.920   6.660 131.883  0.00  0.00    +0.000 N 
ATOM     28  C   UNL     1      -3.200   5.355 132.278  0.00  0.00    +0.000 A 
ATOM     29  C   UNL     1      -2.419   4.510 133.047  0.00  0.00    +0.000 A 
ATOM     30  C   UNL     1      -3.093   3.352 133.415  0.00  0.00    +0.000 A 
ATOM     31  C   UNL     1      -4.526   3.121 133.003  0.00  0.00    +0.000 A 
ATOM     32  C   UNL     1      -5.445   4.059 132.130  0.00  0.00    +0.000 A 
ATOM     33  C   UNL     1      -4.516   5.114 131.858  0.00  0.00    +0.000 A 
ATOM     34  C   UNL     1      -7.269   4.639 132.190  0.00  0.00    +0.000 C 
ATOM     35  C   UNL     1      -8.821   4.117 132.060  0.00  0.00    +0.000 C 
ATOM     36  H   UNL     1      -2.050   7.140 132.093  0.00  0.00    +0.000 HD
ENDBRANCH  16  19
ENDBRANCH  12  15
BRANCH  12  37
ATOM     37  C   UNL     1      -6.025   0.389 130.183  0.00  0.00    +0.000 C 
ATOM     38  C   UNL     1      -4.518   0.945 130.072  0.00  0.00    +0.000 C 
ATOM     39  C   UNL     1      -6.857   0.743 128.967  0.00  0.00    +0.000 C 
ENDBRANCH  12  37
BRANCH   8  40
ATOM     40  C   UNL     1      -6.032  -2.374 129.963  0.00  0.00    +0.000 C 
ATOM     41  C   UNL     1      -7.269  -2.770 129.049  0.00  0.00    +0.000 C 
BRANCH  40  42
ATOM     42  C   UNL     1      -4.734  -2.399 129.202  0.00  0.00    +0.000 C 
ATOM     43  C   UNL     1      -5.073  -2.336 127.745  0.00  0.00    +0.000 C 
ENDBRANCH  40  42
ENDBRANCH   8  40
BRANCH  14  44
ATOM     44  O   UNL     1      -7.488  -2.037 134.511  0.00  0.00    +0.000 OA
ATOM     45  H   UNL     1      -8.074  -2.690 134.937  0.00  0.00    +0.000 HD
ENDBRANCH  14  44
TORSDOF 6
ENDMDL
MODEL 6
REMARK VINA RESULT:      -8.7      3.649      5.594
REMARK  Name = Epicriptine
REMARK  11 active torsions:
REMARK  status: ('A' for Active; 'I' for Inactive)
REMARK    1  A    between atoms: C_9  and  C_11
REMARK    2  A    between atoms: C_11  and  C_12
REMARK    3  A    between atoms: C_11  and  C_13
REMARK    4  A    between atoms: C_13  and  C_14
REMARK    5  A    between atoms: C_18  and  N_19
REMARK    6  A    between atoms: C_18  and  C_44
REMARK    7  A    between atoms: C_20  and  C_22
REMARK    8  A    between atoms: N_24  and  C_25
REMARK    9  A    between atoms: C_42  and  O_43
REMARK   10  A    between atoms: C_44  and  C_45
REMARK   11  A    between atoms: C_44  and  C_46
REMARK                            x       y       z     vdW  Elec       q    Type
REMARK                         _______ _______ _______ _____ _____    ______ ____
ROOT
ATOM      1  C   UNL     1      -4.909   5.147 129.715  0.00  0.00    +0.000 C 
ATOM      2  C   UNL     1      -3.985   6.098 128.902  0.00  0.00    +0.000 C 
ATOM      3  C   UNL     1      -3.963   7.467 129.633  0.00  0.00    +0.000 C 
ATOM      4  C   UNL     1      -4.747   7.291 130.912  0.00  0.00    +0.000 C 
ATOM      5  N   UNL     1      -5.475   6.058 130.712  0.00  0.00    +0.000 N 
ATOM      6  C   UNL     1      -6.740   5.835 131.152  0.00  0.00    +0.000 C 
ATOM      7  O   UNL     1      -7.489   6.723 131.536  0.00  0.00    +0.000 OA
ATOM      8  C   UNL     1      -7.154   4.394 130.860  0.00  0.00    +0.000 C 
ATOM      9  N   UNL     1      -5.956   3.430 130.325  0.00  0.00    +0.000 N 
ATOM     10  C   UNL     1      -5.855   2.026 130.114  0.00  0.00    +0.000 C 
ATOM     11  O   UNL     1      -4.804   1.470 129.811  0.00  0.00    +0.000 OA
ATOM     12  C   UNL     1      -7.193   1.372 130.121  0.00  0.00    +0.000 C 
ATOM     13  O   UNL     1      -7.181   2.780 129.015  0.00  0.00    +0.000 OA
ATOM     14  C   UNL     1      -5.941   3.825 128.997  0.00  0.00    +0.000 C 
ENDROOT
BRANCH  12  15
ATOM     15  N   UNL     1      -8.098   0.289 129.581  0.00  0.00    +0.000 N 
ATOM     16  C   UNL     1      -7.530  -0.354 128.465  0.00  0.00    +0.000 C 
ATOM     17  O   UNL     1      -7.594   0.344 127.448  0.00  0.00    +0.000 OA
ATOM     18  H   UNL     1      -8.355  -0.342 130.347  0.00  0.00    +0.000 HD
BRANCH  16  19
ATOM     19  C   UNL     1      -6.744  -1.830 128.326  0.00  0.00    +0.000 C 
ATOM     20  C   UNL     1      -5.322  -1.698 129.031  0.00  0.00    +0.000 C 
ATOM     21  N   UNL     1      -4.441  -3.189 129.232  0.00  0.00    +0.000 NA
ATOM     22  C   UNL     1      -3.092  -3.069 129.809  0.00  0.00    +0.000 C 
ATOM     23  C   UNL     1      -5.018  -4.329 130.199  0.00  0.00    +0.000 C 
ATOM     24  C   UNL     1      -5.920  -4.893 131.715  0.00  0.00    +0.000 C 
ATOM     25  C   UNL     1      -5.138  -4.540 132.790  0.00  0.00    +0.000 A 
ATOM     26  C   UNL     1      -4.571  -5.298 133.820  0.00  0.00    +0.000 A 
ATOM     27  N   UNL     1      -3.608  -4.480 134.292  0.00  0.00    +0.000 N 
ATOM     28  C   UNL     1      -3.564  -3.261 133.623  0.00  0.00    +0.000 A 
ATOM     29  C   UNL     1      -2.564  -2.304 133.657  0.00  0.00    +0.000 A 
ATOM     30  C   UNL     1      -2.755  -1.302 132.714  0.00  0.00    +0.000 A 
ATOM     31  C   UNL     1      -3.934  -1.333 131.774  0.00  0.00    +0.000 A 
ATOM     32  C   UNL     1      -5.090  -2.403 131.706  0.00  0.00    +0.000 A 
ATOM     33  C   UNL     1      -4.683  -3.259 132.779  0.00  0.00    +0.000 A 
ATOM     34  C   UNL     1      -6.040  -3.315 130.315  0.00  0.00    +0.000 C 
ATOM     35  C   UNL     1      -7.085  -3.089 129.068  0.00  0.00    +0.000 C 
ATOM     36  H   UNL     1      -2.895  -4.794 134.943  0.00  0.00    +0.000 HD
ENDBRANCH  16  19
ENDBRANCH  12  15
BRANCH  12  37
ATOM     37  C   UNL     1      -7.464   0.864 131.835  0.00  0.00    +0.000 C 
ATOM     38  C   UNL     1      -6.644   0.498 133.171  0.00  0.00    +0.000 C 
ATOM     39  C   UNL     1      -8.877   0.316 131.860  0.00  0.00    +0.000 C 
ENDBRANCH  12  37
BRANCH   8  40
ATOM     40  C   UNL     1      -7.957   3.592 131.796  0.00  0.00    +0.000 C 
ATOM     41  C   UNL     1      -9.452   3.842 131.320  0.00  0.00    +0.000 C 
BRANCH  40  42
ATOM     42  C   UNL     1      -7.816   3.679 133.291  0.00  0.00    +0.000 C 
ATOM     43  C   UNL     1      -9.198   3.745 133.864  0.00  0.00    +0.000 C 
ENDBRANCH  40  42
ENDBRANCH   8  40
BRANCH  14  44
ATOM     44  O   UNL     1      -5.017   3.365 128.025  0.00  0.00    +0.000 OA
ATOM     45  H   UNL     1      -4.263   2.974 128.505  0.00  0.00    +0.000 HD
ENDBRANCH  14  44
TORSDOF 6
ENDMDL
MODEL 7
REMARK VINA RESULT:      -8.5      2.608      4.733
REMARK  Name = Epicriptine
REMARK  11 active torsions:
REMARK  status: ('A' for Active; 'I' for Inactive)
REMARK    1  A    between atoms: C_9  and  C_11
REMARK    2  A    between atoms: C_11  and  C_12
REMARK    3  A    between atoms: C_11  and  C_13
REMARK    4  A    between atoms: C_13  and  C_14
REMARK    5  A    between atoms: C_18  and  N_19
REMARK    6  A    between atoms: C_18  and  C_44
REMARK    7  A    between atoms: C_20  and  C_22
REMARK    8  A    between atoms: N_24  and  C_25
REMARK    9  A    between atoms: C_42  and  O_43
REMARK   10  A    between atoms: C_44  and  C_45
REMARK   11  A    between atoms: C_44  and  C_46
REMARK                            x       y       z     vdW  Elec       q    Type
REMARK                         _______ _______ _______ _____ _____    ______ ____
ROOT
ATOM      1  C   UNL     1      -9.670   6.396 129.336  0.00  0.00    +0.000 C 
ATOM      2  C   UNL     1     -10.526   6.864 128.125  0.00  0.00    +0.000 C 
ATOM      3  C   UNL     1     -11.688   7.731 128.680  0.00  0.00    +0.000 C 
ATOM      4  C   UNL     1     -11.451   7.878 130.165  0.00  0.00    +0.000 C 
ATOM      5  N   UNL     1     -10.476   6.855 130.469  0.00  0.00    +0.000 N 
ATOM      6  C   UNL     1     -10.464   6.124 131.614  0.00  0.00    +0.000 C 
ATOM      7  O   UNL     1     -11.407   6.069 132.392  0.00  0.00    +0.000 OA
ATOM      8  C   UNL     1      -9.237   5.215 131.646  0.00  0.00    +0.000 C 
ATOM      9  N   UNL     1      -8.149   5.486 130.466  0.00  0.00    +0.000 N 
ATOM     10  C   UNL     1      -6.826   5.017 130.233  0.00  0.00    +0.000 C 
ATOM     11  O   UNL     1      -6.115   5.442 129.327  0.00  0.00    +0.000 OA
ATOM     12  C   UNL     1      -6.502   3.842 131.088  0.00  0.00    +0.000 C 
ATOM     13  O   UNL     1      -8.056   3.595 130.235  0.00  0.00    +0.000 OA
ATOM     14  C   UNL     1      -8.778   4.808 129.435  0.00  0.00    +0.000 C 
ENDROOT
BRANCH  12  15
ATOM     15  N   UNL     1      -5.775   2.526 131.245  0.00  0.00    +0.000 N 
ATOM     16  C   UNL     1      -6.166   1.597 130.262  0.00  0.00    +0.000 C 
ATOM     17  O   UNL     1      -7.282   1.122 130.493  0.00  0.00    +0.000 OA
ATOM     18  H   UNL     1      -4.766   2.706 131.281  0.00  0.00    +0.000 HD
BRANCH  16  19
ATOM     19  C   UNL     1      -5.412   1.114 128.842  0.00  0.00    +0.000 C 
ATOM     20  C   UNL     1      -6.513   0.450 127.901  0.00  0.00    +0.000 C 
ATOM     21  N   UNL     1      -6.002   0.111 126.270  0.00  0.00    +0.000 NA
ATOM     22  C   UNL     1      -6.984  -0.576 125.416  0.00  0.00    +0.000 C 
ATOM     23  C   UNL     1      -5.627   1.320 125.287  0.00  0.00    +0.000 C 
ATOM     24  C   UNL     1      -5.853   3.041 124.642  0.00  0.00    +0.000 C 
ATOM     25  C   UNL     1      -7.079   3.068 124.020  0.00  0.00    +0.000 A 
ATOM     26  C   UNL     1      -7.454   3.387 122.711  0.00  0.00    +0.000 A 
ATOM     27  N   UNL     1      -8.680   2.834 122.612  0.00  0.00    +0.000 N 
ATOM     28  C   UNL     1      -9.082   2.209 123.788  0.00  0.00    +0.000 A 
ATOM     29  C   UNL     1     -10.138   1.331 123.970  0.00  0.00    +0.000 A 
ATOM     30  C   UNL     1     -10.130   0.746 125.230  0.00  0.00    +0.000 A 
ATOM     31  C   UNL     1      -9.045   1.062 126.229  0.00  0.00    +0.000 A 
ATOM     32  C   UNL     1      -7.830   2.052 126.057  0.00  0.00    +0.000 A 
ATOM     33  C   UNL     1      -8.103   2.535 124.737  0.00  0.00    +0.000 A 
ATOM     34  C   UNL     1      -5.966   2.032 126.496  0.00  0.00    +0.000 C 
ATOM     35  C   UNL     1      -4.910   2.017 127.754  0.00  0.00    +0.000 C 
ATOM     36  H   UNL     1      -9.167   2.740 121.726  0.00  0.00    +0.000 HD
ENDBRANCH  16  19
ENDBRANCH  12  15
BRANCH  12  37
ATOM     37  C   UNL     1      -5.748   4.534 132.580  0.00  0.00    +0.000 C 
ATOM     38  C   UNL     1      -4.947   5.836 133.082  0.00  0.00    +0.000 C 
ATOM     39  C   UNL     1      -5.553   3.348 133.503  0.00  0.00    +0.000 C 
ENDBRANCH  12  37
BRANCH   8  40
ATOM     40  C   UNL     1      -8.473   4.954 132.876  0.00  0.00    +0.000 C 
ATOM     41  C   UNL     1      -9.127   3.627 133.453  0.00  0.00    +0.000 C 
BRANCH  40  42
ATOM     42  C   UNL     1      -8.251   5.988 133.946  0.00  0.00    +0.000 C 
ATOM     43  C   UNL     1      -8.049   5.256 135.236  0.00  0.00    +0.000 C 
ENDBRANCH  40  42
ENDBRANCH   8  40
BRANCH  14  44
ATOM     44  O   UNL     1      -8.317   4.761 128.095  0.00  0.00    +0.000 OA
ATOM     45  H   UNL     1      -8.235   3.820 127.851  0.00  0.00    +0.000 HD
ENDBRANCH  14  44
TORSDOF 6
ENDMDL
MODEL 8
REMARK VINA RESULT:      -8.4      3.243      7.804
REMARK  Name = Epicriptine
REMARK  11 active torsions:
REMARK  status: ('A' for Active; 'I' for Inactive)
REMARK    1  A    between atoms: C_9  and  C_11
REMARK    2  A    between atoms: C_11  and  C_12
REMARK    3  A    between atoms: C_11  and  C_13
REMARK    4  A    between atoms: C_13  and  C_14
REMARK    5  A    between atoms: C_18  and  N_19
REMARK    6  A    between atoms: C_18  and  C_44
REMARK    7  A    between atoms: C_20  and  C_22
REMARK    8  A    between atoms: N_24  and  C_25
REMARK    9  A    between atoms: C_42  and  O_43
REMARK   10  A    between atoms: C_44  and  C_45
REMARK   11  A    between atoms: C_44  and  C_46
REMARK                            x       y       z     vdW  Elec       q    Type
REMARK                         _______ _______ _______ _____ _____    ______ ____
ROOT
ATOM      1  C   UNL     1      -5.613  -1.311 124.953  0.00  0.00    +0.000 C 
ATOM      2  C   UNL     1      -5.115  -2.767 125.178  0.00  0.00    +0.000 C 
ATOM      3  C   UNL     1      -5.599  -3.618 123.972  0.00  0.00    +0.000 C 
ATOM      4  C   UNL     1      -6.253  -2.664 123.001  0.00  0.00    +0.000 C 
ATOM      5  N   UNL     1      -6.471  -1.464 123.776  0.00  0.00    +0.000 N 
ATOM      6  C   UNL     1      -7.560  -0.661 123.656  0.00  0.00    +0.000 C 
ATOM      7  O   UNL     1      -8.583  -0.991 123.072  0.00  0.00    +0.000 OA
ATOM      8  C   UNL     1      -7.409   0.568 124.550  0.00  0.00    +0.000 C 
ATOM      9  N   UNL     1      -5.943   0.746 125.233  0.00  0.00    +0.000 N 
ATOM     10  C   UNL     1      -5.328   1.804 125.960  0.00  0.00    +0.000 C 
ATOM     11  O   UNL     1      -4.147   1.787 126.295  0.00  0.00    +0.000 OA
ATOM     12  C   UNL     1      -6.326   2.812 126.414  0.00  0.00    +0.000 C 
ATOM     13  O   UNL     1      -6.846   1.158 126.862  0.00  0.00    +0.000 OA
ATOM     14  C   UNL     1      -6.084  -0.150 126.279  0.00  0.00    +0.000 C 
ENDROOT
BRANCH  12  15
ATOM     15  N   UNL     1      -6.767   3.803 127.465  0.00  0.00    +0.000 N 
ATOM     16  C   UNL     1      -7.524   3.184 128.478  0.00  0.00    +0.000 C 
ATOM     17  O   UNL     1      -8.670   2.921 128.102  0.00  0.00    +0.000 OA
ATOM     18  H   UNL     1      -5.946   4.315 127.804  0.00  0.00    +0.000 HD
BRANCH  16  19
ATOM     19  C   UNL     1      -7.101   2.697 130.027  0.00  0.00    +0.000 C 
ATOM     20  C   UNL     1      -7.755   1.268 130.290  0.00  0.00    +0.000 C 
ATOM     21  N   UNL     1      -7.231   0.458 131.742  0.00  0.00    +0.000 NA
ATOM     22  C   UNL     1      -7.888  -0.825 132.038  0.00  0.00    +0.000 C 
ATOM     23  C   UNL     1      -5.706  -0.011 131.885  0.00  0.00    +0.000 C 
ATOM     24  C   UNL     1      -4.118  -0.664 131.191  0.00  0.00    +0.000 C 
ATOM     25  C   UNL     1      -4.361  -1.963 130.813  0.00  0.00    +0.000 A 
ATOM     26  C   UNL     1      -3.762  -3.171 131.188  0.00  0.00    +0.000 A 
ATOM     27  N   UNL     1      -4.685  -4.084 130.821  0.00  0.00    +0.000 N 
ATOM     28  C   UNL     1      -5.804  -3.507 130.229  0.00  0.00    +0.000 A 
ATOM     29  C   UNL     1      -7.032  -4.094 129.973  0.00  0.00    +0.000 A 
ATOM     30  C   UNL     1      -7.983  -3.172 129.555  0.00  0.00    +0.000 A 
ATOM     31  C   UNL     1      -7.649  -1.706 129.438  0.00  0.00    +0.000 A 
ATOM     32  C   UNL     1      -6.265  -1.004 129.720  0.00  0.00    +0.000 A 
ATOM     33  C   UNL     1      -5.485  -2.151 130.073  0.00  0.00    +0.000 A 
ATOM     34  C   UNL     1      -5.691   0.608 130.581  0.00  0.00    +0.000 C 
ATOM     35  C   UNL     1      -5.741   2.247 130.475  0.00  0.00    +0.000 C 
ATOM     36  H   UNL     1      -4.633  -5.058 131.105  0.00  0.00    +0.000 HD
ENDBRANCH  16  19
ENDBRANCH  12  15
BRANCH  12  37
ATOM     37  C   UNL     1      -6.377   4.053 125.099  0.00  0.00    +0.000 C 
ATOM     38  C   UNL     1      -5.455   4.675 123.935  0.00  0.00    +0.000 C 
ATOM     39  C   UNL     1      -7.526   4.968 125.473  0.00  0.00    +0.000 C 
ENDBRANCH  12  37
BRANCH   8  40
ATOM     40  C   UNL     1      -7.851   1.910 124.137  0.00  0.00    +0.000 C 
ATOM     41  C   UNL     1      -9.373   1.962 124.590  0.00  0.00    +0.000 C 
BRANCH  40  42
ATOM     42  C   UNL     1      -7.653   2.454 122.749  0.00  0.00    +0.000 C 
ATOM     43  C   UNL     1      -9.012   2.713 122.176  0.00  0.00    +0.000 C 
ENDBRANCH  40  42
ENDBRANCH   8  40
BRANCH  14  44
ATOM     44  O   UNL     1      -5.062  -0.486 127.203  0.00  0.00    +0.000 OA
ATOM     45  H   UNL     1      -4.484  -1.141 126.768  0.00  0.00    +0.000 HD
ENDBRANCH  14  44
TORSDOF 6
ENDMDL
MODEL 9
REMARK VINA RESULT:      -8.4      2.634      9.086
REMARK  Name = Epicriptine
REMARK  11 active torsions:
REMARK  status: ('A' for Active; 'I' for Inactive)
REMARK    1  A    between atoms: C_9  and  C_11
REMARK    2  A    between atoms: C_11  and  C_12
REMARK    3  A    between atoms: C_11  and  C_13
REMARK    4  A    between atoms: C_13  and  C_14
REMARK    5  A    between atoms: C_18  and  N_19
REMARK    6  A    between atoms: C_18  and  C_44
REMARK    7  A    between atoms: C_20  and  C_22
REMARK    8  A    between atoms: N_24  and  C_25
REMARK    9  A    between atoms: C_42  and  O_43
REMARK   10  A    between atoms: C_44  and  C_45
REMARK   11  A    between atoms: C_44  and  C_46
REMARK                            x       y       z     vdW  Elec       q    Type
REMARK                         _______ _______ _______ _____ _____    ______ ____
ROOT
ATOM      1  C   UNL     1      -5.723  -1.960 125.323  0.00  0.00    +0.000 C 
ATOM      2  C   UNL     1      -5.079  -3.364 125.143  0.00  0.00    +0.000 C 
ATOM      3  C   UNL     1      -5.013  -3.657 123.620  0.00  0.00    +0.000 C 
ATOM      4  C   UNL     1      -5.485  -2.407 122.915  0.00  0.00    +0.000 C 
ATOM      5  N   UNL     1      -6.133  -1.639 123.954  0.00  0.00    +0.000 N 
ATOM      6  C   UNL     1      -7.250  -0.889 123.769  0.00  0.00    +0.000 C 
ATOM      7  O   UNL     1      -7.970  -0.979 122.783  0.00  0.00    +0.000 OA
ATOM      8  C   UNL     1      -7.596  -0.134 125.050  0.00  0.00    +0.000 C 
ATOM      9  N   UNL     1      -6.467  -0.211 126.220  0.00  0.00    +0.000 N 
ATOM     10  C   UNL     1      -6.298   0.471 127.458  0.00  0.00    +0.000 C 
ATOM     11  O   UNL     1      -5.294   0.352 128.155  0.00  0.00    +0.000 OA
ATOM     12  C   UNL     1      -7.543   1.174 127.873  0.00  0.00    +0.000 C 
ATOM     13  O   UNL     1      -7.887  -0.532 127.452  0.00  0.00    +0.000 OA
ATOM     14  C   UNL     1      -6.772  -1.462 126.730  0.00  0.00    +0.000 C 
ENDROOT
BRANCH  12  15
ATOM     15  N   UNL     1      -8.450   1.631 128.992  0.00  0.00    +0.000 N 
ATOM     16  C   UNL     1      -7.975   1.213 130.249  0.00  0.00    +0.000 C 
ATOM     17  O   UNL     1      -8.178   0.011 130.443  0.00  0.00    +0.000 OA
ATOM     18  H   UNL     1      -8.596   2.642 128.909  0.00  0.00    +0.000 HD
BRANCH  16  19
ATOM     19  C   UNL     1      -7.142   2.046 131.444  0.00  0.00    +0.000 C 
ATOM     20  C   UNL     1      -5.665   2.319 130.915  0.00  0.00    +0.000 C 
ATOM     21  N   UNL     1      -4.704   3.397 131.891  0.00  0.00    +0.000 NA
ATOM     22  C   UNL     1      -3.311   3.593 131.457  0.00  0.00    +0.000 C 
ATOM     23  C   UNL     1      -5.132   4.935 132.033  0.00  0.00    +0.000 C 
ATOM     24  C   UNL     1      -5.853   6.506 131.369  0.00  0.00    +0.000 C 
ATOM     25  C   UNL     1      -4.986   6.957 130.403  0.00  0.00    +0.000 A 
ATOM     26  C   UNL     1      -4.287   8.161 130.266  0.00  0.00    +0.000 A 
ATOM     27  N   UNL     1      -3.320   7.842 129.382  0.00  0.00    +0.000 N 
ATOM     28  C   UNL     1      -3.395   6.518 128.959  0.00  0.00    +0.000 A 
ATOM     29  C   UNL     1      -2.440   5.784 128.277  0.00  0.00    +0.000 A 
ATOM     30  C   UNL     1      -2.767   4.437 128.190  0.00  0.00    +0.000 A 
ATOM     31  C   UNL     1      -4.031   3.901 128.816  0.00  0.00    +0.000 A 
ATOM     32  C   UNL     1      -5.139   4.705 129.598  0.00  0.00    +0.000 A 
ATOM     33  C   UNL     1      -4.591   6.024 129.497  0.00  0.00    +0.000 A 
ATOM     34  C   UNL     1      -6.180   4.426 131.181  0.00  0.00    +0.000 C 
ATOM     35  C   UNL     1      -7.352   3.480 131.836  0.00  0.00    +0.000 C 
ATOM     36  H   UNL     1      -2.532   8.453 129.189  0.00  0.00    +0.000 HD
ENDBRANCH  16  19
ENDBRANCH  12  15
BRANCH  12  37
ATOM     37  C   UNL     1      -7.393   2.844 127.196  0.00  0.00    +0.000 C 
ATOM     38  C   UNL     1      -6.360   3.770 126.380  0.00  0.00    +0.000 C 
ATOM     39  C   UNL     1      -8.433   3.659 127.937  0.00  0.00    +0.000 C 
ENDBRANCH  12  37
BRANCH   8  40
ATOM     40  C   UNL     1      -8.109   1.246 125.046  0.00  0.00    +0.000 C 
ATOM     41  C   UNL     1      -9.683   1.064 125.164  0.00  0.00    +0.000 C 
BRANCH  40  42
ATOM     42  C   UNL     1      -7.732   2.264 124.005  0.00  0.00    +0.000 C 
ATOM     43  C   UNL     1      -8.947   2.511 123.165  0.00  0.00    +0.000 C 
ENDBRANCH  40  42
ENDBRANCH   8  40
BRANCH  14  44
ATOM     44  O   UNL     1      -6.045  -2.119 127.755  0.00  0.00    +0.000 OA
ATOM     45  H   UNL     1      -6.412  -1.817 128.608  0.00  0.00    +0.000 HD
ENDBRANCH  14  44
TORSDOF 6
ENDMDL
