MODEL 1
REMARK VINA RESULT:      -5.6      0.000      0.000
REMARK  Name = Epinephrine
REMARK  7 active torsions:
REMARK  status: ('A' for Active; 'I' for Inactive)
REMARK    1  A    between atoms: C_1  and  N_2
REMARK    2  A    between atoms: N_2  and  C_3
REMARK    3  A    between atoms: C_3  and  C_4
REMARK    4  A    between atoms: C_4  and  O_5
REMARK    5  A    between atoms: C_4  and  C_6
REMARK    6  A    between atoms: C_8  and  O_9
REMARK    7  A    between atoms: C_10  and  O_11
REMARK                            x       y       z     vdW  Elec       q    Type
REMARK                         _______ _______ _______ _____ _____    ______ ____
ROOT
ATOM      1  C   UNL     1     -11.399   7.829 129.729  0.00  0.00    +0.000 A 
ATOM      2  C   UNL     1     -10.092   7.346 129.908  0.00  0.00    +0.000 A 
ATOM      3  C   UNL     1      -9.693   6.668 131.044  0.00  0.00    +0.000 A 
ATOM      4  C   UNL     1     -10.651   6.237 131.941  0.00  0.00    +0.000 A 
ATOM      5  C   UNL     1     -11.988   6.516 131.708  0.00  0.00    +0.000 A 
ATOM      6  C   UNL     1     -12.361   7.328 130.627  0.00  0.00    +0.000 A 
ENDROOT
BRANCH   3   7
ATOM      7  O   UNL     1      -8.375   6.401 131.284  0.00  0.00    +0.000 OA
ATOM      8  H   UNL     1      -8.309   5.485 131.616  0.00  0.00    +0.000 HD
ENDBRANCH   3   7
BRANCH   4   9
ATOM      9  O   UNL     1     -10.270   5.504 133.023  0.00  0.00    +0.000 OA
ATOM     10  H   UNL     1     -10.747   4.655 132.921  0.00  0.00    +0.000 HD
ENDBRANCH   4   9
BRANCH   1  11
ATOM     11  C   UNL     1     -11.833   8.788 128.611  0.00  0.00    +0.000 C 
BRANCH  11  12
ATOM     12  O   UNL     1     -11.485   8.182 127.347  0.00  0.00    +0.000 OA
ATOM     13  H   UNL     1     -10.797   8.744 126.948  0.00  0.00    +0.000 HD
ENDBRANCH  11  12
BRANCH  11  14
ATOM     14  C   UNL     1     -13.344   9.229 128.467  0.00  0.00    +0.000 C 
BRANCH  14  16
ATOM     15  C   UNL     1     -13.521  11.070 130.109  0.00  0.00    +0.000 C 
ATOM     16  N   UNL     1     -13.599  10.636 128.741  0.00  0.00    +0.000 NA
ATOM     17  H   UNL     1     -12.865  11.146 128.249  0.00  0.00    +0.000 HD
ENDBRANCH  14  16
ENDBRANCH  11  14
ENDBRANCH   1  11
TORSDOF 6
ENDMDL
MODEL 2
REMARK VINA RESULT:      -5.5      2.963      5.091
REMARK  Name = Epinephrine
REMARK  7 active torsions:
REMARK  status: ('A' for Active; 'I' for Inactive)
REMARK    1  A    between atoms: C_1  and  N_2
REMARK    2  A    between atoms: N_2  and  C_3
REMARK    3  A    between atoms: C_3  and  C_4
REMARK    4  A    between atoms: C_4  and  O_5
REMARK    5  A    between atoms: C_4  and  C_6
REMARK    6  A    between atoms: C_8  and  O_9
REMARK    7  A    between atoms: C_10  and  O_11
REMARK                            x       y       z     vdW  Elec       q    Type
REMARK                         _______ _______ _______ _____ _____    ______ ____
ROOT
ATOM      1  C   UNL     1     -11.614   7.033 129.678  0.00  0.00    +0.000 A 
ATOM      2  C   UNL     1     -10.607   6.992 128.699  0.00  0.00    +0.000 A 
ATOM      3  C   UNL     1     -10.879   6.896 127.348  0.00  0.00    +0.000 A 
ATOM      4  C   UNL     1     -12.176   7.082 126.909  0.00  0.00    +0.000 A 
ATOM      5  C   UNL     1     -13.185   7.327 127.825  0.00  0.00    +0.000 A 
ATOM      6  C   UNL     1     -12.916   7.277 129.201  0.00  0.00    +0.000 A 
ENDROOT
BRANCH   3   7
ATOM      7  O   UNL     1      -9.890   6.642 126.441  0.00  0.00    +0.000 OA
ATOM      8  H   UNL     1     -10.123   7.093 125.607  0.00  0.00    +0.000 HD
ENDBRANCH   3   7
BRANCH   4   9
ATOM      9  O   UNL     1     -12.436   7.063 125.573  0.00  0.00    +0.000 OA
ATOM     10  H   UNL     1     -13.397   6.885 125.515  0.00  0.00    +0.000 HD
ENDBRANCH   4   9
BRANCH   1  11
ATOM     11  C   UNL     1     -11.373   6.895 131.189  0.00  0.00    +0.000 C 
BRANCH  11  12
ATOM     12  O   UNL     1     -12.607   6.450 131.795  0.00  0.00    +0.000 OA
ATOM     13  H   UNL     1     -12.752   7.012 132.577  0.00  0.00    +0.000 HD
ENDBRANCH  11  12
BRANCH  11  14
ATOM     14  C   UNL     1     -10.255   5.925 131.742  0.00  0.00    +0.000 C 
BRANCH  14  16
ATOM     15  C   UNL     1      -8.484   5.802 133.465  0.00  0.00    +0.000 C 
ATOM     16  N   UNL     1      -9.813   6.214 133.099  0.00  0.00    +0.000 NA
ATOM     17  H   UNL     1      -9.815   7.232 133.175  0.00  0.00    +0.000 HD
ENDBRANCH  14  16
ENDBRANCH  11  14
ENDBRANCH   1  11
TORSDOF 6
ENDMDL
MODEL 3
REMARK VINA RESULT:      -5.4      2.675      5.098
REMARK  Name = Epinephrine
REMARK  7 active torsions:
REMARK  status: ('A' for Active; 'I' for Inactive)
REMARK    1  A    between atoms: C_1  and  N_2
REMARK    2  A    between atoms: N_2  and  C_3
REMARK    3  A    between atoms: C_3  and  C_4
REMARK    4  A    between atoms: C_4  and  O_5
REMARK    5  A    between atoms: C_4  and  C_6
REMARK    6  A    between atoms: C_8  and  O_9
REMARK    7  A    between atoms: C_10  and  O_11
REMARK                            x       y       z     vdW  Elec       q    Type
REMARK                         _______ _______ _______ _____ _____    ______ ____
ROOT
ATOM      1  C   UNL     1     -11.035   6.765 130.630  0.00  0.00    +0.000 A 
ATOM      2  C   UNL     1     -10.496   7.444 129.524  0.00  0.00    +0.000 A 
ATOM      3  C   UNL     1     -11.215   8.367 128.789  0.00  0.00    +0.000 A 
ATOM      4  C   UNL     1     -12.424   8.823 129.280  0.00  0.00    +0.000 A 
ATOM      5  C   UNL     1     -12.911   8.328 130.478  0.00  0.00    +0.000 A 
ATOM      6  C   UNL     1     -12.240   7.288 131.138  0.00  0.00    +0.000 A 
ENDROOT
BRANCH   3   7
ATOM      7  O   UNL     1     -10.744   8.849 127.601  0.00  0.00    +0.000 OA
ATOM      8  H   UNL     1     -10.727   9.824 127.657  0.00  0.00    +0.000 HD
ENDBRANCH   3   7
BRANCH   4   9
ATOM      9  O   UNL     1     -13.099   9.787 128.596  0.00  0.00    +0.000 OA
ATOM     10  H   UNL     1     -12.484  10.055 127.883  0.00  0.00    +0.000 HD
ENDBRANCH   4   9
BRANCH   1  11
ATOM     11  C   UNL     1     -10.375   5.567 131.328  0.00  0.00    +0.000 C 
BRANCH  11  12
ATOM     12  O   UNL     1     -10.868   5.519 132.686  0.00  0.00    +0.000 OA
ATOM     13  H   UNL     1     -10.855   6.433 133.020  0.00  0.00    +0.000 HD
ENDBRANCH  11  12
BRANCH  11  14
ATOM     14  C   UNL     1     -10.555   4.103 130.761  0.00  0.00    +0.000 C 
BRANCH  14  16
ATOM     15  C   UNL     1      -8.341   4.337 129.682  0.00  0.00    +0.000 C 
ATOM     16  N   UNL     1      -9.656   3.756 129.669  0.00  0.00    +0.000 NA
ATOM     17  H   UNL     1      -9.511   2.748 129.746  0.00  0.00    +0.000 HD
ENDBRANCH  14  16
ENDBRANCH  11  14
ENDBRANCH   1  11
TORSDOF 6
ENDMDL
MODEL 4
REMARK VINA RESULT:      -5.2      9.630     11.364
REMARK  Name = Epinephrine
REMARK  7 active torsions:
REMARK  status: ('A' for Active; 'I' for Inactive)
REMARK    1  A    between atoms: C_1  and  N_2
REMARK    2  A    between atoms: N_2  and  C_3
REMARK    3  A    between atoms: C_3  and  C_4
REMARK    4  A    between atoms: C_4  and  O_5
REMARK    5  A    between atoms: C_4  and  C_6
REMARK    6  A    between atoms: C_8  and  O_9
REMARK    7  A    between atoms: C_10  and  O_11
REMARK                            x       y       z     vdW  Elec       q    Type
REMARK                         _______ _______ _______ _____ _____    ______ ____
ROOT
ATOM      1  C   UNL     1      -7.690   3.263 122.594  0.00  0.00    +0.000 A 
ATOM      2  C   UNL     1      -8.723   3.275 121.642  0.00  0.00    +0.000 A 
ATOM      3  C   UNL     1      -8.573   3.816 120.380  0.00  0.00    +0.000 A 
ATOM      4  C   UNL     1      -7.306   4.150 119.938  0.00  0.00    +0.000 A 
ATOM      5  C   UNL     1      -6.216   3.969 120.773  0.00  0.00    +0.000 A 
ATOM      6  C   UNL     1      -6.404   3.556 122.100  0.00  0.00    +0.000 A 
ENDROOT
BRANCH   3   7
ATOM      7  O   UNL     1      -9.646   4.007 119.557  0.00  0.00    +0.000 OA
ATOM      8  H   UNL     1      -9.887   3.143 119.171  0.00  0.00    +0.000 HD
ENDBRANCH   3   7
BRANCH   4   9
ATOM      9  O   UNL     1      -7.145   4.612 118.668  0.00  0.00    +0.000 OA
ATOM     10  H   UNL     1      -6.239   4.985 118.659  0.00  0.00    +0.000 HD
ENDBRANCH   4   9
BRANCH   1  11
ATOM     11  C   UNL     1      -7.868   2.901 124.076  0.00  0.00    +0.000 C 
BRANCH  11  12
ATOM     12  O   UNL     1      -9.250   3.134 124.426  0.00  0.00    +0.000 OA
ATOM     13  H   UNL     1      -9.730   2.309 124.230  0.00  0.00    +0.000 HD
ENDBRANCH  11  12
BRANCH  11  14
ATOM     14  C   UNL     1      -7.540   1.445 124.596  0.00  0.00    +0.000 C 
BRANCH  14  16
ATOM     15  C   UNL     1      -8.896  -0.284 123.459  0.00  0.00    +0.000 C 
ATOM     16  N   UNL     1      -7.637   0.400 123.587  0.00  0.00    +0.000 NA
ATOM     17  H   UNL     1      -7.489   0.870 122.693  0.00  0.00    +0.000 HD
ENDBRANCH  14  16
ENDBRANCH  11  14
ENDBRANCH   1  11
TORSDOF 6
ENDMDL
MODEL 5
REMARK VINA RESULT:      -5.1      3.296      5.789
REMARK  Name = Epinephrine
REMARK  7 active torsions:
REMARK  status: ('A' for Active; 'I' for Inactive)
REMARK    1  A    between atoms: C_1  and  N_2
REMARK    2  A    between atoms: N_2  and  C_3
REMARK    3  A    between atoms: C_3  and  C_4
REMARK    4  A    between atoms: C_4  and  O_5
REMARK    5  A    between atoms: C_4  and  C_6
REMARK    6  A    between atoms: C_8  and  O_9
REMARK    7  A    between atoms: C_10  and  O_11
REMARK                            x       y       z     vdW  Elec       q    Type
REMARK                         _______ _______ _______ _____ _____    ______ ____
ROOT
ATOM      1  C   UNL     1      -9.851   6.455 131.601  0.00  0.00    +0.000 A 
ATOM      2  C   UNL     1     -11.235   6.399 131.840  0.00  0.00    +0.000 A 
ATOM      3  C   UNL     1     -12.154   7.106 131.088  0.00  0.00    +0.000 A 
ATOM      4  C   UNL     1     -11.742   7.708 129.914  0.00  0.00    +0.000 A 
ATOM      5  C   UNL     1     -10.415   7.623 129.526  0.00  0.00    +0.000 A 
ATOM      6  C   UNL     1      -9.469   7.026 130.372  0.00  0.00    +0.000 A 
ENDROOT
BRANCH   3   7
ATOM      7  O   UNL     1     -13.461   7.203 131.474  0.00  0.00    +0.000 OA
ATOM      8  H   UNL     1     -13.493   7.141 132.448  0.00  0.00    +0.000 HD
ENDBRANCH   3   7
BRANCH   4   9
ATOM      9  O   UNL     1     -12.659   8.342 129.133  0.00  0.00    +0.000 OA
ATOM     10  H   UNL     1     -12.122   8.829 128.475  0.00  0.00    +0.000 HD
ENDBRANCH   4   9
BRANCH   1  11
ATOM     11  C   UNL     1      -8.777   5.891 132.542  0.00  0.00    +0.000 C 
BRANCH  11  12
ATOM     12  O   UNL     1      -9.155   6.223 133.896  0.00  0.00    +0.000 OA
ATOM     13  H   UNL     1      -8.982   7.175 134.008  0.00  0.00    +0.000 HD
ENDBRANCH  11  12
BRANCH  11  14
ATOM     14  C   UNL     1      -8.451   4.345 132.560  0.00  0.00    +0.000 C 
BRANCH  14  16
ATOM     15  C   UNL     1      -9.647   2.179 132.506  0.00  0.00    +0.000 C 
ATOM     16  N   UNL     1      -9.526   3.500 133.062  0.00  0.00    +0.000 NA
ATOM     17  H   UNL     1      -9.324   3.363 134.053  0.00  0.00    +0.000 HD
ENDBRANCH  14  16
ENDBRANCH  11  14
ENDBRANCH   1  11
TORSDOF 6
ENDMDL
MODEL 6
REMARK VINA RESULT:      -5.0      9.928     11.422
REMARK  Name = Epinephrine
REMARK  7 active torsions:
REMARK  status: ('A' for Active; 'I' for Inactive)
REMARK    1  A    between atoms: C_1  and  N_2
REMARK    2  A    between atoms: N_2  and  C_3
REMARK    3  A    between atoms: C_3  and  C_4
REMARK    4  A    between atoms: C_4  and  O_5
REMARK    5  A    between atoms: C_4  and  C_6
REMARK    6  A    between atoms: C_8  and  O_9
REMARK    7  A    between atoms: C_10  and  O_11
REMARK                            x       y       z     vdW  Elec       q    Type
REMARK                         _______ _______ _______ _____ _____    ______ ____
ROOT
ATOM      1  C   UNL     1      -6.254   3.560 122.248  0.00  0.00    +0.000 A 
ATOM      2  C   UNL     1      -5.291   4.584 122.257  0.00  0.00    +0.000 A 
ATOM      3  C   UNL     1      -4.873   5.229 121.110  0.00  0.00    +0.000 A 
ATOM      4  C   UNL     1      -5.579   5.041 119.937  0.00  0.00    +0.000 A 
ATOM      5  C   UNL     1      -6.669   4.187 119.919  0.00  0.00    +0.000 A 
ATOM      6  C   UNL     1      -6.992   3.430 121.055  0.00  0.00    +0.000 A 
ENDROOT
BRANCH   3   7
ATOM      7  O   UNL     1      -3.791   6.062 121.119  0.00  0.00    +0.000 OA
ATOM      8  H   UNL     1      -3.725   6.462 122.008  0.00  0.00    +0.000 HD
ENDBRANCH   3   7
BRANCH   4   9
ATOM      9  O   UNL     1      -5.215   5.733 118.822  0.00  0.00    +0.000 OA
ATOM     10  H   UNL     1      -4.683   6.480 119.164  0.00  0.00    +0.000 HD
ENDBRANCH   4   9
BRANCH   1  11
ATOM     11  C   UNL     1      -6.578   2.651 123.442  0.00  0.00    +0.000 C 
BRANCH  11  12
ATOM     12  O   UNL     1      -5.757   3.071 124.554  0.00  0.00    +0.000 OA
ATOM     13  H   UNL     1      -5.142   2.339 124.739  0.00  0.00    +0.000 HD
ENDBRANCH  11  12
BRANCH  11  14
ATOM     14  C   UNL     1      -8.049   2.561 124.012  0.00  0.00    +0.000 C 
BRANCH  14  16
ATOM     15  C   UNL     1      -9.762   1.242 122.809  0.00  0.00    +0.000 C 
ATOM     16  N   UNL     1      -8.713   1.284 123.792  0.00  0.00    +0.000 NA
ATOM     17  H   UNL     1      -7.987   0.656 123.444  0.00  0.00    +0.000 HD
ENDBRANCH  14  16
ENDBRANCH  11  14
ENDBRANCH   1  11
TORSDOF 6
ENDMDL
MODEL 7
REMARK VINA RESULT:      -4.9      9.460     10.589
REMARK  Name = Epinephrine
REMARK  7 active torsions:
REMARK  status: ('A' for Active; 'I' for Inactive)
REMARK    1  A    between atoms: C_1  and  N_2
REMARK    2  A    between atoms: N_2  and  C_3
REMARK    3  A    between atoms: C_3  and  C_4
REMARK    4  A    between atoms: C_4  and  O_5
REMARK    5  A    between atoms: C_4  and  C_6
REMARK    6  A    between atoms: C_8  and  O_9
REMARK    7  A    between atoms: C_10  and  O_11
REMARK                            x       y       z     vdW  Elec       q    Type
REMARK                         _______ _______ _______ _____ _____    ______ ____
ROOT
ATOM      1  C   UNL     1      -8.070   2.202 123.368  0.00  0.00    +0.000 A 
ATOM      2  C   UNL     1      -9.450   1.955 123.263  0.00  0.00    +0.000 A 
ATOM      3  C   UNL     1      -9.971   0.694 123.048  0.00  0.00    +0.000 A 
ATOM      4  C   UNL     1      -9.144  -0.406 123.173  0.00  0.00    +0.000 A 
ATOM      5  C   UNL     1      -7.805  -0.229 123.476  0.00  0.00    +0.000 A 
ATOM      6  C   UNL     1      -7.261   1.063 123.548  0.00  0.00    +0.000 A 
ENDROOT
BRANCH   3   7
ATOM      7  O   UNL     1     -11.289   0.515 122.737  0.00  0.00    +0.000 OA
ATOM      8  H   UNL     1     -11.359  -0.271 122.162  0.00  0.00    +0.000 HD
ENDBRANCH   3   7
BRANCH   4   9
ATOM      9  O   UNL     1      -9.670  -1.654 123.037  0.00  0.00    +0.000 OA
ATOM     10  H   UNL     1     -10.407  -1.539 122.402  0.00  0.00    +0.000 HD
ENDBRANCH   4   9
BRANCH   1  11
ATOM     11  C   UNL     1      -7.426   3.596 123.363  0.00  0.00    +0.000 C 
BRANCH  11  12
ATOM     12  O   UNL     1      -8.004   4.355 124.448  0.00  0.00    +0.000 OA
ATOM     13  H   UNL     1      -8.845   3.920 124.675  0.00  0.00    +0.000 HD
ENDBRANCH  11  12
BRANCH  11  14
ATOM     14  C   UNL     1      -5.862   3.762 123.515  0.00  0.00    +0.000 C 
BRANCH  14  16
ATOM     15  C   UNL     1      -5.204   4.046 121.148  0.00  0.00    +0.000 C 
ATOM     16  N   UNL     1      -5.230   4.574 122.485  0.00  0.00    +0.000 NA
ATOM     17  H   UNL     1      -5.788   5.427 122.431  0.00  0.00    +0.000 HD
ENDBRANCH  14  16
ENDBRANCH  11  14
ENDBRANCH   1  11
TORSDOF 6
ENDMDL
MODEL 8
REMARK VINA RESULT:      -4.9      2.295      3.913
REMARK  Name = Epinephrine
REMARK  7 active torsions:
REMARK  status: ('A' for Active; 'I' for Inactive)
REMARK    1  A    between atoms: C_1  and  N_2
REMARK    2  A    between atoms: N_2  and  C_3
REMARK    3  A    between atoms: C_3  and  C_4
REMARK    4  A    between atoms: C_4  and  O_5
REMARK    5  A    between atoms: C_4  and  C_6
REMARK    6  A    between atoms: C_8  and  O_9
REMARK    7  A    between atoms: C_10  and  O_11
REMARK                            x       y       z     vdW  Elec       q    Type
REMARK                         _______ _______ _______ _____ _____    ______ ____
ROOT
ATOM      1  C   UNL     1     -12.265   7.706 129.356  0.00  0.00    +0.000 A 
ATOM      2  C   UNL     1     -12.744   7.196 128.137  0.00  0.00    +0.000 A 
ATOM      3  C   UNL     1     -11.915   6.889 127.076  0.00  0.00    +0.000 A 
ATOM      4  C   UNL     1     -10.548   6.853 127.279  0.00  0.00    +0.000 A 
ATOM      5  C   UNL     1     -10.030   7.156 128.527  0.00  0.00    +0.000 A 
ATOM      6  C   UNL     1     -10.874   7.606 129.553  0.00  0.00    +0.000 A 
ENDROOT
BRANCH   3   7
ATOM      7  O   UNL     1     -12.421   6.601 125.841  0.00  0.00    +0.000 OA
ATOM      8  H   UNL     1     -11.734   6.805 125.178  0.00  0.00    +0.000 HD
ENDBRANCH   3   7
BRANCH   4   9
ATOM      9  O   UNL     1      -9.733   6.477 126.256  0.00  0.00    +0.000 OA
ATOM     10  H   UNL     1     -10.186   6.804 125.452  0.00  0.00    +0.000 HD
ENDBRANCH   4   9
BRANCH   1  11
ATOM     11  C   UNL     1     -13.148   8.287 130.470  0.00  0.00    +0.000 C 
BRANCH  11  12
ATOM     12  O   UNL     1     -12.775   7.647 131.710  0.00  0.00    +0.000 OA
ATOM     13  H   UNL     1     -13.594   7.538 132.225  0.00  0.00    +0.000 HD
ENDBRANCH  11  12
BRANCH  11  14
ATOM     14  C   UNL     1     -13.143   9.838 130.776  0.00  0.00    +0.000 C 
BRANCH  14  16
ATOM     15  C   UNL     1     -13.887  11.880 129.595  0.00  0.00    +0.000 C 
ATOM     16  N   UNL     1     -13.076  10.693 129.600  0.00  0.00    +0.000 NA
ATOM     17  H   UNL     1     -12.110  11.021 129.557  0.00  0.00    +0.000 HD
ENDBRANCH  14  16
ENDBRANCH  11  14
ENDBRANCH   1  11
TORSDOF 6
ENDMDL
MODEL 9
REMARK VINA RESULT:      -4.9      9.057     10.748
REMARK  Name = Epinephrine
REMARK  7 active torsions:
REMARK  status: ('A' for Active; 'I' for Inactive)
REMARK    1  A    between atoms: C_1  and  N_2
REMARK    2  A    between atoms: N_2  and  C_3
REMARK    3  A    between atoms: C_3  and  C_4
REMARK    4  A    between atoms: C_4  and  O_5
REMARK    5  A    between atoms: C_4  and  C_6
REMARK    6  A    between atoms: C_8  and  O_9
REMARK    7  A    between atoms: C_10  and  O_11
REMARK                            x       y       z     vdW  Elec       q    Type
REMARK                         _______ _______ _______ _____ _____    ______ ____
ROOT
ATOM      1  C   UNL     1      -6.965   3.256 122.498  0.00  0.00    +0.000 A 
ATOM      2  C   UNL     1      -8.159   3.221 121.758  0.00  0.00    +0.000 A 
ATOM      3  C   UNL     1      -8.278   3.781 120.501  0.00  0.00    +0.000 A 
ATOM      4  C   UNL     1      -7.138   4.185 119.834  0.00  0.00    +0.000 A 
ATOM      5  C   UNL     1      -5.901   4.056 120.444  0.00  0.00    +0.000 A 
ATOM      6  C   UNL     1      -5.812   3.621 121.775  0.00  0.00    +0.000 A 
ENDROOT
BRANCH   3   7
ATOM      7  O   UNL     1      -9.497   3.921 119.900  0.00  0.00    +0.000 OA
ATOM      8  H   UNL     1      -9.645   4.873 119.739  0.00  0.00    +0.000 HD
ENDBRANCH   3   7
BRANCH   4   9
ATOM      9  O   UNL     1      -7.243   4.667 118.566  0.00  0.00    +0.000 OA
ATOM     10  H   UNL     1      -6.376   5.088 118.393  0.00  0.00    +0.000 HD
ENDBRANCH   4   9
BRANCH   1  11
ATOM     11  C   UNL     1      -6.840   2.872 123.979  0.00  0.00    +0.000 C 
BRANCH  11  12
ATOM     12  O   UNL     1      -5.810   3.698 124.566  0.00  0.00    +0.000 OA
ATOM     13  H   UNL     1      -5.716   3.411 125.492  0.00  0.00    +0.000 HD
ENDBRANCH  11  12
BRANCH  11  14
ATOM     14  C   UNL     1      -8.081   2.990 124.951  0.00  0.00    +0.000 C 
BRANCH  14  16
ATOM     15  C   UNL     1      -8.370   5.169 126.085  0.00  0.00    +0.000 C 
ATOM     16  N   UNL     1      -8.706   4.304 124.987  0.00  0.00    +0.000 NA
ATOM     17  H   UNL     1      -8.376   4.785 124.149  0.00  0.00    +0.000 HD
ENDBRANCH  14  16
ENDBRANCH  11  14
ENDBRANCH   1  11
TORSDOF 6
ENDMDL
