MODEL 1
REMARK VINA RESULT:      -7.2      0.000      0.000
REMARK  Name = Epinastine
REMARK  0 active torsions:
REMARK  status: ('A' for Active; 'I' for Inactive)
REMARK                            x       y       z     vdW  Elec       q    Type
REMARK                         _______ _______ _______ _____ _____    ______ ____
ROOT
ATOM      1  N   UNL     1      -9.528   0.611 123.942  0.00  0.00    +0.000 N 
ATOM      2  C   UNL     1      -8.896   0.425 125.120  0.00  0.00    +0.000 C 
ATOM      3  N   UNL     1      -9.406   1.105 126.117  0.00  0.00    +0.000 NA
ATOM      4  C   UNL     1      -8.236   1.163 127.014  0.00  0.00    +0.000 C 
ATOM      5  C   UNL     1      -7.294  -0.054 126.724  0.00  0.00    +0.000 C 
ATOM      6  N   UNL     1      -7.706  -0.272 125.328  0.00  0.00    +0.000 N 
ATOM      7  C   UNL     1      -7.467  -1.480 124.615  0.00  0.00    +0.000 A 
ATOM      8  C   UNL     1      -7.572  -1.326 123.221  0.00  0.00    +0.000 A 
ATOM      9  C   UNL     1      -8.619  -1.982 122.577  0.00  0.00    +0.000 A 
ATOM     10  C   UNL     1      -9.370  -2.920 123.278  0.00  0.00    +0.000 A 
ATOM     11  C   UNL     1      -8.946  -3.345 124.535  0.00  0.00    +0.000 A 
ATOM     12  C   UNL     1      -7.910  -2.677 125.192  0.00  0.00    +0.000 A 
ATOM     13  C   UNL     1      -7.385  -3.221 126.486  0.00  0.00    +0.000 C 
ATOM     14  C   UNL     1      -7.671  -2.447 127.742  0.00  0.00    +0.000 A 
ATOM     15  C   UNL     1      -8.038  -3.190 128.896  0.00  0.00    +0.000 A 
ATOM     16  C   UNL     1      -8.223  -2.587 130.141  0.00  0.00    +0.000 A 
ATOM     17  C   UNL     1      -7.931  -1.249 130.286  0.00  0.00    +0.000 A 
ATOM     18  C   UNL     1      -7.510  -0.527 129.175  0.00  0.00    +0.000 A 
ATOM     19  C   UNL     1      -7.497  -1.065 127.856  0.00  0.00    +0.000 A 
ATOM     20  H   UNL     1     -10.424   1.061 124.088  0.00  0.00    +0.000 HD
ATOM     21  H   UNL     1      -9.631  -0.162 123.309  0.00  0.00    +0.000 HD
ENDROOT
TORSDOF 0
ENDMDL
MODEL 2
REMARK VINA RESULT:      -7.1      2.521      4.981
REMARK  Name = Epinastine
REMARK  0 active torsions:
REMARK  status: ('A' for Active; 'I' for Inactive)
REMARK                            x       y       z     vdW  Elec       q    Type
REMARK                         _______ _______ _______ _____ _____    ______ ____
ROOT
ATOM      1  N   UNL     1      -6.383  -2.574 125.836  0.00  0.00    +0.000 N 
ATOM      2  C   UNL     1      -6.386  -1.227 125.738  0.00  0.00    +0.000 C 
ATOM      3  N   UNL     1      -5.193  -0.685 125.728  0.00  0.00    +0.000 NA
ATOM      4  C   UNL     1      -5.523   0.673 126.196  0.00  0.00    +0.000 C 
ATOM      5  C   UNL     1      -7.012   1.001 125.843  0.00  0.00    +0.000 C 
ATOM      6  N   UNL     1      -7.498  -0.388 125.804  0.00  0.00    +0.000 N 
ATOM      7  C   UNL     1      -8.711  -0.781 125.172  0.00  0.00    +0.000 A 
ATOM      8  C   UNL     1      -9.169  -2.042 125.597  0.00  0.00    +0.000 A 
ATOM      9  C   UNL     1      -9.173  -3.074 124.662  0.00  0.00    +0.000 A 
ATOM     10  C   UNL     1      -8.945  -2.782 123.321  0.00  0.00    +0.000 A 
ATOM     11  C   UNL     1      -8.923  -1.455 122.898  0.00  0.00    +0.000 A 
ATOM     12  C   UNL     1      -8.899  -0.417 123.833  0.00  0.00    +0.000 A 
ATOM     13  C   UNL     1      -9.000   1.002 123.362  0.00  0.00    +0.000 C 
ATOM     14  C   UNL     1      -7.780   1.871 123.485  0.00  0.00    +0.000 A 
ATOM     15  C   UNL     1      -7.482   2.733 122.395  0.00  0.00    +0.000 A 
ATOM     16  C   UNL     1      -6.438   3.658 122.441  0.00  0.00    +0.000 A 
ATOM     17  C   UNL     1      -5.744   3.825 123.619  0.00  0.00    +0.000 A 
ATOM     18  C   UNL     1      -6.072   3.030 124.712  0.00  0.00    +0.000 A 
ATOM     19  C   UNL     1      -6.996   1.948 124.639  0.00  0.00    +0.000 A 
ATOM     20  H   UNL     1      -5.457  -2.940 125.651  0.00  0.00    +0.000 HD
ATOM     21  H   UNL     1      -7.071  -3.107 125.335  0.00  0.00    +0.000 HD
ENDROOT
TORSDOF 0
ENDMDL
MODEL 3
REMARK VINA RESULT:      -6.9      1.959      5.133
REMARK  Name = Epinastine
REMARK  0 active torsions:
REMARK  status: ('A' for Active; 'I' for Inactive)
REMARK                            x       y       z     vdW  Elec       q    Type
REMARK                         _______ _______ _______ _____ _____    ______ ____
ROOT
ATOM      1  N   UNL     1      -5.238  -0.375 129.647  0.00  0.00    +0.000 N 
ATOM      2  C   UNL     1      -6.076  -0.434 128.589  0.00  0.00    +0.000 C 
ATOM      3  N   UNL     1      -5.562   0.010 127.469  0.00  0.00    +0.000 NA
ATOM      4  C   UNL     1      -6.795   0.355 126.739  0.00  0.00    +0.000 C 
ATOM      5  C   UNL     1      -7.982  -0.516 127.274  0.00  0.00    +0.000 C 
ATOM      6  N   UNL     1      -7.431  -0.765 128.616  0.00  0.00    +0.000 N 
ATOM      7  C   UNL     1      -7.881  -1.808 129.471  0.00  0.00    +0.000 A 
ATOM      8  C   UNL     1      -7.518  -1.613 130.816  0.00  0.00    +0.000 A 
ATOM      9  C   UNL     1      -6.608  -2.508 131.374  0.00  0.00    +0.000 A 
ATOM     10  C   UNL     1      -6.270  -3.663 130.675  0.00  0.00    +0.000 A 
ATOM     11  C   UNL     1      -6.989  -4.016 129.536  0.00  0.00    +0.000 A 
ATOM     12  C   UNL     1      -7.888  -3.113 128.963  0.00  0.00    +0.000 A 
ATOM     13  C   UNL     1      -8.743  -3.554 127.813  0.00  0.00    +0.000 C 
ATOM     14  C   UNL     1      -8.455  -2.969 126.459  0.00  0.00    +0.000 A 
ATOM     15  C   UNL     1      -8.499  -3.850 125.345  0.00  0.00    +0.000 A 
ATOM     16  C   UNL     1      -8.352  -3.400 124.033  0.00  0.00    +0.000 A 
ATOM     17  C   UNL     1      -8.278  -2.045 123.795  0.00  0.00    +0.000 A 
ATOM     18  C   UNL     1      -8.299  -1.170 124.876  0.00  0.00    +0.000 A 
ATOM     19  C   UNL     1      -8.252  -1.605 126.232  0.00  0.00    +0.000 A 
ATOM     20  H   UNL     1      -4.288  -0.213 129.336  0.00  0.00    +0.000 HD
ATOM     21  H   UNL     1      -5.257  -1.107 130.334  0.00  0.00    +0.000 HD
ENDROOT
TORSDOF 0
ENDMDL
MODEL 4
REMARK VINA RESULT:      -6.9      1.633      2.426
REMARK  Name = Epinastine
REMARK  0 active torsions:
REMARK  status: ('A' for Active; 'I' for Inactive)
REMARK                            x       y       z     vdW  Elec       q    Type
REMARK                         _______ _______ _______ _____ _____    ______ ____
ROOT
ATOM      1  N   UNL     1     -10.130  -0.120 122.497  0.00  0.00    +0.000 N 
ATOM      2  C   UNL     1      -9.461   0.543 123.464  0.00  0.00    +0.000 C 
ATOM      3  N   UNL     1     -10.062   1.628 123.888  0.00  0.00    +0.000 NA
ATOM      4  C   UNL     1      -8.906   2.369 124.425  0.00  0.00    +0.000 C 
ATOM      5  C   UNL     1      -7.782   1.360 124.836  0.00  0.00    +0.000 C 
ATOM      6  N   UNL     1      -8.171   0.275 123.919  0.00  0.00    +0.000 N 
ATOM      7  C   UNL     1      -7.747  -1.075 124.072  0.00  0.00    +0.000 A 
ATOM      8  C   UNL     1      -7.893  -1.833 122.896  0.00  0.00    +0.000 A 
ATOM      9  C   UNL     1      -8.828  -2.866 122.908  0.00  0.00    +0.000 A 
ATOM     10  C   UNL     1      -9.407  -3.249 124.114  0.00  0.00    +0.000 A 
ATOM     11  C   UNL     1      -8.903  -2.748 125.312  0.00  0.00    +0.000 A 
ATOM     12  C   UNL     1      -7.981  -1.698 125.304  0.00  0.00    +0.000 A 
ATOM     13  C   UNL     1      -7.358  -1.254 126.593  0.00  0.00    +0.000 C 
ATOM     14  C   UNL     1      -7.750   0.091 127.137  0.00  0.00    +0.000 A 
ATOM     15  C   UNL     1      -7.975   0.187 128.536  0.00  0.00    +0.000 A 
ATOM     16  C   UNL     1      -8.241   1.403 129.166  0.00  0.00    +0.000 A 
ATOM     17  C   UNL     1      -8.170   2.566 128.430  0.00  0.00    +0.000 A 
ATOM     18  C   UNL     1      -7.886   2.487 127.071  0.00  0.00    +0.000 A 
ATOM     19  C   UNL     1      -7.803   1.253 126.363  0.00  0.00    +0.000 A 
ATOM     20  H   UNL     1     -11.085   0.212 122.436  0.00  0.00    +0.000 HD
ATOM     21  H   UNL     1     -10.114  -1.124 122.484  0.00  0.00    +0.000 HD
ENDROOT
TORSDOF 0
ENDMDL
MODEL 5
REMARK VINA RESULT:      -6.9      6.989      9.098
REMARK  Name = Epinastine
REMARK  0 active torsions:
REMARK  status: ('A' for Active; 'I' for Inactive)
REMARK                            x       y       z     vdW  Elec       q    Type
REMARK                         _______ _______ _______ _____ _____    ______ ____
ROOT
ATOM      1  N   UNL     1     -11.152   3.765 130.688  0.00  0.00    +0.000 N 
ATOM      2  C   UNL     1      -9.849   3.677 131.029  0.00  0.00    +0.000 C 
ATOM      3  N   UNL     1      -9.240   2.615 130.562  0.00  0.00    +0.000 NA
ATOM      4  C   UNL     1      -8.131   2.509 131.528  0.00  0.00    +0.000 C 
ATOM      5  C   UNL     1      -7.826   3.920 132.133  0.00  0.00    +0.000 C 
ATOM      6  N   UNL     1      -9.165   4.497 131.926  0.00  0.00    +0.000 N 
ATOM      7  C   UNL     1      -9.431   5.895 131.941  0.00  0.00    +0.000 A 
ATOM      8  C   UNL     1     -10.793   6.193 132.127  0.00  0.00    +0.000 A 
ATOM      9  C   UNL     1     -11.472   6.792 131.068  0.00  0.00    +0.000 A 
ATOM     10  C   UNL     1     -10.751   7.267 129.977  0.00  0.00    +0.000 A 
ATOM     11  C   UNL     1      -9.361   7.330 130.042  0.00  0.00    +0.000 A 
ATOM     12  C   UNL     1      -8.676   6.714 131.092  0.00  0.00    +0.000 A 
ATOM     13  C   UNL     1      -7.193   6.896 131.213  0.00  0.00    +0.000 C 
ATOM     14  C   UNL     1      -6.315   5.708 130.938  0.00  0.00    +0.000 A 
ATOM     15  C   UNL     1      -5.131   5.933 130.186  0.00  0.00    +0.000 A 
ATOM     16  C   UNL     1      -4.189   4.928 129.961  0.00  0.00    +0.000 A 
ATOM     17  C   UNL     1      -4.352   3.709 130.581  0.00  0.00    +0.000 A 
ATOM     18  C   UNL     1      -5.476   3.500 131.372  0.00  0.00    +0.000 A 
ATOM     19  C   UNL     1      -6.548   4.434 131.465  0.00  0.00    +0.000 A 
ATOM     20  H   UNL     1     -11.366   3.115 129.940  0.00  0.00    +0.000 HD
ATOM     21  H   UNL     1     -11.551   4.664 130.487  0.00  0.00    +0.000 HD
ENDROOT
TORSDOF 0
ENDMDL
MODEL 6
REMARK VINA RESULT:      -6.7      1.721      2.736
REMARK  Name = Epinastine
REMARK  0 active torsions:
REMARK  status: ('A' for Active; 'I' for Inactive)
REMARK                            x       y       z     vdW  Elec       q    Type
REMARK                         _______ _______ _______ _____ _____    ______ ____
ROOT
ATOM      1  N   UNL     1      -8.228   3.102 125.830  0.00  0.00    +0.000 N 
ATOM      2  C   UNL     1      -7.871   1.902 126.334  0.00  0.00    +0.000 C 
ATOM      3  N   UNL     1      -8.156   1.743 127.603  0.00  0.00    +0.000 NA
ATOM      4  C   UNL     1      -7.181   0.696 127.958  0.00  0.00    +0.000 C 
ATOM      5  C   UNL     1      -6.812  -0.130 126.680  0.00  0.00    +0.000 C 
ATOM      6  N   UNL     1      -7.116   0.919 125.693  0.00  0.00    +0.000 N 
ATOM      7  C   UNL     1      -7.329   0.662 124.310  0.00  0.00    +0.000 A 
ATOM      8  C   UNL     1      -7.200   1.813 123.511  0.00  0.00    +0.000 A 
ATOM      9  C   UNL     1      -8.346   2.287 122.875  0.00  0.00    +0.000 A 
ATOM     10  C   UNL     1      -9.496   1.504 122.869  0.00  0.00    +0.000 A 
ATOM     11  C   UNL     1      -9.436   0.184 123.308  0.00  0.00    +0.000 A 
ATOM     12  C   UNL     1      -8.297  -0.289 123.963  0.00  0.00    +0.000 A 
ATOM     13  C   UNL     1      -8.200  -1.742 124.319  0.00  0.00    +0.000 C 
ATOM     14  C   UNL     1      -8.274  -2.116 125.773  0.00  0.00    +0.000 A 
ATOM     15  C   UNL     1      -9.047  -3.259 126.112  0.00  0.00    +0.000 A 
ATOM     16  C   UNL     1      -9.102  -3.760 127.414  0.00  0.00    +0.000 A 
ATOM     17  C   UNL     1      -8.292  -3.203 128.379  0.00  0.00    +0.000 A 
ATOM     18  C   UNL     1      -7.483  -2.125 128.040  0.00  0.00    +0.000 A 
ATOM     19  C   UNL     1      -7.549  -1.469 126.776  0.00  0.00    +0.000 A 
ATOM     20  H   UNL     1      -8.861   3.577 126.463  0.00  0.00    +0.000 HD
ATOM     21  H   UNL     1      -8.574   3.160 124.889  0.00  0.00    +0.000 HD
ENDROOT
TORSDOF 0
ENDMDL
MODEL 7
REMARK VINA RESULT:      -6.6      7.047      8.836
REMARK  Name = Epinastine
REMARK  0 active torsions:
REMARK  status: ('A' for Active; 'I' for Inactive)
REMARK                            x       y       z     vdW  Elec       q    Type
REMARK                         _______ _______ _______ _____ _____    ______ ____
ROOT
ATOM      1  N   UNL     1      -5.867   2.681 128.566  0.00  0.00    +0.000 N 
ATOM      2  C   UNL     1      -5.530   3.741 129.331  0.00  0.00    +0.000 C 
ATOM      3  N   UNL     1      -5.729   3.565 130.614  0.00  0.00    +0.000 NA
ATOM      4  C   UNL     1      -5.842   4.968 131.052  0.00  0.00    +0.000 C 
ATOM      5  C   UNL     1      -5.064   5.892 130.056  0.00  0.00    +0.000 C 
ATOM      6  N   UNL     1      -5.154   5.007 128.883  0.00  0.00    +0.000 N 
ATOM      7  C   UNL     1      -4.313   5.125 127.741  0.00  0.00    +0.000 A 
ATOM      8  C   UNL     1      -4.827   4.466 126.609  0.00  0.00    +0.000 A 
ATOM      9  C   UNL     1      -4.126   3.360 126.134  0.00  0.00    +0.000 A 
ATOM     10  C   UNL     1      -2.858   3.087 126.640  0.00  0.00    +0.000 A 
ATOM     11  C   UNL     1      -2.222   4.024 127.451  0.00  0.00    +0.000 A 
ATOM     12  C   UNL     1      -2.928   5.123 127.945  0.00  0.00    +0.000 A 
ATOM     13  C   UNL     1      -2.198   6.183 128.713  0.00  0.00    +0.000 C 
ATOM     14  C   UNL     1      -2.471   6.297 130.187  0.00  0.00    +0.000 A 
ATOM     15  C   UNL     1      -1.357   6.521 131.040  0.00  0.00    +0.000 A 
ATOM     16  C   UNL     1      -1.502   6.747 132.409  0.00  0.00    +0.000 A 
ATOM     17  C   UNL     1      -2.769   6.872 132.936  0.00  0.00    +0.000 A 
ATOM     18  C   UNL     1      -3.866   6.718 132.095  0.00  0.00    +0.000 A 
ATOM     19  C   UNL     1      -3.754   6.296 130.739  0.00  0.00    +0.000 A 
ATOM     20  H   UNL     1      -5.996   1.857 129.141  0.00  0.00    +0.000 HD
ATOM     21  H   UNL     1      -5.311   2.456 127.761  0.00  0.00    +0.000 HD
ENDROOT
TORSDOF 0
ENDMDL
MODEL 8
REMARK VINA RESULT:      -6.5      6.846      8.377
REMARK  Name = Epinastine
REMARK  0 active torsions:
REMARK  status: ('A' for Active; 'I' for Inactive)
REMARK                            x       y       z     vdW  Elec       q    Type
REMARK                         _______ _______ _______ _____ _____    ______ ____
ROOT
ATOM      1  N   UNL     1      -2.586   6.790 127.999  0.00  0.00    +0.000 N 
ATOM      2  C   UNL     1      -3.574   6.692 128.915  0.00  0.00    +0.000 C 
ATOM      3  N   UNL     1      -4.105   7.838 129.259  0.00  0.00    +0.000 NA
ATOM      4  C   UNL     1      -4.651   7.482 130.582  0.00  0.00    +0.000 C 
ATOM      5  C   UNL     1      -4.936   5.943 130.633  0.00  0.00    +0.000 C 
ATOM      6  N   UNL     1      -3.954   5.544 129.611  0.00  0.00    +0.000 N 
ATOM      7  C   UNL     1      -3.984   4.292 128.936  0.00  0.00    +0.000 A 
ATOM      8  C   UNL     1      -2.759   3.968 128.324  0.00  0.00    +0.000 A 
ATOM      9  C   UNL     1      -2.728   3.918 126.932  0.00  0.00    +0.000 A 
ATOM     10  C   UNL     1      -3.924   3.965 126.221  0.00  0.00    +0.000 A 
ATOM     11  C   UNL     1      -5.136   3.853 126.898  0.00  0.00    +0.000 A 
ATOM     12  C   UNL     1      -5.172   3.924 128.293  0.00  0.00    +0.000 A 
ATOM     13  C   UNL     1      -6.465   3.678 129.010  0.00  0.00    +0.000 C 
ATOM     14  C   UNL     1      -7.128   4.847 129.683  0.00  0.00    +0.000 A 
ATOM     15  C   UNL     1      -8.539   4.958 129.556  0.00  0.00    +0.000 A 
ATOM     16  C   UNL     1      -9.271   5.941 130.224  0.00  0.00    +0.000 A 
ATOM     17  C   UNL     1      -8.626   6.758 131.127  0.00  0.00    +0.000 A 
ATOM     18  C   UNL     1      -7.255   6.613 131.306  0.00  0.00    +0.000 A 
ATOM     19  C   UNL     1      -6.450   5.756 130.500  0.00  0.00    +0.000 A 
ATOM     20  H   UNL     1      -2.590   7.709 127.572  0.00  0.00    +0.000 HD
ATOM     21  H   UNL     1      -2.494   6.082 127.293  0.00  0.00    +0.000 HD
ENDROOT
TORSDOF 0
ENDMDL
MODEL 9
REMARK VINA RESULT:      -6.5      6.767      9.389
REMARK  Name = Epinastine
REMARK  0 active torsions:
REMARK  status: ('A' for Active; 'I' for Inactive)
REMARK                            x       y       z     vdW  Elec       q    Type
REMARK                         _______ _______ _______ _____ _____    ______ ____
ROOT
ATOM      1  N   UNL     1      -7.403   2.584 130.210  0.00  0.00    +0.000 N 
ATOM      2  C   UNL     1      -8.059   3.738 129.965  0.00  0.00    +0.000 C 
ATOM      3  N   UNL     1      -8.778   3.726 128.869  0.00  0.00    +0.000 NA
ATOM      4  C   UNL     1      -8.850   5.173 128.594  0.00  0.00    +0.000 C 
ATOM      5  C   UNL     1      -8.681   5.969 129.931  0.00  0.00    +0.000 C 
ATOM      6  N   UNL     1      -7.921   4.940 130.659  0.00  0.00    +0.000 N 
ATOM      7  C   UNL     1      -7.778   4.920 132.074  0.00  0.00    +0.000 A 
ATOM      8  C   UNL     1      -6.709   4.114 132.507  0.00  0.00    +0.000 A 
ATOM      9  C   UNL     1      -7.021   2.964 133.230  0.00  0.00    +0.000 A 
ATOM     10  C   UNL     1      -8.324   2.774 133.681  0.00  0.00    +0.000 A 
ATOM     11  C   UNL     1      -9.245   3.815 133.590  0.00  0.00    +0.000 A 
ATOM     12  C   UNL     1      -8.943   4.960 132.850  0.00  0.00    +0.000 A 
ATOM     13  C   UNL     1      -9.893   6.119 132.865  0.00  0.00    +0.000 C 
ATOM     14  C   UNL     1     -10.656   6.419 131.605  0.00  0.00    +0.000 A 
ATOM     15  C   UNL     1     -12.028   6.765 131.740  0.00  0.00    +0.000 A 
ATOM     16  C   UNL     1     -12.806   7.164 130.652  0.00  0.00    +0.000 A 
ATOM     17  C   UNL     1     -12.201   7.340 129.427  0.00  0.00    +0.000 A 
ATOM     18  C   UNL     1     -10.844   7.066 129.300  0.00  0.00    +0.000 A 
ATOM     19  C   UNL     1     -10.068   6.474 130.338  0.00  0.00    +0.000 A 
ATOM     20  H   UNL     1      -7.766   1.839 129.627  0.00  0.00    +0.000 HD
ATOM     21  H   UNL     1      -7.304   2.263 131.157  0.00  0.00    +0.000 HD
ENDROOT
TORSDOF 0
ENDMDL
