MODEL 1
REMARK VINA RESULT:      -8.8      0.000      0.000
REMARK  Name = Epirubicin
REMARK  13 active torsions:
REMARK  status: ('A' for Active; 'I' for Inactive)
REMARK    1  A    between atoms: C_1  and  O_2
REMARK    2  A    between atoms: O_2  and  C_3
REMARK    3  A    between atoms: C_12  and  O_13
REMARK    4  A    between atoms: C_17  and  O_18
REMARK    5  A    between atoms: C_17  and  C_31
REMARK    6  A    between atoms: C_20  and  O_21
REMARK    7  A    between atoms: O_21  and  C_22
REMARK    8  A    between atoms: C_24  and  N_25
REMARK    9  A    between atoms: C_26  and  O_27
REMARK   10  A    between atoms: C_28  and  C_29
REMARK   11  A    between atoms: C_31  and  C_33
REMARK   12  A    between atoms: C_33  and  O_34
REMARK   13  A    between atoms: C_35  and  O_36
REMARK                            x       y       z     vdW  Elec       q    Type
REMARK                         _______ _______ _______ _____ _____    ______ ____
ROOT
ATOM      1  C   UNL     1      -8.221  -1.169 123.865  0.00  0.00    +0.000 A 
ATOM      2  C   UNL     1      -7.953  -2.426 123.299  0.00  0.00    +0.000 A 
ATOM      3  C   UNL     1      -7.479  -3.488 124.076  0.00  0.00    +0.000 A 
ATOM      4  C   UNL     1      -7.266  -3.304 125.435  0.00  0.00    +0.000 A 
ATOM      5  C   UNL     1      -7.558  -2.065 126.016  0.00  0.00    +0.000 A 
ATOM      6  C   UNL     1      -8.067  -1.014 125.244  0.00  0.00    +0.000 A 
ATOM      7  C   UNL     1      -8.559   0.176 125.952  0.00  0.00    +0.000 C 
ATOM      8  O   UNL     1      -9.370   0.950 125.473  0.00  0.00    +0.000 OA
ATOM      9  C   UNL     1      -8.146   0.428 127.325  0.00  0.00    +0.000 A 
ATOM     10  C   UNL     1      -8.383   1.689 127.864  0.00  0.00    +0.000 A 
ATOM     11  C   UNL     1      -8.191   1.899 129.223  0.00  0.00    +0.000 A 
ATOM     12  C   UNL     1      -7.732   0.847 130.045  0.00  0.00    +0.000 A 
ATOM     13  C   UNL     1      -7.524   1.064 131.527  0.00  0.00    +0.000 C 
ATOM     14  C   UNL     1      -8.214   2.321 132.055  0.00  0.00    +0.000 C 
ATOM     15  C   UNL     1      -7.835   3.467 131.122  0.00  0.00    +0.000 C 
ATOM     16  C   UNL     1      -8.506   3.263 129.770  0.00  0.00    +0.000 C 
ATOM     17  C   UNL     1      -7.424  -0.391 129.467  0.00  0.00    +0.000 A 
ATOM     18  C   UNL     1      -7.632  -0.606 128.103  0.00  0.00    +0.000 A 
ATOM     19  C   UNL     1      -7.350  -1.916 127.469  0.00  0.00    +0.000 C 
ATOM     20  O   UNL     1      -6.929  -2.875 128.093  0.00  0.00    +0.000 OA
ENDROOT
BRANCH   1  22
ATOM     21  C   UNL     1     -10.050  -0.491 122.481  0.00  0.00    +0.000 C 
ATOM     22  O   UNL     1      -8.745  -0.235 123.011  0.00  0.00    +0.000 OA
ENDBRANCH   1  22
BRANCH  10  23
ATOM     23  O   UNL     1      -8.794   2.762 127.110  0.00  0.00    +0.000 OA
ATOM     24  H   UNL     1      -9.745   2.647 126.885  0.00  0.00    +0.000 HD
ENDBRANCH  10  23
BRANCH  14  25
ATOM     25  O   UNL     1      -9.631   2.117 132.123  0.00  0.00    +0.000 OA
ATOM     26  H   UNL     1      -9.869   1.300 131.632  0.00  0.00    +0.000 HD
ENDBRANCH  14  25
BRANCH  14  27
ATOM     27  C   UNL     1      -7.784   2.550 133.507  0.00  0.00    +0.000 C 
ATOM     28  O   UNL     1      -7.120   1.712 134.126  0.00  0.00    +0.000 OA
BRANCH  27  29
ATOM     29  C   UNL     1      -8.282   3.817 134.197  0.00  0.00    +0.000 C 
BRANCH  29  30
ATOM     30  O   UNL     1      -9.685   3.978 134.140  0.00  0.00    +0.000 OA
ATOM     31  H   UNL     1      -9.886   4.771 134.673  0.00  0.00    +0.000 HD
ENDBRANCH  29  30
ENDBRANCH  27  29
ENDBRANCH  14  27
BRANCH  17  32
ATOM     32  O   UNL     1      -6.927  -1.409 130.226  0.00  0.00    +0.000 OA
ATOM     33  H   UNL     1      -6.076  -1.211 130.638  0.00  0.00    +0.000 HD
ENDBRANCH  17  32
BRANCH  16  34
ATOM     34  O   UNL     1      -9.940   3.416 129.842  0.00  0.00    +0.000 OA
BRANCH  34  35
ATOM     35  C   UNL     1     -10.323   4.793 129.935  0.00  0.00    +0.000 C 
ATOM     36  C   UNL     1      -9.652   5.604 128.824  0.00  0.00    +0.000 C 
ATOM     37  C   UNL     1     -10.014   7.078 128.848  0.00  0.00    +0.000 C 
ATOM     38  C   UNL     1     -11.546   7.192 128.936  0.00  0.00    +0.000 C 
ATOM     39  C   UNL     1     -12.107   6.374 130.116  0.00  0.00    +0.000 C 
ATOM     40  C   UNL     1     -11.673   6.931 131.481  0.00  0.00    +0.000 C 
ATOM     41  O   UNL     1     -11.741   4.983 129.935  0.00  0.00    +0.000 OA
BRANCH  37  42
ATOM     42  N   UNL     1      -9.241   7.795 129.877  0.00  0.00    +0.000 NA
ATOM     43  H   UNL     1      -9.434   8.791 129.917  0.00  0.00    +0.000 HD
ATOM     44  H   UNL     1      -8.242   7.699 129.697  0.00  0.00    +0.000 HD
ENDBRANCH  37  42
BRANCH  38  45
ATOM     45  O   UNL     1     -12.105   6.691 127.708  0.00  0.00    +0.000 OA
ATOM     46  H   UNL     1     -12.460   5.797 127.887  0.00  0.00    +0.000 HD
ENDBRANCH  38  45
ENDBRANCH  34  35
ENDBRANCH  16  34
TORSDOF 11
ENDMDL
MODEL 2
REMARK VINA RESULT:      -8.6      2.280      3.318
REMARK  Name = Epirubicin
REMARK  13 active torsions:
REMARK  status: ('A' for Active; 'I' for Inactive)
REMARK    1  A    between atoms: C_1  and  O_2
REMARK    2  A    between atoms: O_2  and  C_3
REMARK    3  A    between atoms: C_12  and  O_13
REMARK    4  A    between atoms: C_17  and  O_18
REMARK    5  A    between atoms: C_17  and  C_31
REMARK    6  A    between atoms: C_20  and  O_21
REMARK    7  A    between atoms: O_21  and  C_22
REMARK    8  A    between atoms: C_24  and  N_25
REMARK    9  A    between atoms: C_26  and  O_27
REMARK   10  A    between atoms: C_28  and  C_29
REMARK   11  A    between atoms: C_31  and  C_33
REMARK   12  A    between atoms: C_33  and  O_34
REMARK   13  A    between atoms: C_35  and  O_36
REMARK                            x       y       z     vdW  Elec       q    Type
REMARK                         _______ _______ _______ _____ _____    ______ ____
ROOT
ATOM      1  C   UNL     1      -8.840  -0.611 123.688  0.00  0.00    +0.000 A 
ATOM      2  C   UNL     1      -9.132  -1.551 122.687  0.00  0.00    +0.000 A 
ATOM      3  C   UNL     1      -9.185  -2.921 122.967  0.00  0.00    +0.000 A 
ATOM      4  C   UNL     1      -8.946  -3.367 124.259  0.00  0.00    +0.000 A 
ATOM      5  C   UNL     1      -8.684  -2.437 125.271  0.00  0.00    +0.000 A 
ATOM      6  C   UNL     1      -8.667  -1.065 124.997  0.00  0.00    +0.000 A 
ATOM      7  C   UNL     1      -8.609  -0.142 126.138  0.00  0.00    +0.000 C 
ATOM      8  O   UNL     1      -8.991   1.014 126.082  0.00  0.00    +0.000 OA
ATOM      9  C   UNL     1      -8.161  -0.620 127.438  0.00  0.00    +0.000 A 
ATOM     10  C   UNL     1      -7.839   0.321 128.412  0.00  0.00    +0.000 A 
ATOM     11  C   UNL     1      -7.607  -0.095 129.716  0.00  0.00    +0.000 A 
ATOM     12  C   UNL     1      -7.671  -1.467 130.044  0.00  0.00    +0.000 A 
ATOM     13  C   UNL     1      -7.424  -1.930 131.462  0.00  0.00    +0.000 C 
ATOM     14  C   UNL     1      -7.512  -0.802 132.489  0.00  0.00    +0.000 C 
ATOM     15  C   UNL     1      -6.649   0.345 131.970  0.00  0.00    +0.000 C 
ATOM     16  C   UNL     1      -7.310   0.961 130.744  0.00  0.00    +0.000 C 
ATOM     17  C   UNL     1      -7.918  -2.403 129.032  0.00  0.00    +0.000 A 
ATOM     18  C   UNL     1      -8.167  -1.982 127.724  0.00  0.00    +0.000 A 
ATOM     19  C   UNL     1      -8.466  -2.947 126.639  0.00  0.00    +0.000 C 
ATOM     20  O   UNL     1      -8.520  -4.151 126.822  0.00  0.00    +0.000 OA
ENDROOT
BRANCH   1  22
ATOM     21  C   UNL     1     -10.052   1.135 122.592  0.00  0.00    +0.000 C 
ATOM     22  O   UNL     1      -8.886   0.701 123.299  0.00  0.00    +0.000 OA
ENDBRANCH   1  22
BRANCH  10  23
ATOM     23  O   UNL     1      -7.724   1.665 128.147  0.00  0.00    +0.000 OA
ATOM     24  H   UNL     1      -8.592   2.002 127.827  0.00  0.00    +0.000 HD
ENDBRANCH  10  23
BRANCH  14  25
ATOM     25  O   UNL     1      -8.877  -0.415 132.684  0.00  0.00    +0.000 OA
ATOM     26  H   UNL     1      -9.469  -1.152 132.418  0.00  0.00    +0.000 HD
ENDBRANCH  14  25
BRANCH  14  27
ATOM     27  C   UNL     1      -7.059  -1.336 133.852  0.00  0.00    +0.000 C 
ATOM     28  O   UNL     1      -6.345  -0.666 134.605  0.00  0.00    +0.000 OA
BRANCH  27  29
ATOM     29  C   UNL     1      -7.448  -2.767 134.210  0.00  0.00    +0.000 C 
BRANCH  29  30
ATOM     30  O   UNL     1      -8.804  -2.910 134.578  0.00  0.00    +0.000 OA
ATOM     31  H   UNL     1      -9.173  -3.595 133.987  0.00  0.00    +0.000 HD
ENDBRANCH  29  30
ENDBRANCH  27  29
ENDBRANCH  14  27
BRANCH  17  32
ATOM     32  O   UNL     1      -7.931  -3.739 129.308  0.00  0.00    +0.000 OA
ATOM     33  H   UNL     1      -8.432  -4.265 128.671  0.00  0.00    +0.000 HD
ENDBRANCH  17  32
BRANCH  16  34
ATOM     34  O   UNL     1      -8.536   1.649 131.070  0.00  0.00    +0.000 OA
BRANCH  34  35
ATOM     35  C   UNL     1      -8.299   2.789 131.904  0.00  0.00    +0.000 C 
ATOM     36  C   UNL     1      -8.515   4.079 131.110  0.00  0.00    +0.000 C 
ATOM     37  C   UNL     1      -8.290   5.338 131.927  0.00  0.00    +0.000 C 
ATOM     38  C   UNL     1      -9.091   5.209 133.234  0.00  0.00    +0.000 C 
ATOM     39  C   UNL     1      -8.761   3.896 133.972  0.00  0.00    +0.000 C 
ATOM     40  C   UNL     1      -7.313   3.857 134.488  0.00  0.00    +0.000 C 
ATOM     41  O   UNL     1      -9.079   2.779 133.104  0.00  0.00    +0.000 OA
BRANCH  37  42
ATOM     42  N   UNL     1      -6.853   5.630 132.063  0.00  0.00    +0.000 NA
ATOM     43  H   UNL     1      -6.390   5.839 131.184  0.00  0.00    +0.000 HD
ATOM     44  H   UNL     1      -6.368   4.828 132.464  0.00  0.00    +0.000 HD
ENDBRANCH  37  42
BRANCH  38  45
ATOM     45  O   UNL     1     -10.493   5.223 132.906  0.00  0.00    +0.000 OA
ATOM     46  H   UNL     1     -10.613   4.692 132.094  0.00  0.00    +0.000 HD
ENDBRANCH  38  45
ENDBRANCH  34  35
ENDBRANCH  16  34
TORSDOF 11
ENDMDL
MODEL 3
REMARK VINA RESULT:      -8.4      3.088      7.587
REMARK  Name = Epirubicin
REMARK  13 active torsions:
REMARK  status: ('A' for Active; 'I' for Inactive)
REMARK    1  A    between atoms: C_1  and  O_2
REMARK    2  A    between atoms: O_2  and  C_3
REMARK    3  A    between atoms: C_12  and  O_13
REMARK    4  A    between atoms: C_17  and  O_18
REMARK    5  A    between atoms: C_17  and  C_31
REMARK    6  A    between atoms: C_20  and  O_21
REMARK    7  A    between atoms: O_21  and  C_22
REMARK    8  A    between atoms: C_24  and  N_25
REMARK    9  A    between atoms: C_26  and  O_27
REMARK   10  A    between atoms: C_28  and  C_29
REMARK   11  A    between atoms: C_31  and  C_33
REMARK   12  A    between atoms: C_33  and  O_34
REMARK   13  A    between atoms: C_35  and  O_36
REMARK                            x       y       z     vdW  Elec       q    Type
REMARK                         _______ _______ _______ _____ _____    ______ ____
ROOT
ATOM      1  C   UNL     1     -11.765   7.967 128.207  0.00  0.00    +0.000 A 
ATOM      2  C   UNL     1     -12.641   8.998 128.583  0.00  0.00    +0.000 A 
ATOM      3  C   UNL     1     -13.019   9.182 129.917  0.00  0.00    +0.000 A 
ATOM      4  C   UNL     1     -12.523   8.333 130.895  0.00  0.00    +0.000 A 
ATOM      5  C   UNL     1     -11.626   7.320 130.537  0.00  0.00    +0.000 A 
ATOM      6  C   UNL     1     -11.220   7.160 129.207  0.00  0.00    +0.000 A 
ATOM      7  C   UNL     1     -10.115   6.230 128.939  0.00  0.00    +0.000 C 
ATOM      8  O   UNL     1      -9.412   6.297 127.945  0.00  0.00    +0.000 OA
ATOM      9  C   UNL     1      -9.757   5.221 129.925  0.00  0.00    +0.000 A 
ATOM     10  C   UNL     1      -8.918   4.182 129.532  0.00  0.00    +0.000 A 
ATOM     11  C   UNL     1      -8.396   3.324 130.491  0.00  0.00    +0.000 A 
ATOM     12  C   UNL     1      -8.738   3.489 131.851  0.00  0.00    +0.000 A 
ATOM     13  C   UNL     1      -8.172   2.562 132.903  0.00  0.00    +0.000 C 
ATOM     14  C   UNL     1      -6.961   1.766 132.417  0.00  0.00    +0.000 C 
ATOM     15  C   UNL     1      -7.340   1.148 131.074  0.00  0.00    +0.000 C 
ATOM     16  C   UNL     1      -7.457   2.247 130.027  0.00  0.00    +0.000 C 
ATOM     17  C   UNL     1      -9.647   4.491 132.214  0.00  0.00    +0.000 A 
ATOM     18  C   UNL     1     -10.159   5.364 131.251  0.00  0.00    +0.000 A 
ATOM     19  C   UNL     1     -11.094   6.456 131.609  0.00  0.00    +0.000 C 
ATOM     20  O   UNL     1     -11.464   6.661 132.752  0.00  0.00    +0.000 OA
ENDROOT
BRANCH   1  22
ATOM     21  C   UNL     1     -12.267   7.189 126.002  0.00  0.00    +0.000 C 
ATOM     22  O   UNL     1     -11.421   7.937 126.882  0.00  0.00    +0.000 OA
ENDBRANCH   1  22
BRANCH  10  23
ATOM     23  O   UNL     1      -8.580   3.947 128.221  0.00  0.00    +0.000 OA
ATOM     24  H   UNL     1      -7.681   4.312 128.054  0.00  0.00    +0.000 HD
ENDBRANCH  10  23
BRANCH  14  25
ATOM     25  O   UNL     1      -5.813   2.619 132.323  0.00  0.00    +0.000 OA
ATOM     26  H   UNL     1      -5.077   2.239 132.849  0.00  0.00    +0.000 HD
ENDBRANCH  14  25
BRANCH  14  27
ATOM     27  C   UNL     1      -6.590   0.729 133.482  0.00  0.00    +0.000 C 
ATOM     28  O   UNL     1      -6.265   1.064 134.626  0.00  0.00    +0.000 OA
BRANCH  27  29
ATOM     29  C   UNL     1      -6.549  -0.735 133.054  0.00  0.00    +0.000 C 
BRANCH  29  30
ATOM     30  O   UNL     1      -7.673  -1.480 133.474  0.00  0.00    +0.000 OA
ATOM     31  H   UNL     1      -7.418  -2.419 133.397  0.00  0.00    +0.000 HD
ENDBRANCH  29  30
ENDBRANCH  27  29
ENDBRANCH  14  27
BRANCH  17  32
ATOM     32  O   UNL     1     -10.038   4.639 133.512  0.00  0.00    +0.000 OA
ATOM     33  H   UNL     1      -9.894   3.854 134.056  0.00  0.00    +0.000 HD
ENDBRANCH  17  32
BRANCH  16  34
ATOM     34  O   UNL     1      -6.181   2.846 129.716  0.00  0.00    +0.000 OA
BRANCH  34  35
ATOM     35  C   UNL     1      -5.785   2.581 128.365  0.00  0.00    +0.000 C 
ATOM     36  C   UNL     1      -6.542   1.367 127.822  0.00  0.00    +0.000 C 
ATOM     37  C   UNL     1      -6.184   1.023 126.387  0.00  0.00    +0.000 C 
ATOM     38  C   UNL     1      -6.281   2.309 125.549  0.00  0.00    +0.000 C 
ATOM     39  C   UNL     1      -5.444   3.449 126.164  0.00  0.00    +0.000 C 
ATOM     40  C   UNL     1      -3.934   3.162 126.124  0.00  0.00    +0.000 C 
ATOM     41  O   UNL     1      -5.930   3.714 127.504  0.00  0.00    +0.000 OA
BRANCH  37  42
ATOM     42  N   UNL     1      -4.908   0.290 126.323  0.00  0.00    +0.000 NA
ATOM     43  H   UNL     1      -4.819  -0.311 125.509  0.00  0.00    +0.000 HD
ATOM     44  H   UNL     1      -4.805  -0.310 127.140  0.00  0.00    +0.000 HD
ENDBRANCH  37  42
BRANCH  38  45
ATOM     45  O   UNL     1      -7.661   2.713 125.501  0.00  0.00    +0.000 OA
ATOM     46  H   UNL     1      -7.741   3.556 125.992  0.00  0.00    +0.000 HD
ENDBRANCH  38  45
ENDBRANCH  34  35
ENDBRANCH  16  34
TORSDOF 11
ENDMDL
MODEL 4
REMARK VINA RESULT:      -8.4      1.629      2.123
REMARK  Name = Epirubicin
REMARK  13 active torsions:
REMARK  status: ('A' for Active; 'I' for Inactive)
REMARK    1  A    between atoms: C_1  and  O_2
REMARK    2  A    between atoms: O_2  and  C_3
REMARK    3  A    between atoms: C_12  and  O_13
REMARK    4  A    between atoms: C_17  and  O_18
REMARK    5  A    between atoms: C_17  and  C_31
REMARK    6  A    between atoms: C_20  and  O_21
REMARK    7  A    between atoms: O_21  and  C_22
REMARK    8  A    between atoms: C_24  and  N_25
REMARK    9  A    between atoms: C_26  and  O_27
REMARK   10  A    between atoms: C_28  and  C_29
REMARK   11  A    between atoms: C_31  and  C_33
REMARK   12  A    between atoms: C_33  and  O_34
REMARK   13  A    between atoms: C_35  and  O_36
REMARK                            x       y       z     vdW  Elec       q    Type
REMARK                         _______ _______ _______ _____ _____    ______ ____
ROOT
ATOM      1  C   UNL     1      -9.231  -0.166 123.704  0.00  0.00    +0.000 A 
ATOM      2  C   UNL     1      -9.260  -1.244 122.805  0.00  0.00    +0.000 A 
ATOM      3  C   UNL     1      -8.809  -2.515 123.176  0.00  0.00    +0.000 A 
ATOM      4  C   UNL     1      -8.322  -2.723 124.459  0.00  0.00    +0.000 A 
ATOM      5  C   UNL     1      -8.317  -1.665 125.373  0.00  0.00    +0.000 A 
ATOM      6  C   UNL     1      -8.801  -0.403 125.012  0.00  0.00    +0.000 A 
ATOM      7  C   UNL     1      -8.973   0.593 126.078  0.00  0.00    +0.000 C 
ATOM      8  O   UNL     1      -9.736   1.539 125.991  0.00  0.00    +0.000 OA
ATOM      9  C   UNL     1      -8.279   0.428 127.347  0.00  0.00    +0.000 A 
ATOM     10  C   UNL     1      -8.224   1.513 128.216  0.00  0.00    +0.000 A 
ATOM     11  C   UNL     1      -7.753   1.332 129.510  0.00  0.00    +0.000 A 
ATOM     12  C   UNL     1      -7.308   0.060 129.929  0.00  0.00    +0.000 A 
ATOM     13  C   UNL     1      -6.797  -0.149 131.337  0.00  0.00    +0.000 C 
ATOM     14  C   UNL     1      -7.186   0.978 132.293  0.00  0.00    +0.000 C 
ATOM     15  C   UNL     1      -6.823   2.292 131.608  0.00  0.00    +0.000 C 
ATOM     16  C   UNL     1      -7.757   2.522 130.427  0.00  0.00    +0.000 C 
ATOM     17  C   UNL     1      -7.297  -1.000 129.014  0.00  0.00    +0.000 A 
ATOM     18  C   UNL     1      -7.786  -0.821 127.718  0.00  0.00    +0.000 A 
ATOM     19  C   UNL     1      -7.821  -1.932 126.738  0.00  0.00    +0.000 C 
ATOM     20  O   UNL     1      -7.436  -3.058 127.002  0.00  0.00    +0.000 OA
ENDROOT
BRANCH   1  22
ATOM     21  C   UNL     1      -8.851   1.976 122.712  0.00  0.00    +0.000 C 
ATOM     22  O   UNL     1      -9.763   1.007 123.240  0.00  0.00    +0.000 OA
ENDBRANCH   1  22
BRANCH  10  23
ATOM     23  O   UNL     1      -8.607   2.784 127.854  0.00  0.00    +0.000 OA
ATOM     24  H   UNL     1      -8.619   2.844 126.871  0.00  0.00    +0.000 HD
ENDBRANCH  10  23
BRANCH  14  25
ATOM     25  O   UNL     1      -8.579   0.895 132.616  0.00  0.00    +0.000 OA
ATOM     26  H   UNL     1      -9.091   1.482 132.018  0.00  0.00    +0.000 HD
ENDBRANCH  14  25
BRANCH  14  27
ATOM     27  C   UNL     1      -6.463   0.767 133.627  0.00  0.00    +0.000 C 
ATOM     28  O   UNL     1      -6.635  -0.253 134.303  0.00  0.00    +0.000 OA
BRANCH  27  29
ATOM     29  C   UNL     1      -5.587   1.906 134.140  0.00  0.00    +0.000 C 
BRANCH  29  30
ATOM     30  O   UNL     1      -4.305   1.489 134.562  0.00  0.00    +0.000 OA
ATOM     31  H   UNL     1      -3.720   2.264 134.454  0.00  0.00    +0.000 HD
ENDBRANCH  29  30
ENDBRANCH  27  29
ENDBRANCH  14  27
BRANCH  17  32
ATOM     32  O   UNL     1      -6.822  -2.227 129.375  0.00  0.00    +0.000 OA
ATOM     33  H   UNL     1      -7.053  -2.933 128.757  0.00  0.00    +0.000 HD
ENDBRANCH  17  32
BRANCH  16  34
ATOM     34  O   UNL     1      -9.114   2.782 130.845  0.00  0.00    +0.000 OA
BRANCH  34  35
ATOM     35  C   UNL     1      -9.454   4.167 130.713  0.00  0.00    +0.000 C 
ATOM     36  C   UNL     1     -10.877   4.312 130.169  0.00  0.00    +0.000 C 
ATOM     37  C   UNL     1     -11.319   5.755 130.007  0.00  0.00    +0.000 C 
ATOM     38  C   UNL     1     -11.020   6.497 131.321  0.00  0.00    +0.000 C 
ATOM     39  C   UNL     1      -9.549   6.320 131.749  0.00  0.00    +0.000 C 
ATOM     40  C   UNL     1      -8.566   6.994 130.778  0.00  0.00    +0.000 C 
ATOM     41  O   UNL     1      -9.282   4.906 131.927  0.00  0.00    +0.000 OA
BRANCH  37  42
ATOM     42  N   UNL     1     -10.759   6.344 128.778  0.00  0.00    +0.000 NA
ATOM     43  H   UNL     1     -11.454   6.771 128.173  0.00  0.00    +0.000 HD
ATOM     44  H   UNL     1     -10.294   5.625 128.224  0.00  0.00    +0.000 HD
ENDBRANCH  37  42
BRANCH  38  45
ATOM     45  O   UNL     1     -11.876   5.959 132.346  0.00  0.00    +0.000 OA
ATOM     46  H   UNL     1     -12.261   6.713 132.837  0.00  0.00    +0.000 HD
ENDBRANCH  38  45
ENDBRANCH  34  35
ENDBRANCH  16  34
TORSDOF 11
ENDMDL
MODEL 5
REMARK VINA RESULT:      -8.4      2.978      8.192
REMARK  Name = Epirubicin
REMARK  13 active torsions:
REMARK  status: ('A' for Active; 'I' for Inactive)
REMARK    1  A    between atoms: C_1  and  O_2
REMARK    2  A    between atoms: O_2  and  C_3
REMARK    3  A    between atoms: C_12  and  O_13
REMARK    4  A    between atoms: C_17  and  O_18
REMARK    5  A    between atoms: C_17  and  C_31
REMARK    6  A    between atoms: C_20  and  O_21
REMARK    7  A    between atoms: O_21  and  C_22
REMARK    8  A    between atoms: C_24  and  N_25
REMARK    9  A    between atoms: C_26  and  O_27
REMARK   10  A    between atoms: C_28  and  C_29
REMARK   11  A    between atoms: C_31  and  C_33
REMARK   12  A    between atoms: C_33  and  O_34
REMARK   13  A    between atoms: C_35  and  O_36
REMARK                            x       y       z     vdW  Elec       q    Type
REMARK                         _______ _______ _______ _____ _____    ______ ____
ROOT
ATOM      1  C   UNL     1      -9.920   5.165 130.335  0.00  0.00    +0.000 A 
ATOM      2  C   UNL     1     -10.131   6.187 131.275  0.00  0.00    +0.000 A 
ATOM      3  C   UNL     1      -9.761   6.032 132.615  0.00  0.00    +0.000 A 
ATOM      4  C   UNL     1      -9.172   4.847 133.032  0.00  0.00    +0.000 A 
ATOM      5  C   UNL     1      -8.928   3.833 132.099  0.00  0.00    +0.000 A 
ATOM      6  C   UNL     1      -9.266   4.003 130.752  0.00  0.00    +0.000 A 
ATOM      7  C   UNL     1      -8.782   2.999 129.795  0.00  0.00    +0.000 C 
ATOM      8  O   UNL     1      -8.645   3.222 128.605  0.00  0.00    +0.000 OA
ATOM      9  C   UNL     1      -8.355   1.690 130.268  0.00  0.00    +0.000 A 
ATOM     10  C   UNL     1      -8.184   0.674 129.333  0.00  0.00    +0.000 A 
ATOM     11  C   UNL     1      -7.585  -0.518 129.718  0.00  0.00    +0.000 A 
ATOM     12  C   UNL     1      -7.179  -0.706 131.058  0.00  0.00    +0.000 A 
ATOM     13  C   UNL     1      -6.522  -1.998 131.487  0.00  0.00    +0.000 C 
ATOM     14  C   UNL     1      -6.010  -2.833 130.315  0.00  0.00    +0.000 C 
ATOM     15  C   UNL     1      -7.148  -2.932 129.303  0.00  0.00    +0.000 C 
ATOM     16  C   UNL     1      -7.377  -1.569 128.664  0.00  0.00    +0.000 C 
ATOM     17  C   UNL     1      -7.434   0.299 132.000  0.00  0.00    +0.000 A 
ATOM     18  C   UNL     1      -8.021   1.504 131.607  0.00  0.00    +0.000 A 
ATOM     19  C   UNL     1      -8.271   2.599 132.573  0.00  0.00    +0.000 C 
ATOM     20  O   UNL     1      -7.976   2.520 133.753  0.00  0.00    +0.000 OA
ENDROOT
BRANCH   1  22
ATOM     21  C   UNL     1     -10.493   6.845 128.733  0.00  0.00    +0.000 C 
ATOM     22  O   UNL     1     -10.264   5.467 129.045  0.00  0.00    +0.000 OA
ENDBRANCH   1  22
BRANCH  10  23
ATOM     23  O   UNL     1      -8.593   0.782 128.025  0.00  0.00    +0.000 OA
ATOM     24  H   UNL     1      -8.553  -0.108 127.605  0.00  0.00    +0.000 HD
ENDBRANCH  10  23
BRANCH  14  25
ATOM     25  O   UNL     1      -4.833  -2.235 129.758  0.00  0.00    +0.000 OA
ATOM     26  H   UNL     1      -4.112  -2.900 129.721  0.00  0.00    +0.000 HD
ENDBRANCH  14  25
BRANCH  14  27
ATOM     27  C   UNL     1      -5.544  -4.194 130.841  0.00  0.00    +0.000 C 
ATOM     28  O   UNL     1      -5.960  -5.253 130.359  0.00  0.00    +0.000 OA
BRANCH  27  29
ATOM     29  C   UNL     1      -4.612  -4.199 132.049  0.00  0.00    +0.000 C 
BRANCH  29  30
ATOM     30  O   UNL     1      -3.306  -3.745 131.759  0.00  0.00    +0.000 OA
ATOM     31  H   UNL     1      -3.381  -2.781 131.620  0.00  0.00    +0.000 HD
ENDBRANCH  29  30
ENDBRANCH  27  29
ENDBRANCH  14  27
BRANCH  17  32
ATOM     32  O   UNL     1      -7.102   0.124 133.311  0.00  0.00    +0.000 OA
ATOM     33  H   UNL     1      -6.159   0.227 133.493  0.00  0.00    +0.000 HD
ENDBRANCH  17  32
BRANCH  16  34
ATOM     34  O   UNL     1      -6.277  -1.167 127.820  0.00  0.00    +0.000 OA
BRANCH  34  35
ATOM     35  C   UNL     1      -6.351  -1.778 126.526  0.00  0.00    +0.000 C 
ATOM     36  C   UNL     1      -7.784  -1.712 125.992  0.00  0.00    +0.000 C 
ATOM     37  C   UNL     1      -7.946  -2.334 124.617  0.00  0.00    +0.000 C 
ATOM     38  C   UNL     1      -6.857  -1.753 123.699  0.00  0.00    +0.000 C 
ATOM     39  C   UNL     1      -5.453  -1.915 124.315  0.00  0.00    +0.000 C 
ATOM     40  C   UNL     1      -5.020  -3.386 124.422  0.00  0.00    +0.000 C 
ATOM     41  O   UNL     1      -5.420  -1.226 125.590  0.00  0.00    +0.000 OA
BRANCH  37  42
ATOM     42  N   UNL     1      -8.017  -3.802 124.706  0.00  0.00    +0.000 NA
ATOM     43  H   UNL     1      -8.538  -4.236 123.950  0.00  0.00    +0.000 HD
ATOM     44  H   UNL     1      -8.476  -4.081 125.573  0.00  0.00    +0.000 HD
ENDBRANCH  37  42
BRANCH  38  45
ATOM     45  O   UNL     1      -7.128  -0.353 123.509  0.00  0.00    +0.000 OA
ATOM     46  H   UNL     1      -7.094   0.078 124.386  0.00  0.00    +0.000 HD
ENDBRANCH  38  45
ENDBRANCH  34  35
ENDBRANCH  16  34
TORSDOF 11
ENDMDL
MODEL 6
REMARK VINA RESULT:      -8.4      2.737      8.097
REMARK  Name = Epirubicin
REMARK  13 active torsions:
REMARK  status: ('A' for Active; 'I' for Inactive)
REMARK    1  A    between atoms: C_1  and  O_2
REMARK    2  A    between atoms: O_2  and  C_3
REMARK    3  A    between atoms: C_12  and  O_13
REMARK    4  A    between atoms: C_17  and  O_18
REMARK    5  A    between atoms: C_17  and  C_31
REMARK    6  A    between atoms: C_20  and  O_21
REMARK    7  A    between atoms: O_21  and  C_22
REMARK    8  A    between atoms: C_24  and  N_25
REMARK    9  A    between atoms: C_26  and  O_27
REMARK   10  A    between atoms: C_28  and  C_29
REMARK   11  A    between atoms: C_31  and  C_33
REMARK   12  A    between atoms: C_33  and  O_34
REMARK   13  A    between atoms: C_35  and  O_36
REMARK                            x       y       z     vdW  Elec       q    Type
REMARK                         _______ _______ _______ _____ _____    ______ ____
ROOT
ATOM      1  C   UNL     1      -9.270   5.721 129.641  0.00  0.00    +0.000 A 
ATOM      2  C   UNL     1      -9.156   6.849 130.470  0.00  0.00    +0.000 A 
ATOM      3  C   UNL     1      -8.319   6.848 131.590  0.00  0.00    +0.000 A 
ATOM      4  C   UNL     1      -7.581   5.714 131.895  0.00  0.00    +0.000 A 
ATOM      5  C   UNL     1      -7.662   4.594 131.060  0.00  0.00    +0.000 A 
ATOM      6  C   UNL     1      -8.473   4.608 129.920  0.00  0.00    +0.000 A 
ATOM      7  C   UNL     1      -8.340   3.492 128.974  0.00  0.00    +0.000 C 
ATOM      8  O   UNL     1      -8.652   3.572 127.799  0.00  0.00    +0.000 OA
ATOM      9  C   UNL     1      -7.728   2.243 129.405  0.00  0.00    +0.000 A 
ATOM     10  C   UNL     1      -7.878   1.122 128.594  0.00  0.00    +0.000 A 
ATOM     11  C   UNL     1      -7.143  -0.024 128.868  0.00  0.00    +0.000 A 
ATOM     12  C   UNL     1      -6.271  -0.057 129.978  0.00  0.00    +0.000 A 
ATOM     13  C   UNL     1      -5.462  -1.299 130.283  0.00  0.00    +0.000 C 
ATOM     14  C   UNL     1      -5.386  -2.272 129.108  0.00  0.00    +0.000 C 
ATOM     15  C   UNL     1      -6.811  -2.475 128.600  0.00  0.00    +0.000 C 
ATOM     16  C   UNL     1      -7.300  -1.194 127.938  0.00  0.00    +0.000 C 
ATOM     17  C   UNL     1      -6.196   1.055 130.827  0.00  0.00    +0.000 A 
ATOM     18  C   UNL     1      -6.924   2.212 130.541  0.00  0.00    +0.000 A 
ATOM     19  C   UNL     1      -6.839   3.417 131.399  0.00  0.00    +0.000 C 
ATOM     20  O   UNL     1      -6.132   3.473 132.391  0.00  0.00    +0.000 OA
ENDROOT
BRANCH   1  22
ATOM     21  C   UNL     1     -10.530   7.195 128.242  0.00  0.00    +0.000 C 
ATOM     22  O   UNL     1     -10.070   5.873 128.540  0.00  0.00    +0.000 OA
ENDBRANCH   1  22
BRANCH  10  23
ATOM     23  O   UNL     1      -8.738   1.080 127.523  0.00  0.00    +0.000 OA
ATOM     24  H   UNL     1      -8.558   1.852 126.940  0.00  0.00    +0.000 HD
ENDBRANCH  10  23
BRANCH  14  25
ATOM     25  O   UNL     1      -4.512  -1.759 128.096  0.00  0.00    +0.000 OA
ATOM     26  H   UNL     1      -3.819  -1.201 128.511  0.00  0.00    +0.000 HD
ENDBRANCH  14  25
BRANCH  14  27
ATOM     27  C   UNL     1      -4.718  -3.568 129.580  0.00  0.00    +0.000 C 
ATOM     28  O   UNL     1      -5.300  -4.362 130.326  0.00  0.00    +0.000 OA
BRANCH  27  29
ATOM     29  C   UNL     1      -3.267  -3.801 129.168  0.00  0.00    +0.000 C 
BRANCH  29  30
ATOM     30  O   UNL     1      -2.404  -2.734 129.505  0.00  0.00    +0.000 OA
ATOM     31  H   UNL     1      -1.566  -3.146 129.790  0.00  0.00    +0.000 HD
ENDBRANCH  29  30
ENDBRANCH  27  29
ENDBRANCH  14  27
BRANCH  17  32
ATOM     32  O   UNL     1      -5.405   1.031 131.937  0.00  0.00    +0.000 OA
ATOM     33  H   UNL     1      -4.466   0.904 131.745  0.00  0.00    +0.000 HD
ENDBRANCH  17  32
BRANCH  16  34
ATOM     34  O   UNL     1      -6.596  -0.909 126.710  0.00  0.00    +0.000 OA
BRANCH  34  35
ATOM     35  C   UNL     1      -7.336  -1.341 125.563  0.00  0.00    +0.000 C 
ATOM     36  C   UNL     1      -7.361  -0.236 124.504  0.00  0.00    +0.000 C 
ATOM     37  C   UNL     1      -8.122  -0.619 123.247  0.00  0.00    +0.000 C 
ATOM     38  C   UNL     1      -7.610  -1.991 122.778  0.00  0.00    +0.000 C 
ATOM     39  C   UNL     1      -7.673  -3.036 123.910  0.00  0.00    +0.000 C 
ATOM     40  C   UNL     1      -9.115  -3.367 124.330  0.00  0.00    +0.000 C 
ATOM     41  O   UNL     1      -6.858  -2.575 125.017  0.00  0.00    +0.000 OA
BRANCH  37  42
ATOM     42  N   UNL     1      -9.576  -0.494 123.452  0.00  0.00    +0.000 NA
ATOM     43  H   UNL     1      -9.846  -0.384 124.425  0.00  0.00    +0.000 HD
ATOM     44  H   UNL     1     -10.052  -1.328 123.110  0.00  0.00    +0.000 HD
ENDBRANCH  37  42
BRANCH  38  45
ATOM     45  O   UNL     1      -6.243  -1.840 122.354  0.00  0.00    +0.000 OA
ATOM     46  H   UNL     1      -5.811  -2.715 122.428  0.00  0.00    +0.000 HD
ENDBRANCH  38  45
ENDBRANCH  34  35
ENDBRANCH  16  34
TORSDOF 11
ENDMDL
MODEL 7
REMARK VINA RESULT:      -8.3      4.622      9.329
REMARK  Name = Epirubicin
REMARK  13 active torsions:
REMARK  status: ('A' for Active; 'I' for Inactive)
REMARK    1  A    between atoms: C_1  and  O_2
REMARK    2  A    between atoms: O_2  and  C_3
REMARK    3  A    between atoms: C_12  and  O_13
REMARK    4  A    between atoms: C_17  and  O_18
REMARK    5  A    between atoms: C_17  and  C_31
REMARK    6  A    between atoms: C_20  and  O_21
REMARK    7  A    between atoms: O_21  and  C_22
REMARK    8  A    between atoms: C_24  and  N_25
REMARK    9  A    between atoms: C_26  and  O_27
REMARK   10  A    between atoms: C_28  and  C_29
REMARK   11  A    between atoms: C_31  and  C_33
REMARK   12  A    between atoms: C_33  and  O_34
REMARK   13  A    between atoms: C_35  and  O_36
REMARK                            x       y       z     vdW  Elec       q    Type
REMARK                         _______ _______ _______ _____ _____    ______ ____
ROOT
ATOM      1  C   UNL     1      -3.824   2.532 131.254  0.00  0.00    +0.000 A 
ATOM      2  C   UNL     1      -3.310   3.466 132.168  0.00  0.00    +0.000 A 
ATOM      3  C   UNL     1      -3.228   4.826 131.852  0.00  0.00    +0.000 A 
ATOM      4  C   UNL     1      -3.661   5.270 130.611  0.00  0.00    +0.000 A 
ATOM      5  C   UNL     1      -4.203   4.354 129.703  0.00  0.00    +0.000 A 
ATOM      6  C   UNL     1      -4.318   3.000 130.034  0.00  0.00    +0.000 A 
ATOM      7  C   UNL     1      -5.095   2.140 129.131  0.00  0.00    +0.000 C 
ATOM      8  O   UNL     1      -5.609   1.092 129.483  0.00  0.00    +0.000 OA
ATOM      9  C   UNL     1      -5.359   2.570 127.765  0.00  0.00    +0.000 A 
ATOM     10  C   UNL     1      -5.833   1.629 126.856  0.00  0.00    +0.000 A 
ATOM     11  C   UNL     1      -6.285   2.046 125.611  0.00  0.00    +0.000 A 
ATOM     12  C   UNL     1      -6.237   3.413 125.262  0.00  0.00    +0.000 A 
ATOM     13  C   UNL     1      -6.731   3.878 123.911  0.00  0.00    +0.000 C 
ATOM     14  C   UNL     1      -7.604   2.845 123.199  0.00  0.00    +0.000 C 
ATOM     15  C   UNL     1      -6.856   1.515 123.249  0.00  0.00    +0.000 C 
ATOM     16  C   UNL     1      -6.833   1.000 124.681  0.00  0.00    +0.000 C 
ATOM     17  C   UNL     1      -5.682   4.332 126.161  0.00  0.00    +0.000 A 
ATOM     18  C   UNL     1      -5.242   3.914 127.419  0.00  0.00    +0.000 A 
ATOM     19  C   UNL     1      -4.683   4.869 128.405  0.00  0.00    +0.000 C 
ATOM     20  O   UNL     1      -4.580   6.063 128.184  0.00  0.00    +0.000 OA
ENDROOT
BRANCH   1  22
ATOM     21  C   UNL     1      -3.463   0.988 133.044  0.00  0.00    +0.000 C 
ATOM     22  O   UNL     1      -3.914   1.245 131.710  0.00  0.00    +0.000 OA
ENDBRANCH   1  22
BRANCH  10  23
ATOM     23  O   UNL     1      -5.869   0.281 127.123  0.00  0.00    +0.000 OA
ATOM     24  H   UNL     1      -5.820  -0.213 126.273  0.00  0.00    +0.000 HD
ENDBRANCH  10  23
BRANCH  14  25
ATOM     25  O   UNL     1      -8.892   2.772 123.822  0.00  0.00    +0.000 OA
ATOM     26  H   UNL     1      -8.965   1.935 124.330  0.00  0.00    +0.000 HD
ENDBRANCH  14  25
BRANCH  14  27
ATOM     27  C   UNL     1      -7.886   3.332 121.774  0.00  0.00    +0.000 C 
ATOM     28  O   UNL     1      -9.024   3.301 121.293  0.00  0.00    +0.000 OA
BRANCH  27  29
ATOM     29  C   UNL     1      -6.693   3.775 120.933  0.00  0.00    +0.000 C 
BRANCH  29  30
ATOM     30  O   UNL     1      -7.038   4.155 119.616  0.00  0.00    +0.000 OA
ATOM     31  H   UNL     1      -6.578   3.527 119.026  0.00  0.00    +0.000 HD
ENDBRANCH  29  30
ENDBRANCH  27  29
ENDBRANCH  14  27
BRANCH  17  32
ATOM     32  O   UNL     1      -5.572   5.650 125.829  0.00  0.00    +0.000 OA
ATOM     33  H   UNL     1      -6.422   6.096 125.713  0.00  0.00    +0.000 HD
ENDBRANCH  17  32
BRANCH  16  34
ATOM     34  O   UNL     1      -8.144   0.609 125.144  0.00  0.00    +0.000 OA
BRANCH  34  35
ATOM     35  C   UNL     1      -8.339  -0.807 125.047  0.00  0.00    +0.000 C 
ATOM     36  C   UNL     1      -8.356  -1.238 123.579  0.00  0.00    +0.000 C 
ATOM     37  C   UNL     1      -8.552  -2.731 123.389  0.00  0.00    +0.000 C 
ATOM     38  C   UNL     1      -7.548  -3.464 124.295  0.00  0.00    +0.000 C 
ATOM     39  C   UNL     1      -7.651  -2.983 125.757  0.00  0.00    +0.000 C 
ATOM     40  C   UNL     1      -8.992  -3.357 126.409  0.00  0.00    +0.000 C 
ATOM     41  O   UNL     1      -7.383  -1.559 125.800  0.00  0.00    +0.000 OA
BRANCH  37  42
ATOM     42  N   UNL     1      -9.970  -3.102 123.543  0.00  0.00    +0.000 NA
ATOM     43  H   UNL     1     -10.499  -2.468 124.134  0.00  0.00    +0.000 HD
ATOM     44  H   UNL     1     -10.047  -4.026 123.966  0.00  0.00    +0.000 HD
ENDBRANCH  37  42
BRANCH  38  45
ATOM     45  O   UNL     1      -6.222  -3.197 123.805  0.00  0.00    +0.000 OA
ATOM     46  H   UNL     1      -5.587  -3.526 124.473  0.00  0.00    +0.000 HD
ENDBRANCH  38  45
ENDBRANCH  34  35
ENDBRANCH  16  34
TORSDOF 11
ENDMDL
MODEL 8
REMARK VINA RESULT:      -8.1      3.080      6.294
REMARK  Name = Epirubicin
REMARK  13 active torsions:
REMARK  status: ('A' for Active; 'I' for Inactive)
REMARK    1  A    between atoms: C_1  and  O_2
REMARK    2  A    between atoms: O_2  and  C_3
REMARK    3  A    between atoms: C_12  and  O_13
REMARK    4  A    between atoms: C_17  and  O_18
REMARK    5  A    between atoms: C_17  and  C_31
REMARK    6  A    between atoms: C_20  and  O_21
REMARK    7  A    between atoms: O_21  and  C_22
REMARK    8  A    between atoms: C_24  and  N_25
REMARK    9  A    between atoms: C_26  and  O_27
REMARK   10  A    between atoms: C_28  and  C_29
REMARK   11  A    between atoms: C_31  and  C_33
REMARK   12  A    between atoms: C_33  and  O_34
REMARK   13  A    between atoms: C_35  and  O_36
REMARK                            x       y       z     vdW  Elec       q    Type
REMARK                         _______ _______ _______ _____ _____    ______ ____
ROOT
ATOM      1  C   UNL     1      -7.340  -3.421 133.977  0.00  0.00    +0.000 A 
ATOM      2  C   UNL     1      -6.706  -4.632 134.300  0.00  0.00    +0.000 A 
ATOM      3  C   UNL     1      -5.855  -5.273 133.394  0.00  0.00    +0.000 A 
ATOM      4  C   UNL     1      -5.626  -4.707 132.149  0.00  0.00    +0.000 A 
ATOM      5  C   UNL     1      -6.227  -3.485 131.826  0.00  0.00    +0.000 A 
ATOM      6  C   UNL     1      -7.050  -2.827 132.746  0.00  0.00    +0.000 A 
ATOM      7  C   UNL     1      -7.464  -1.453 132.430  0.00  0.00    +0.000 C 
ATOM      8  O   UNL     1      -7.811  -0.649 133.277  0.00  0.00    +0.000 OA
ATOM      9  C   UNL     1      -7.386  -0.967 131.060  0.00  0.00    +0.000 A 
ATOM     10  C   UNL     1      -8.048   0.215 130.741  0.00  0.00    +0.000 A 
ATOM     11  C   UNL     1      -7.828   0.811 129.506  0.00  0.00    +0.000 A 
ATOM     12  C   UNL     1      -6.960   0.205 128.572  0.00  0.00    +0.000 A 
ATOM     13  C   UNL     1      -6.710   0.848 127.226  0.00  0.00    +0.000 C 
ATOM     14  C   UNL     1      -7.136   2.314 127.170  0.00  0.00    +0.000 C 
ATOM     15  C   UNL     1      -8.555   2.391 127.727  0.00  0.00    +0.000 C 
ATOM     16  C   UNL     1      -8.527   2.111 129.224  0.00  0.00    +0.000 C 
ATOM     17  C   UNL     1      -6.367  -1.025 128.883  0.00  0.00    +0.000 A 
ATOM     18  C   UNL     1      -6.576  -1.616 130.132  0.00  0.00    +0.000 A 
ATOM     19  C   UNL     1      -5.934  -2.898 130.503  0.00  0.00    +0.000 C 
ATOM     20  O   UNL     1      -5.189  -3.506 129.755  0.00  0.00    +0.000 OA
ENDROOT
BRANCH   1  22
ATOM     21  C   UNL     1      -7.692  -3.122 136.323  0.00  0.00    +0.000 C 
ATOM     22  O   UNL     1      -8.093  -2.862 134.974  0.00  0.00    +0.000 OA
ENDBRANCH   1  22
BRANCH  10  23
ATOM     23  O   UNL     1      -8.934   0.832 131.592  0.00  0.00    +0.000 OA
ATOM     24  H   UNL     1      -8.846   1.807 131.490  0.00  0.00    +0.000 HD
ENDBRANCH  10  23
BRANCH  14  25
ATOM     25  O   UNL     1      -6.214   3.126 127.907  0.00  0.00    +0.000 OA
ATOM     26  H   UNL     1      -5.304   2.977 127.571  0.00  0.00    +0.000 HD
ENDBRANCH  14  25
BRANCH  14  27
ATOM     27  C   UNL     1      -7.022   2.809 125.724  0.00  0.00    +0.000 C 
ATOM     28  O   UNL     1      -5.925   2.975 125.182  0.00  0.00    +0.000 OA
BRANCH  27  29
ATOM     29  C   UNL     1      -8.316   3.177 125.003  0.00  0.00    +0.000 C 
BRANCH  29  30
ATOM     30  O   UNL     1      -8.633   4.551 125.076  0.00  0.00    +0.000 OA
ATOM     31  H   UNL     1      -8.119   4.985 124.368  0.00  0.00    +0.000 HD
ENDBRANCH  29  30
ENDBRANCH  27  29
ENDBRANCH  14  27
BRANCH  17  32
ATOM     32  O   UNL     1      -5.567  -1.661 127.980  0.00  0.00    +0.000 OA
ATOM     33  H   UNL     1      -5.672  -2.621 127.972  0.00  0.00    +0.000 HD
ENDBRANCH  17  32
BRANCH  16  34
ATOM     34  O   UNL     1      -7.871   3.161 129.966  0.00  0.00    +0.000 OA
BRANCH  34  35
ATOM     35  C   UNL     1      -8.742   4.275 130.192  0.00  0.00    +0.000 C 
ATOM     36  C   UNL     1     -10.155   3.783 130.514  0.00  0.00    +0.000 C 
ATOM     37  C   UNL     1     -11.142   4.906 130.776  0.00  0.00    +0.000 C 
ATOM     38  C   UNL     1     -10.513   5.866 131.800  0.00  0.00    +0.000 C 
ATOM     39  C   UNL     1      -9.113   6.333 131.352  0.00  0.00    +0.000 C 
ATOM     40  C   UNL     1      -9.159   7.208 130.089  0.00  0.00    +0.000 C 
ATOM     41  O   UNL     1      -8.260   5.171 131.199  0.00  0.00    +0.000 OA
BRANCH  37  42
ATOM     42  N   UNL     1     -11.608   5.504 129.513  0.00  0.00    +0.000 NA
ATOM     43  H   UNL     1     -10.958   5.394 128.741  0.00  0.00    +0.000 HD
ATOM     44  H   UNL     1     -11.752   6.507 129.631  0.00  0.00    +0.000 HD
ENDBRANCH  37  42
BRANCH  38  45
ATOM     45  O   UNL     1     -10.397   5.172 133.055  0.00  0.00    +0.000 OA
ATOM     46  H   UNL     1      -9.772   5.675 133.616  0.00  0.00    +0.000 HD
ENDBRANCH  38  45
ENDBRANCH  34  35
ENDBRANCH  16  34
TORSDOF 11
ENDMDL
MODEL 9
REMARK VINA RESULT:      -8.0      5.094      9.187
REMARK  Name = Epirubicin
REMARK  13 active torsions:
REMARK  status: ('A' for Active; 'I' for Inactive)
REMARK    1  A    between atoms: C_1  and  O_2
REMARK    2  A    between atoms: O_2  and  C_3
REMARK    3  A    between atoms: C_12  and  O_13
REMARK    4  A    between atoms: C_17  and  O_18
REMARK    5  A    between atoms: C_17  and  C_31
REMARK    6  A    between atoms: C_20  and  O_21
REMARK    7  A    between atoms: O_21  and  C_22
REMARK    8  A    between atoms: C_24  and  N_25
REMARK    9  A    between atoms: C_26  and  O_27
REMARK   10  A    between atoms: C_28  and  C_29
REMARK   11  A    between atoms: C_31  and  C_33
REMARK   12  A    between atoms: C_33  and  O_34
REMARK   13  A    between atoms: C_35  and  O_36
REMARK                            x       y       z     vdW  Elec       q    Type
REMARK                         _______ _______ _______ _____ _____    ______ ____
ROOT
ATOM      1  C   UNL     1      -2.911   4.920 130.095  0.00  0.00    +0.000 A 
ATOM      2  C   UNL     1      -2.657   6.289 129.917  0.00  0.00    +0.000 A 
ATOM      3  C   UNL     1      -3.026   6.951 128.741  0.00  0.00    +0.000 A 
ATOM      4  C   UNL     1      -3.656   6.248 127.725  0.00  0.00    +0.000 A 
ATOM      5  C   UNL     1      -3.942   4.890 127.902  0.00  0.00    +0.000 A 
ATOM      6  C   UNL     1      -3.605   4.236 129.093  0.00  0.00    +0.000 A 
ATOM      7  C   UNL     1      -4.131   2.880 129.299  0.00  0.00    +0.000 C 
ATOM      8  O   UNL     1      -4.267   2.377 130.401  0.00  0.00    +0.000 OA
ATOM      9  C   UNL     1      -4.604   2.103 128.163  0.00  0.00    +0.000 A 
ATOM     10  C   UNL     1      -4.817   0.739 128.340  0.00  0.00    +0.000 A 
ATOM     11  C   UNL     1      -5.457   0.011 127.345  0.00  0.00    +0.000 A 
ATOM     12  C   UNL     1      -5.862   0.648 126.152  0.00  0.00    +0.000 A 
ATOM     13  C   UNL     1      -6.564  -0.134 125.064  0.00  0.00    +0.000 C 
ATOM     14  C   UNL     1      -7.113  -1.476 125.545  0.00  0.00    +0.000 C 
ATOM     15  C   UNL     1      -5.985  -2.181 126.293  0.00  0.00    +0.000 C 
ATOM     16  C   UNL     1      -5.709  -1.448 127.599  0.00  0.00    +0.000 C 
ATOM     17  C   UNL     1      -5.566   2.004 125.962  0.00  0.00    +0.000 A 
ATOM     18  C   UNL     1      -4.936   2.738 126.970  0.00  0.00    +0.000 A 
ATOM     19  C   UNL     1      -4.642   4.182 126.812  0.00  0.00    +0.000 C 
ATOM     20  O   UNL     1      -4.933   4.810 125.810  0.00  0.00    +0.000 OA
ENDROOT
BRANCH   1  22
ATOM     21  C   UNL     1      -1.756   5.228 132.166  0.00  0.00    +0.000 C 
ATOM     22  O   UNL     1      -2.564   4.407 131.315  0.00  0.00    +0.000 OA
ENDBRANCH   1  22
BRANCH  10  23
ATOM     23  O   UNL     1      -4.412   0.055 129.462  0.00  0.00    +0.000 OA
ATOM     24  H   UNL     1      -3.444   0.193 129.585  0.00  0.00    +0.000 HD
ENDBRANCH  10  23
BRANCH  14  25
ATOM     25  O   UNL     1      -8.270  -1.273 126.364  0.00  0.00    +0.000 OA
ATOM     26  H   UNL     1      -8.157  -0.455 126.896  0.00  0.00    +0.000 HD
ENDBRANCH  14  25
BRANCH  14  27
ATOM     27  C   UNL     1      -7.626  -2.264 124.335  0.00  0.00    +0.000 C 
ATOM     28  O   UNL     1      -7.333  -1.939 123.179  0.00  0.00    +0.000 OA
BRANCH  27  29
ATOM     29  C   UNL     1      -8.589  -3.417 124.603  0.00  0.00    +0.000 C 
BRANCH  29  30
ATOM     30  O   UNL     1      -9.913  -2.999 124.865  0.00  0.00    +0.000 OA
ATOM     31  H   UNL     1     -10.122  -3.315 125.765  0.00  0.00    +0.000 HD
ENDBRANCH  29  30
ENDBRANCH  27  29
ENDBRANCH  14  27
BRANCH  17  32
ATOM     32  O   UNL     1      -5.896   2.632 124.797  0.00  0.00    +0.000 OA
ATOM     33  H   UNL     1      -6.275   2.045 124.130  0.00  0.00    +0.000 HD
ENDBRANCH  17  32
BRANCH  16  34
ATOM     34  O   UNL     1      -6.798  -1.574 128.539  0.00  0.00    +0.000 OA
BRANCH  34  35
ATOM     35  C   UNL     1      -6.414  -2.318 129.701  0.00  0.00    +0.000 C 
ATOM     36  C   UNL     1      -5.188  -3.181 129.393  0.00  0.00    +0.000 C 
ATOM     37  C   UNL     1      -4.710  -3.998 130.579  0.00  0.00    +0.000 C 
ATOM     38  C   UNL     1      -4.585  -3.056 131.789  0.00  0.00    +0.000 C 
ATOM     39  C   UNL     1      -5.890  -2.273 132.033  0.00  0.00    +0.000 C 
ATOM     40  C   UNL     1      -7.053  -3.182 132.463  0.00  0.00    +0.000 C 
ATOM     41  O   UNL     1      -6.195  -1.493 130.849  0.00  0.00    +0.000 OA
BRANCH  37  42
ATOM     42  N   UNL     1      -5.543  -5.199 130.764  0.00  0.00    +0.000 NA
ATOM     43  H   UNL     1      -5.263  -5.987 130.189  0.00  0.00    +0.000 HD
ATOM     44  H   UNL     1      -6.513  -4.994 130.524  0.00  0.00    +0.000 HD
ENDBRANCH  37  42
BRANCH  38  45
ATOM     45  O   UNL     1      -3.520  -2.124 131.526  0.00  0.00    +0.000 OA
ATOM     46  H   UNL     1      -2.716  -2.643 131.320  0.00  0.00    +0.000 HD
ENDBRANCH  38  45
ENDBRANCH  34  35
ENDBRANCH  16  34
TORSDOF 11
ENDMDL
