MODEL 1
REMARK VINA RESULT:      -8.7      0.000      0.000
REMARK  Name = Eplerenone
REMARK  5 active torsions:
REMARK  status: ('A' for Active; 'I' for Inactive)
REMARK    1  A    between atoms: C_11  and  C_12
REMARK    2  A    between atoms: C_19  and  C_29
REMARK    3  A    between atoms: C_27  and  C_28
REMARK    4  A    between atoms: C_29  and  O_31
REMARK    5  A    between atoms: O_31  and  C_32
REMARK                            x       y       z     vdW  Elec       q    Type
REMARK                         _______ _______ _______ _____ _____    ______ ____
ROOT
ATOM      1  C   UNL     1      -6.963   2.452 123.811  0.00  0.00    +0.000 C 
ATOM      2  C   UNL     1      -8.417   3.003 124.513  0.00  0.00    +0.000 C 
ATOM      3  C   UNL     1      -8.093   3.521 126.326  0.00  0.00    +0.000 C 
ATOM      4  C   UNL     1      -5.985   3.692 126.233  0.00  0.00    +0.000 C 
ATOM      5  C   UNL     1      -5.114   3.048 127.376  0.00  0.00    +0.000 C 
ATOM      6  C   UNL     1      -3.960   3.926 127.607  0.00  0.00    +0.000 C 
ATOM      7  C   UNL     1      -4.427   5.281 127.302  0.00  0.00    +0.000 C 
ATOM      8  O   UNL     1      -4.014   6.324 127.761  0.00  0.00    +0.000 OA
ATOM      9  O   UNL     1      -5.333   5.208 126.337  0.00  0.00    +0.000 OA
ATOM     10  C   UNL     1      -5.638   3.375 124.550  0.00  0.00    +0.000 C 
ATOM     11  C   UNL     1      -5.454   4.587 123.605  0.00  0.00    +0.000 C 
ATOM     12  C   UNL     1      -6.635   3.818 125.457  0.00  0.00    +0.000 C 
ATOM     13  C   UNL     1      -6.781   1.923 126.151  0.00  0.00    +0.000 C 
ATOM     14  O   UNL     1      -5.328   1.255 125.798  0.00  0.00    +0.000 OA
ATOM     15  C   UNL     1      -6.546   0.723 125.462  0.00  0.00    +0.000 C 
ATOM     16  C   UNL     1      -6.809   0.924 124.019  0.00  0.00    +0.000 C 
ATOM     17  C   UNL     1      -8.053  -0.070 123.631  0.00  0.00    +0.000 C 
ATOM     18  C   UNL     1      -7.944  -1.742 124.062  0.00  0.00    +0.000 C 
ATOM     19  C   UNL     1      -7.692  -1.793 125.828  0.00  0.00    +0.000 C 
ATOM     20  C   UNL     1      -7.931  -2.761 126.745  0.00  0.00    +0.000 C 
ATOM     21  C   UNL     1      -7.520  -2.523 128.191  0.00  0.00    +0.000 C 
ATOM     22  O   UNL     1      -8.262  -2.890 129.101  0.00  0.00    +0.000 OA
ATOM     23  C   UNL     1      -6.197  -1.829 128.495  0.00  0.00    +0.000 C 
ATOM     24  C   UNL     1      -6.060  -0.556 127.698  0.00  0.00    +0.000 C 
ATOM     25  C   UNL     1      -6.617  -0.647 126.223  0.00  0.00    +0.000 C 
ATOM     26  C   UNL     1      -5.645  -1.248 125.258  0.00  0.00    +0.000 C 
ENDROOT
BRANCH  17  27
ATOM     27  C   UNL     1      -9.215   0.285 124.532  0.00  0.00    +0.000 C 
ATOM     28  O   UNL     1      -9.199   0.198 125.756  0.00  0.00    +0.000 OA
BRANCH  27  29
ATOM     29  O   UNL     1     -10.323   0.670 123.879  0.00  0.00    +0.000 OA
ATOM     30  C   UNL     1     -10.137   0.463 122.473  0.00  0.00    +0.000 C 
ENDBRANCH  27  29
ENDBRANCH  17  27
TORSDOF 2
ENDMDL
MODEL 2
REMARK VINA RESULT:      -8.5      6.354      8.918
REMARK  Name = Eplerenone
REMARK  5 active torsions:
REMARK  status: ('A' for Active; 'I' for Inactive)
REMARK    1  A    between atoms: C_11  and  C_12
REMARK    2  A    between atoms: C_19  and  C_29
REMARK    3  A    between atoms: C_27  and  C_28
REMARK    4  A    between atoms: C_29  and  O_31
REMARK    5  A    between atoms: O_31  and  C_32
REMARK                            x       y       z     vdW  Elec       q    Type
REMARK                         _______ _______ _______ _____ _____    ______ ____
ROOT
ATOM      1  C   UNL     1      -8.641   3.602 131.470  0.00  0.00    +0.000 C 
ATOM      2  C   UNL     1      -8.875   4.147 133.069  0.00  0.00    +0.000 C 
ATOM      3  C   UNL     1      -9.256   6.022 133.055  0.00  0.00    +0.000 C 
ATOM      4  C   UNL     1      -9.777   6.222 131.012  0.00  0.00    +0.000 C 
ATOM      5  C   UNL     1      -9.173   7.415 130.182  0.00  0.00    +0.000 C 
ATOM      6  C   UNL     1     -10.199   7.865 129.233  0.00  0.00    +0.000 C 
ATOM      7  C   UNL     1     -11.484   7.608 129.890  0.00  0.00    +0.000 C 
ATOM      8  O   UNL     1     -12.528   8.197 129.721  0.00  0.00    +0.000 OA
ATOM      9  O   UNL     1     -11.360   6.529 130.650  0.00  0.00    +0.000 OA
ATOM     10  C   UNL     1      -9.689   4.580 130.420  0.00  0.00    +0.000 C 
ATOM     11  C   UNL     1     -11.003   3.765 130.340  0.00  0.00    +0.000 C 
ATOM     12  C   UNL     1      -9.871   5.379 131.579  0.00  0.00    +0.000 C 
ATOM     13  C   UNL     1      -7.919   5.897 131.474  0.00  0.00    +0.000 C 
ATOM     14  O   UNL     1      -7.534   5.688 129.896  0.00  0.00    +0.000 OA
ATOM     15  C   UNL     1      -6.847   5.154 130.955  0.00  0.00    +0.000 C 
ATOM     16  C   UNL     1      -7.145   3.708 131.078  0.00  0.00    +0.000 C 
ATOM     17  C   UNL     1      -6.006   3.083 132.077  0.00  0.00    +0.000 C 
ATOM     18  C   UNL     1      -4.340   3.393 131.730  0.00  0.00    +0.000 C 
ATOM     19  C   UNL     1      -4.155   5.167 131.681  0.00  0.00    +0.000 C 
ATOM     20  C   UNL     1      -3.075   5.966 131.854  0.00  0.00    +0.000 C 
ATOM     21  C   UNL     1      -3.231   7.468 131.663  0.00  0.00    +0.000 C 
ATOM     22  O   UNL     1      -2.660   8.240 132.432  0.00  0.00    +0.000 OA
ATOM     23  C   UNL     1      -4.097   7.997 130.525  0.00  0.00    +0.000 C 
ATOM     24  C   UNL     1      -5.448   7.327 130.520  0.00  0.00    +0.000 C 
ATOM     25  C   UNL     1      -5.415   5.789 130.876  0.00  0.00    +0.000 C 
ATOM     26  C   UNL     1      -5.079   4.917 129.708  0.00  0.00    +0.000 C 
ENDROOT
BRANCH  17  27
ATOM     27  C   UNL     1      -6.076   3.848 133.380  0.00  0.00    +0.000 C 
ATOM     28  O   UNL     1      -5.877   5.054 133.492  0.00  0.00    +0.000 OA
BRANCH  27  29
ATOM     29  O   UNL     1      -6.333   3.085 134.455  0.00  0.00    +0.000 OA
ATOM     30  C   UNL     1      -6.325   1.705 134.067  0.00  0.00    +0.000 C 
ENDBRANCH  27  29
ENDBRANCH  17  27
TORSDOF 2
ENDMDL
MODEL 3
REMARK VINA RESULT:      -8.3      4.447      7.746
REMARK  Name = Eplerenone
REMARK  5 active torsions:
REMARK  status: ('A' for Active; 'I' for Inactive)
REMARK    1  A    between atoms: C_11  and  C_12
REMARK    2  A    between atoms: C_19  and  C_29
REMARK    3  A    between atoms: C_27  and  C_28
REMARK    4  A    between atoms: C_29  and  O_31
REMARK    5  A    between atoms: O_31  and  C_32
REMARK                            x       y       z     vdW  Elec       q    Type
REMARK                         _______ _______ _______ _____ _____    ______ ____
ROOT
ATOM      1  C   UNL     1      -6.613   4.604 131.982  0.00  0.00    +0.000 C 
ATOM      2  C   UNL     1      -6.093   6.219 131.802  0.00  0.00    +0.000 C 
ATOM      3  C   UNL     1      -7.447   7.227 130.903  0.00  0.00    +0.000 C 
ATOM      4  C   UNL     1      -9.073   5.903 131.196  0.00  0.00    +0.000 C 
ATOM      5  C   UNL     1     -10.011   5.561 129.978  0.00  0.00    +0.000 C 
ATOM      6  C   UNL     1     -11.378   5.420 130.492  0.00  0.00    +0.000 C 
ATOM      7  C   UNL     1     -11.464   6.327 131.641  0.00  0.00    +0.000 C 
ATOM      8  O   UNL     1     -12.453   6.876 132.073  0.00  0.00    +0.000 OA
ATOM      9  O   UNL     1     -10.276   6.380 132.225  0.00  0.00    +0.000 OA
ATOM     10  C   UNL     1      -8.378   4.636 132.179  0.00  0.00    +0.000 C 
ATOM     11  C   UNL     1      -8.582   4.710 133.711  0.00  0.00    +0.000 C 
ATOM     12  C   UNL     1      -8.256   5.999 131.800  0.00  0.00    +0.000 C 
ATOM     13  C   UNL     1      -7.662   5.390 129.965  0.00  0.00    +0.000 C 
ATOM     14  O   UNL     1      -8.300   3.889 129.816  0.00  0.00    +0.000 OA
ATOM     15  C   UNL     1      -6.982   4.212 129.616  0.00  0.00    +0.000 C 
ATOM     16  C   UNL     1      -6.167   3.755 130.764  0.00  0.00    +0.000 C 
ATOM     17  C   UNL     1      -4.604   3.809 130.274  0.00  0.00    +0.000 C 
ATOM     18  C   UNL     1      -4.171   3.024 128.795  0.00  0.00    +0.000 C 
ATOM     19  C   UNL     1      -5.201   3.737 127.524  0.00  0.00    +0.000 C 
ATOM     20  C   UNL     1      -5.047   3.821 126.181  0.00  0.00    +0.000 C 
ATOM     21  C   UNL     1      -6.167   4.428 125.348  0.00  0.00    +0.000 C 
ATOM     22  O   UNL     1      -5.889   5.173 124.409  0.00  0.00    +0.000 OA
ATOM     23  C   UNL     1      -7.618   4.111 125.689  0.00  0.00    +0.000 C 
ATOM     24  C   UNL     1      -7.886   4.326 127.158  0.00  0.00    +0.000 C 
ATOM     25  C   UNL     1      -6.705   3.881 128.108  0.00  0.00    +0.000 C 
ATOM     26  C   UNL     1      -6.710   2.417 128.415  0.00  0.00    +0.000 C 
ENDROOT
BRANCH  17  27
ATOM     27  C   UNL     1      -4.318   5.227 129.830  0.00  0.00    +0.000 C 
ATOM     28  O   UNL     1      -4.943   5.824 128.959  0.00  0.00    +0.000 OA
BRANCH  27  29
ATOM     29  O   UNL     1      -3.264   5.794 130.439  0.00  0.00    +0.000 OA
ATOM     30  C   UNL     1      -2.387   6.346 129.449  0.00  0.00    +0.000 C 
ENDBRANCH  27  29
ENDBRANCH  17  27
TORSDOF 2
ENDMDL
MODEL 4
REMARK VINA RESULT:      -8.2      2.445      5.442
REMARK  Name = Eplerenone
REMARK  5 active torsions:
REMARK  status: ('A' for Active; 'I' for Inactive)
REMARK    1  A    between atoms: C_11  and  C_12
REMARK    2  A    between atoms: C_19  and  C_29
REMARK    3  A    between atoms: C_27  and  C_28
REMARK    4  A    between atoms: C_29  and  O_31
REMARK    5  A    between atoms: O_31  and  C_32
REMARK                            x       y       z     vdW  Elec       q    Type
REMARK                         _______ _______ _______ _____ _____    ______ ____
ROOT
ATOM      1  C   UNL     1      -5.742   0.684 128.217  0.00  0.00    +0.000 C 
ATOM      2  C   UNL     1      -7.309   0.986 128.818  0.00  0.00    +0.000 C 
ATOM      3  C   UNL     1      -8.048  -0.636 129.513  0.00  0.00    +0.000 C 
ATOM      4  C   UNL     1      -6.256  -1.747 129.695  0.00  0.00    +0.000 C 
ATOM      5  C   UNL     1      -6.219  -3.232 129.174  0.00  0.00    +0.000 C 
ATOM      6  C   UNL     1      -5.361  -4.004 130.081  0.00  0.00    +0.000 C 
ATOM      7  C   UNL     1      -5.507  -3.373 131.396  0.00  0.00    +0.000 C 
ATOM      8  O   UNL     1      -5.380  -3.894 132.481  0.00  0.00    +0.000 OA
ATOM      9  O   UNL     1      -5.707  -2.075 131.220  0.00  0.00    +0.000 OA
ATOM     10  C   UNL     1      -5.029  -0.597 129.220  0.00  0.00    +0.000 C 
ATOM     11  C   UNL     1      -4.283   0.174 130.336  0.00  0.00    +0.000 C 
ATOM     12  C   UNL     1      -6.343  -0.731 129.739  0.00  0.00    +0.000 C 
ATOM     13  C   UNL     1      -6.947  -1.377 127.919  0.00  0.00    +0.000 C 
ATOM     14  O   UNL     1      -5.584  -1.973 127.234  0.00  0.00    +0.000 OA
ATOM     15  C   UNL     1      -6.420  -1.050 126.660  0.00  0.00    +0.000 C 
ATOM     16  C   UNL     1      -5.806   0.296 126.717  0.00  0.00    +0.000 C 
ATOM     17  C   UNL     1      -6.655   1.238 125.678  0.00  0.00    +0.000 C 
ATOM     18  C   UNL     1      -6.889   0.681 124.058  0.00  0.00    +0.000 C 
ATOM     19  C   UNL     1      -7.688  -0.911 124.180  0.00  0.00    +0.000 C 
ATOM     20  C   UNL     1      -8.451  -1.606 123.304  0.00  0.00    +0.000 C 
ATOM     21  C   UNL     1      -8.923  -3.002 123.685  0.00  0.00    +0.000 C 
ATOM     22  O   UNL     1     -10.068  -3.354 123.401  0.00  0.00    +0.000 OA
ATOM     23  C   UNL     1      -7.976  -3.945 124.418  0.00  0.00    +0.000 C 
ATOM     24  C   UNL     1      -7.351  -3.263 125.609  0.00  0.00    +0.000 C 
ATOM     25  C   UNL     1      -6.975  -1.748 125.370  0.00  0.00    +0.000 C 
ATOM     26  C   UNL     1      -5.656  -1.565 124.687  0.00  0.00    +0.000 C 
ENDROOT
BRANCH  17  27
ATOM     27  C   UNL     1      -8.105   1.193 126.108  0.00  0.00    +0.000 C 
ATOM     28  O   UNL     1      -8.769   0.167 126.213  0.00  0.00    +0.000 OA
BRANCH  27  29
ATOM     29  O   UNL     1      -8.651   2.400 126.329  0.00  0.00    +0.000 OA
ATOM     30  C   UNL     1      -7.662   3.414 126.113  0.00  0.00    +0.000 C 
ENDBRANCH  27  29
ENDBRANCH  17  27
TORSDOF 2
ENDMDL
MODEL 5
REMARK VINA RESULT:      -8.2      2.267      5.385
REMARK  Name = Eplerenone
REMARK  5 active torsions:
REMARK  status: ('A' for Active; 'I' for Inactive)
REMARK    1  A    between atoms: C_11  and  C_12
REMARK    2  A    between atoms: C_19  and  C_29
REMARK    3  A    between atoms: C_27  and  C_28
REMARK    4  A    between atoms: C_29  and  O_31
REMARK    5  A    between atoms: O_31  and  C_32
REMARK                            x       y       z     vdW  Elec       q    Type
REMARK                         _______ _______ _______ _____ _____    ______ ____
ROOT
ATOM      1  C   UNL     1      -8.205  -1.682 126.378  0.00  0.00    +0.000 C 
ATOM      2  C   UNL     1      -7.011  -2.505 125.479  0.00  0.00    +0.000 C 
ATOM      3  C   UNL     1      -5.283  -1.835 125.952  0.00  0.00    +0.000 C 
ATOM      4  C   UNL     1      -5.801  -0.884 127.772  0.00  0.00    +0.000 C 
ATOM      5  C   UNL     1      -5.273   0.572 128.051  0.00  0.00    +0.000 C 
ATOM      6  C   UNL     1      -4.985   0.676 129.487  0.00  0.00    +0.000 C 
ATOM      7  C   UNL     1      -4.580  -0.668 129.907  0.00  0.00    +0.000 C 
ATOM      8  O   UNL     1      -3.846  -0.964 130.824  0.00  0.00    +0.000 OA
ATOM      9  O   UNL     1      -5.240  -1.555 129.175  0.00  0.00    +0.000 OA
ATOM     10  C   UNL     1      -7.494  -1.278 127.954  0.00  0.00    +0.000 C 
ATOM     11  C   UNL     1      -7.867  -2.482 128.853  0.00  0.00    +0.000 C 
ATOM     12  C   UNL     1      -6.274  -1.686 127.354  0.00  0.00    +0.000 C 
ATOM     13  C   UNL     1      -6.412  -0.102 126.103  0.00  0.00    +0.000 C 
ATOM     14  O   UNL     1      -7.348   0.969 126.916  0.00  0.00    +0.000 OA
ATOM     15  C   UNL     1      -7.569   0.539 125.633  0.00  0.00    +0.000 C 
ATOM     16  C   UNL     1      -8.691  -0.428 125.607  0.00  0.00    +0.000 C 
ATOM     17  C   UNL     1      -9.143  -0.572 124.038  0.00  0.00    +0.000 C 
ATOM     18  C   UNL     1      -9.481   0.865 123.137  0.00  0.00    +0.000 C 
ATOM     19  C   UNL     1      -8.012   1.874 123.226  0.00  0.00    +0.000 C 
ATOM     20  C   UNL     1      -7.548   2.863 122.425  0.00  0.00    +0.000 C 
ATOM     21  C   UNL     1      -6.279   3.602 122.825  0.00  0.00    +0.000 C 
ATOM     22  O   UNL     1      -5.453   3.899 121.964  0.00  0.00    +0.000 OA
ATOM     23  C   UNL     1      -6.044   3.959 124.289  0.00  0.00    +0.000 C 
ATOM     24  C   UNL     1      -6.251   2.758 125.177  0.00  0.00    +0.000 C 
ATOM     25  C   UNL     1      -7.450   1.825 124.744  0.00  0.00    +0.000 C 
ATOM     26  C   UNL     1      -8.780   2.303 125.235  0.00  0.00    +0.000 C 
ENDROOT
BRANCH  17  27
ATOM     27  C   UNL     1      -7.925  -1.009 123.254  0.00  0.00    +0.000 C 
ATOM     28  O   UNL     1      -6.853  -0.411 123.243  0.00  0.00    +0.000 OA
BRANCH  27  29
ATOM     29  O   UNL     1      -8.115  -2.106 122.505  0.00  0.00    +0.000 OA
ATOM     30  C   UNL     1      -9.283  -2.796 122.966  0.00  0.00    +0.000 C 
ENDBRANCH  27  29
ENDBRANCH  17  27
TORSDOF 2
ENDMDL
MODEL 6
REMARK VINA RESULT:      -8.2      4.669      7.327
REMARK  Name = Eplerenone
REMARK  5 active torsions:
REMARK  status: ('A' for Active; 'I' for Inactive)
REMARK    1  A    between atoms: C_11  and  C_12
REMARK    2  A    between atoms: C_19  and  C_29
REMARK    3  A    between atoms: C_27  and  C_28
REMARK    4  A    between atoms: C_29  and  O_31
REMARK    5  A    between atoms: O_31  and  C_32
REMARK                            x       y       z     vdW  Elec       q    Type
REMARK                         _______ _______ _______ _____ _____    ______ ____
ROOT
ATOM      1  C   UNL     1      -4.383   6.443 130.223  0.00  0.00    +0.000 C 
ATOM      2  C   UNL     1      -3.599   5.593 131.477  0.00  0.00    +0.000 C 
ATOM      3  C   UNL     1      -3.225   3.808 130.899  0.00  0.00    +0.000 C 
ATOM      4  C   UNL     1      -3.447   4.098 128.814  0.00  0.00    +0.000 C 
ATOM      5  C   UNL     1      -4.289   3.060 127.982  0.00  0.00    +0.000 C 
ATOM      6  C   UNL     1      -3.652   2.919 126.667  0.00  0.00    +0.000 C 
ATOM      7  C   UNL     1      -2.222   3.147 126.893  0.00  0.00    +0.000 C 
ATOM      8  O   UNL     1      -1.295   2.706 126.250  0.00  0.00    +0.000 OA
ATOM      9  O   UNL     1      -2.086   4.022 127.879  0.00  0.00    +0.000 OA
ATOM     10  C   UNL     1      -3.755   5.814 128.685  0.00  0.00    +0.000 C 
ATOM     11  C   UNL     1      -2.562   6.744 128.360  0.00  0.00    +0.000 C 
ATOM     12  C   UNL     1      -3.171   4.806 129.496  0.00  0.00    +0.000 C 
ATOM     13  C   UNL     1      -5.031   4.144 129.936  0.00  0.00    +0.000 C 
ATOM     14  O   UNL     1      -5.945   4.650 128.674  0.00  0.00    +0.000 OA
ATOM     15  C   UNL     1      -6.226   4.879 129.997  0.00  0.00    +0.000 C 
ATOM     16  C   UNL     1      -5.921   6.286 130.345  0.00  0.00    +0.000 C 
ATOM     17  C   UNL     1      -6.648   6.576 131.784  0.00  0.00    +0.000 C 
ATOM     18  C   UNL     1      -8.326   6.195 131.957  0.00  0.00    +0.000 C 
ATOM     19  C   UNL     1      -8.495   4.464 131.562  0.00  0.00    +0.000 C 
ATOM     20  C   UNL     1      -9.437   3.550 131.897  0.00  0.00    +0.000 C 
ATOM     21  C   UNL     1      -9.340   2.145 131.321  0.00  0.00    +0.000 C 
ATOM     22  O   UNL     1      -9.598   1.177 132.035  0.00  0.00    +0.000 OA
ATOM     23  C   UNL     1      -8.918   1.953 129.868  0.00  0.00    +0.000 C 
ATOM     24  C   UNL     1      -7.662   2.730 129.564  0.00  0.00    +0.000 C 
ATOM     25  C   UNL     1      -7.588   4.147 130.258  0.00  0.00    +0.000 C 
ATOM     26  C   UNL     1      -8.320   5.214 129.508  0.00  0.00    +0.000 C 
ENDROOT
BRANCH  17  27
ATOM     27  C   UNL     1      -6.118   5.560 132.772  0.00  0.00    +0.000 C 
ATOM     28  O   UNL     1      -6.224   4.344 132.645  0.00  0.00    +0.000 OA
BRANCH  27  29
ATOM     29  O   UNL     1      -5.545   6.096 133.862  0.00  0.00    +0.000 OA
ATOM     30  C   UNL     1      -6.159   5.549 135.036  0.00  0.00    +0.000 C 
ENDBRANCH  27  29
ENDBRANCH  17  27
TORSDOF 2
ENDMDL
MODEL 7
REMARK VINA RESULT:      -8.1      2.699      5.879
REMARK  Name = Eplerenone
REMARK  5 active torsions:
REMARK  status: ('A' for Active; 'I' for Inactive)
REMARK    1  A    between atoms: C_11  and  C_12
REMARK    2  A    between atoms: C_19  and  C_29
REMARK    3  A    between atoms: C_27  and  C_28
REMARK    4  A    between atoms: C_29  and  O_31
REMARK    5  A    between atoms: O_31  and  C_32
REMARK                            x       y       z     vdW  Elec       q    Type
REMARK                         _______ _______ _______ _____ _____    ______ ____
ROOT
ATOM      1  C   UNL     1      -6.152  -1.344 125.940  0.00  0.00    +0.000 C 
ATOM      2  C   UNL     1      -7.154  -2.639 126.417  0.00  0.00    +0.000 C 
ATOM      3  C   UNL     1      -8.988  -2.113 126.271  0.00  0.00    +0.000 C 
ATOM      4  C   UNL     1      -8.733  -0.430 125.013  0.00  0.00    +0.000 C 
ATOM      5  C   UNL     1      -9.478   0.911 125.368  0.00  0.00    +0.000 C 
ATOM      6  C   UNL     1      -9.875   1.550 124.108  0.00  0.00    +0.000 C 
ATOM      7  C   UNL     1     -10.114   0.453 123.166  0.00  0.00    +0.000 C 
ATOM      8  O   UNL     1     -10.859   0.450 122.212  0.00  0.00    +0.000 OA
ATOM      9  O   UNL     1      -9.288  -0.541 123.459  0.00  0.00    +0.000 OA
ATOM     10  C   UNL     1      -7.018  -0.443 124.678  0.00  0.00    +0.000 C 
ATOM     11  C   UNL     1      -6.540  -1.096 123.358  0.00  0.00    +0.000 C 
ATOM     12  C   UNL     1      -8.124  -1.247 125.057  0.00  0.00    +0.000 C 
ATOM     13  C   UNL     1      -8.127  -0.318 126.854  0.00  0.00    +0.000 C 
ATOM     14  O   UNL     1      -7.408   1.124 126.559  0.00  0.00    +0.000 OA
ATOM     15  C   UNL     1      -7.041   0.244 127.545  0.00  0.00    +0.000 C 
ATOM     16  C   UNL     1      -5.796  -0.459 127.162  0.00  0.00    +0.000 C 
ATOM     17  C   UNL     1      -5.223  -1.164 128.526  0.00  0.00    +0.000 C 
ATOM     18  C   UNL     1      -5.030  -0.192 129.943  0.00  0.00    +0.000 C 
ATOM     19  C   UNL     1      -6.629   0.521 130.289  0.00  0.00    +0.000 C 
ATOM     20  C   UNL     1      -7.172   1.008 131.430  0.00  0.00    +0.000 C 
ATOM     21  C   UNL     1      -8.557   1.637 131.378  0.00  0.00    +0.000 C 
ATOM     22  O   UNL     1      -9.356   1.420 132.288  0.00  0.00    +0.000 OA
ATOM     23  C   UNL     1      -8.939   2.523 130.198  0.00  0.00    +0.000 C 
ATOM     24  C   UNL     1      -8.625   1.843 128.889  0.00  0.00    +0.000 C 
ATOM     25  C   UNL     1      -7.280   1.015 128.890  0.00  0.00    +0.000 C 
ATOM     26  C   UNL     1      -6.067   1.854 128.639  0.00  0.00    +0.000 C 
ENDROOT
BRANCH  17  27
ATOM     27  C   UNL     1      -6.311  -2.069 129.060  0.00  0.00    +0.000 C 
ATOM     28  O   UNL     1      -7.444  -1.698 129.352  0.00  0.00    +0.000 OA
BRANCH  27  29
ATOM     29  O   UNL     1      -5.928  -3.342 129.248  0.00  0.00    +0.000 OA
ATOM     30  C   UNL     1      -6.316  -3.763 130.562  0.00  0.00    +0.000 C 
ENDBRANCH  27  29
ENDBRANCH  17  27
TORSDOF 2
ENDMDL
MODEL 8
REMARK VINA RESULT:      -8.1      7.355     10.102
REMARK  Name = Eplerenone
REMARK  5 active torsions:
REMARK  status: ('A' for Active; 'I' for Inactive)
REMARK    1  A    between atoms: C_11  and  C_12
REMARK    2  A    between atoms: C_19  and  C_29
REMARK    3  A    between atoms: C_27  and  C_28
REMARK    4  A    between atoms: C_29  and  O_31
REMARK    5  A    between atoms: O_31  and  C_32
REMARK                            x       y       z     vdW  Elec       q    Type
REMARK                         _______ _______ _______ _____ _____    ______ ____
ROOT
ATOM      1  C   UNL     1      -6.746   2.973 133.463  0.00  0.00    +0.000 C 
ATOM      2  C   UNL     1      -6.803   3.702 135.004  0.00  0.00    +0.000 C 
ATOM      3  C   UNL     1      -7.488   5.481 134.842  0.00  0.00    +0.000 C 
ATOM      4  C   UNL     1      -8.361   5.310 132.921  0.00  0.00    +0.000 C 
ATOM      5  C   UNL     1      -8.108   6.446 131.861  0.00  0.00    +0.000 C 
ATOM      6  C   UNL     1      -9.335   6.603 131.072  0.00  0.00    +0.000 C 
ATOM      7  C   UNL     1     -10.435   6.261 131.978  0.00  0.00    +0.000 C 
ATOM      8  O   UNL     1     -11.576   6.664 131.937  0.00  0.00    +0.000 OA
ATOM      9  O   UNL     1     -10.011   5.331 132.823  0.00  0.00    +0.000 OA
ATOM     10  C   UNL     1      -8.099   3.629 132.518  0.00  0.00    +0.000 C 
ATOM     11  C   UNL     1      -9.254   2.631 132.776  0.00  0.00    +0.000 C 
ATOM     12  C   UNL     1      -8.220   4.552 133.590  0.00  0.00    +0.000 C 
ATOM     13  C   UNL     1      -6.425   5.325 133.068  0.00  0.00    +0.000 C 
ATOM     14  O   UNL     1      -6.273   4.949 131.482  0.00  0.00    +0.000 OA
ATOM     15  C   UNL     1      -5.343   4.677 132.451  0.00  0.00    +0.000 C 
ATOM     16  C   UNL     1      -5.372   3.236 132.794  0.00  0.00    +0.000 C 
ATOM     17  C   UNL     1      -3.997   2.931 133.631  0.00  0.00    +0.000 C 
ATOM     18  C   UNL     1      -2.485   3.424 132.951  0.00  0.00    +0.000 C 
ATOM     19  C   UNL     1      -2.609   5.181 132.664  0.00  0.00    +0.000 C 
ATOM     20  C   UNL     1      -1.664   6.143 132.542  0.00  0.00    +0.000 C 
ATOM     21  C   UNL     1      -2.097   7.564 132.209  0.00  0.00    +0.000 C 
ATOM     22  O   UNL     1      -1.545   8.512 132.766  0.00  0.00    +0.000 OA
ATOM     23  C   UNL     1      -3.213   7.795 131.197  0.00  0.00    +0.000 C 
ATOM     24  C   UNL     1      -4.416   6.944 131.517  0.00  0.00    +0.000 C 
ATOM     25  C   UNL     1      -4.070   5.493 132.037  0.00  0.00    +0.000 C 
ATOM     26  C   UNL     1      -3.788   4.520 130.936  0.00  0.00    +0.000 C 
ENDROOT
BRANCH  17  27
ATOM     27  C   UNL     1      -3.981   3.856 134.828  0.00  0.00    +0.000 C 
ATOM     28  O   UNL     1      -4.040   5.080 134.763  0.00  0.00    +0.000 OA
BRANCH  27  29
ATOM     29  O   UNL     1      -3.842   3.231 136.008  0.00  0.00    +0.000 OA
ATOM     30  C   UNL     1      -3.640   4.205 137.039  0.00  0.00    +0.000 C 
ENDBRANCH  27  29
ENDBRANCH  17  27
TORSDOF 2
ENDMDL
MODEL 9
REMARK VINA RESULT:      -8.0      2.245      5.806
REMARK  Name = Eplerenone
REMARK  5 active torsions:
REMARK  status: ('A' for Active; 'I' for Inactive)
REMARK    1  A    between atoms: C_11  and  C_12
REMARK    2  A    between atoms: C_19  and  C_29
REMARK    3  A    between atoms: C_27  and  C_28
REMARK    4  A    between atoms: C_29  and  O_31
REMARK    5  A    between atoms: O_31  and  C_32
REMARK                            x       y       z     vdW  Elec       q    Type
REMARK                         _______ _______ _______ _____ _____    ______ ____
ROOT
ATOM      1  C   UNL     1      -7.372  -2.542 127.219  0.00  0.00    +0.000 C 
ATOM      2  C   UNL     1      -5.681  -2.375 127.371  0.00  0.00    +0.000 C 
ATOM      3  C   UNL     1      -5.287  -0.861 128.473  0.00  0.00    +0.000 C 
ATOM      4  C   UNL     1      -7.187  -0.627 129.377  0.00  0.00    +0.000 C 
ATOM      5  C   UNL     1      -7.822   0.812 129.462  0.00  0.00    +0.000 C 
ATOM      6  C   UNL     1      -8.555   0.903 130.730  0.00  0.00    +0.000 C 
ATOM      7  C   UNL     1      -7.837   0.033 131.666  0.00  0.00    +0.000 C 
ATOM      8  O   UNL     1      -7.780   0.135 132.871  0.00  0.00    +0.000 OA
ATOM      9  O   UNL     1      -7.321  -0.981 130.987  0.00  0.00    +0.000 OA
ATOM     10  C   UNL     1      -8.097  -1.975 128.738  0.00  0.00    +0.000 C 
ATOM     11  C   UNL     1      -8.204  -3.255 129.602  0.00  0.00    +0.000 C 
ATOM     12  C   UNL     1      -6.791  -1.498 129.023  0.00  0.00    +0.000 C 
ATOM     13  C   UNL     1      -6.988  -0.184 127.497  0.00  0.00    +0.000 C 
ATOM     14  O   UNL     1      -8.606   0.010 127.342  0.00  0.00    +0.000 OA
ATOM     15  C   UNL     1      -7.748  -0.317 126.325  0.00  0.00    +0.000 C 
ATOM     16  C   UNL     1      -7.883  -1.753 125.986  0.00  0.00    +0.000 C 
ATOM     17  C   UNL     1      -7.148  -1.960 124.537  0.00  0.00    +0.000 C 
ATOM     18  C   UNL     1      -7.591  -0.922 123.227  0.00  0.00    +0.000 C 
ATOM     19  C   UNL     1      -7.308   0.749 123.786  0.00  0.00    +0.000 C 
ATOM     20  C   UNL     1      -7.090   1.902 123.109  0.00  0.00    +0.000 C 
ATOM     21  C   UNL     1      -6.965   3.202 123.890  0.00  0.00    +0.000 C 
ATOM     22  O   UNL     1      -6.120   4.031 123.555  0.00  0.00    +0.000 OA
ATOM     23  C   UNL     1      -7.882   3.459 125.080  0.00  0.00    +0.000 C 
ATOM     24  C   UNL     1      -7.884   2.283 126.023  0.00  0.00    +0.000 C 
ATOM     25  C   UNL     1      -7.844   0.874 125.309  0.00  0.00    +0.000 C 
ATOM     26  C   UNL     1      -9.189   0.399 124.859  0.00  0.00    +0.000 C 
ENDROOT
BRANCH  17  27
ATOM     27  C   UNL     1      -5.718  -1.485 124.683  0.00  0.00    +0.000 C 
ATOM     28  O   UNL     1      -5.388  -0.408 125.169  0.00  0.00    +0.000 OA
BRANCH  27  29
ATOM     29  O   UNL     1      -4.803  -2.329 124.181  0.00  0.00    +0.000 OA
ATOM     30  C   UNL     1      -5.407  -3.612 123.973  0.00  0.00    +0.000 C 
ENDBRANCH  27  29
ENDBRANCH  17  27
TORSDOF 2
ENDMDL
