MODEL 1
REMARK VINA RESULT:      -6.7      0.000      0.000
REMARK  Name = Epoprostenol
REMARK  14 active torsions:
REMARK  status: ('A' for Active; 'I' for Inactive)
REMARK    1  A    between atoms: C_4  and  O_5
REMARK    2  A    between atoms: C_6  and  C_7
REMARK    3  A    between atoms: C_8  and  C_9
REMARK    4  A    between atoms: C_9  and  O_10
REMARK    5  A    between atoms: C_9  and  C_11
REMARK    6  A    between atoms: C_11  and  C_12
REMARK    7  A    between atoms: C_12  and  C_13
REMARK    8  A    between atoms: C_13  and  C_14
REMARK    9  A    between atoms: C_14  and  C_15
REMARK   10  A    between atoms: C_21  and  C_22
REMARK   11  A    between atoms: C_22  and  C_23
REMARK   12  A    between atoms: C_23  and  C_24
REMARK   13  A    between atoms: C_24  and  C_25
REMARK   14  A    between atoms: C_25  and  O_26
REMARK                            x       y       z     vdW  Elec       q    Type
REMARK                         _______ _______ _______ _____ _____    ______ ____
ROOT
ATOM      1  C   UNL     1     -10.989   4.586 130.580  0.00  0.00    +0.000 C 
ATOM      2  C   UNL     1      -9.740   3.920 130.038  0.00  0.00    +0.000 C 
ATOM      3  C   UNL     1      -8.680   5.013 130.088  0.00  0.00    +0.000 C 
ATOM      4  C   UNL     1      -9.120   6.010 131.191  0.00  0.00    +0.000 C 
ATOM      5  C   UNL     1     -10.519   5.547 131.660  0.00  0.00    +0.000 C 
ATOM      6  C   UNL     1     -11.556   6.655 131.615  0.00  0.00    +0.000 C 
ATOM      7  C   UNL     1     -12.149   6.458 130.255  0.00  0.00    +0.000 C 
ATOM      8  O   UNL     1     -11.599   5.391 129.565  0.00  0.00    +0.000 OA
ATOM      9  C   UNL     1     -13.143   7.180 129.728  0.00  0.00    +0.000 C 
ENDROOT
BRANCH   3  10
ATOM     10  O   UNL     1      -8.574   5.681 128.834  0.00  0.00    +0.000 OA
ATOM     11  H   UNL     1      -8.354   5.013 128.160  0.00  0.00    +0.000 HD
ENDBRANCH   3  10
BRANCH   4  12
ATOM     12  C   UNL     1      -8.182   6.119 132.364  0.00  0.00    +0.000 C 
ATOM     13  C   UNL     1      -8.462   5.670 133.596  0.00  0.00    +0.000 C 
BRANCH  13  14
ATOM     14  C   UNL     1      -7.507   5.694 134.738  0.00  0.00    +0.000 C 
BRANCH  14  15
ATOM     15  O   UNL     1      -8.201   6.159 135.885  0.00  0.00    +0.000 OA
ATOM     16  H   UNL     1      -9.042   5.673 135.923  0.00  0.00    +0.000 HD
ENDBRANCH  14  15
BRANCH  14  17
ATOM     17  C   UNL     1      -6.962   4.288 134.979  0.00  0.00    +0.000 C 
BRANCH  17  18
ATOM     18  C   UNL     1      -7.727   3.273 134.146  0.00  0.00    +0.000 C 
BRANCH  18  19
ATOM     19  C   UNL     1      -6.764   2.360 133.406  0.00  0.00    +0.000 C 
BRANCH  19  20
ATOM     20  C   UNL     1      -7.340   1.986 132.049  0.00  0.00    +0.000 C 
ATOM     21  C   UNL     1      -8.587   1.142 132.220  0.00  0.00    +0.000 C 
ENDBRANCH  19  20
ENDBRANCH  18  19
ENDBRANCH  17  18
ENDBRANCH  14  17
ENDBRANCH  13  14
ENDBRANCH   4  12
BRANCH   9  22
ATOM     22  C   UNL     1     -13.706   6.912 128.360  0.00  0.00    +0.000 C 
BRANCH  22  23
ATOM     23  C   UNL     1     -13.095   7.855 127.328  0.00  0.00    +0.000 C 
BRANCH  23  24
ATOM     24  C   UNL     1     -12.099   7.147 126.419  0.00  0.00    +0.000 C 
BRANCH  24  25
ATOM     25  C   UNL     1     -10.651   7.237 126.846  0.00  0.00    +0.000 C 
ATOM     26  O   UNL     1     -10.277   8.034 127.703  0.00  0.00    +0.000 OA
BRANCH  25  27
ATOM     27  O   UNL     1      -9.775   6.404 126.252  0.00  0.00    +0.000 OA
ATOM     28  H   UNL     1      -8.846   6.447 126.540  0.00  0.00    +0.000 HD
ENDBRANCH  25  27
ENDBRANCH  24  25
ENDBRANCH  23  24
ENDBRANCH  22  23
ENDBRANCH   9  22
TORSDOF 13
ENDMDL
MODEL 2
REMARK VINA RESULT:      -6.7      1.622      2.068
REMARK  Name = Epoprostenol
REMARK  14 active torsions:
REMARK  status: ('A' for Active; 'I' for Inactive)
REMARK    1  A    between atoms: C_4  and  O_5
REMARK    2  A    between atoms: C_6  and  C_7
REMARK    3  A    between atoms: C_8  and  C_9
REMARK    4  A    between atoms: C_9  and  O_10
REMARK    5  A    between atoms: C_9  and  C_11
REMARK    6  A    between atoms: C_11  and  C_12
REMARK    7  A    between atoms: C_12  and  C_13
REMARK    8  A    between atoms: C_13  and  C_14
REMARK    9  A    between atoms: C_14  and  C_15
REMARK   10  A    between atoms: C_21  and  C_22
REMARK   11  A    between atoms: C_22  and  C_23
REMARK   12  A    between atoms: C_23  and  C_24
REMARK   13  A    between atoms: C_24  and  C_25
REMARK   14  A    between atoms: C_25  and  O_26
REMARK                            x       y       z     vdW  Elec       q    Type
REMARK                         _______ _______ _______ _____ _____    ______ ____
ROOT
ATOM      1  C   UNL     1     -10.755   4.570 130.567  0.00  0.00    +0.000 C 
ATOM      2  C   UNL     1      -9.683   3.744 129.885  0.00  0.00    +0.000 C 
ATOM      3  C   UNL     1      -8.588   4.750 129.552  0.00  0.00    +0.000 C 
ATOM      4  C   UNL     1      -8.734   5.918 130.561  0.00  0.00    +0.000 C 
ATOM      5  C   UNL     1     -10.020   5.631 131.371  0.00  0.00    +0.000 C 
ATOM      6  C   UNL     1     -10.991   6.798 131.377  0.00  0.00    +0.000 C 
ATOM      7  C   UNL     1     -11.870   6.465 130.213  0.00  0.00    +0.000 C 
ATOM      8  O   UNL     1     -11.531   5.275 129.591  0.00  0.00    +0.000 OA
ATOM      9  C   UNL     1     -12.920   7.182 129.801  0.00  0.00    +0.000 C 
ENDROOT
BRANCH   3  10
ATOM     10  O   UNL     1      -8.723   5.231 128.218  0.00  0.00    +0.000 OA
ATOM     11  H   UNL     1      -7.912   4.996 127.734  0.00  0.00    +0.000 HD
ENDBRANCH   3  10
BRANCH   4  12
ATOM     12  C   UNL     1      -7.563   6.112 131.486  0.00  0.00    +0.000 C 
ATOM     13  C   UNL     1      -6.354   5.563 131.297  0.00  0.00    +0.000 C 
BRANCH  13  14
ATOM     14  C   UNL     1      -5.168   5.822 132.158  0.00  0.00    +0.000 C 
BRANCH  14  15
ATOM     15  O   UNL     1      -4.560   7.028 131.721  0.00  0.00    +0.000 OA
ATOM     16  H   UNL     1      -4.092   7.403 132.486  0.00  0.00    +0.000 HD
ENDBRANCH  14  15
BRANCH  14  17
ATOM     17  C   UNL     1      -5.609   5.947 133.615  0.00  0.00    +0.000 C 
BRANCH  17  18
ATOM     18  C   UNL     1      -5.537   4.596 134.307  0.00  0.00    +0.000 C 
BRANCH  18  19
ATOM     19  C   UNL     1      -6.594   4.499 135.394  0.00  0.00    +0.000 C 
BRANCH  19  20
ATOM     20  C   UNL     1      -7.955   4.884 134.832  0.00  0.00    +0.000 C 
ATOM     21  C   UNL     1      -8.578   3.707 134.109  0.00  0.00    +0.000 C 
ENDBRANCH  19  20
ENDBRANCH  18  19
ENDBRANCH  17  18
ENDBRANCH  14  17
ENDBRANCH  13  14
ENDBRANCH   4  12
BRANCH   9  22
ATOM     22  C   UNL     1     -13.776   6.774 128.633  0.00  0.00    +0.000 C 
BRANCH  22  23
ATOM     23  C   UNL     1     -13.519   7.678 127.431  0.00  0.00    +0.000 C 
BRANCH  23  24
ATOM     24  C   UNL     1     -12.577   7.037 126.419  0.00  0.00    +0.000 C 
BRANCH  24  25
ATOM     25  C   UNL     1     -11.111   7.365 126.596  0.00  0.00    +0.000 C 
ATOM     26  O   UNL     1     -10.741   8.405 127.135  0.00  0.00    +0.000 OA
BRANCH  25  27
ATOM     27  O   UNL     1     -10.215   6.470 126.140  0.00  0.00    +0.000 OA
ATOM     28  H   UNL     1      -9.566   6.776 125.482  0.00  0.00    +0.000 HD
ENDBRANCH  25  27
ENDBRANCH  24  25
ENDBRANCH  23  24
ENDBRANCH  22  23
ENDBRANCH   9  22
TORSDOF 13
ENDMDL
MODEL 3
REMARK VINA RESULT:      -6.6      1.658      3.136
REMARK  Name = Epoprostenol
REMARK  14 active torsions:
REMARK  status: ('A' for Active; 'I' for Inactive)
REMARK    1  A    between atoms: C_4  and  O_5
REMARK    2  A    between atoms: C_6  and  C_7
REMARK    3  A    between atoms: C_8  and  C_9
REMARK    4  A    between atoms: C_9  and  O_10
REMARK    5  A    between atoms: C_9  and  C_11
REMARK    6  A    between atoms: C_11  and  C_12
REMARK    7  A    between atoms: C_12  and  C_13
REMARK    8  A    between atoms: C_13  and  C_14
REMARK    9  A    between atoms: C_14  and  C_15
REMARK   10  A    between atoms: C_21  and  C_22
REMARK   11  A    between atoms: C_22  and  C_23
REMARK   12  A    between atoms: C_23  and  C_24
REMARK   13  A    between atoms: C_24  and  C_25
REMARK   14  A    between atoms: C_25  and  O_26
REMARK                            x       y       z     vdW  Elec       q    Type
REMARK                         _______ _______ _______ _____ _____    ______ ____
ROOT
ATOM      1  C   UNL     1     -10.820   4.501 130.658  0.00  0.00    +0.000 C 
ATOM      2  C   UNL     1      -9.561   3.870 130.098  0.00  0.00    +0.000 C 
ATOM      3  C   UNL     1      -8.513   4.972 130.195  0.00  0.00    +0.000 C 
ATOM      4  C   UNL     1      -8.970   5.921 131.333  0.00  0.00    +0.000 C 
ATOM      5  C   UNL     1     -10.366   5.425 131.776  0.00  0.00    +0.000 C 
ATOM      6  C   UNL     1     -11.415   6.523 131.768  0.00  0.00    +0.000 C 
ATOM      7  C   UNL     1     -11.999   6.371 130.398  0.00  0.00    +0.000 C 
ATOM      8  O   UNL     1     -11.434   5.337 129.672  0.00  0.00    +0.000 OA
ATOM      9  C   UNL     1     -12.999   7.102 129.894  0.00  0.00    +0.000 C 
ENDROOT
BRANCH   3  10
ATOM     10  O   UNL     1      -8.409   5.687 128.968  0.00  0.00    +0.000 OA
ATOM     11  H   UNL     1      -7.505   5.563 128.628  0.00  0.00    +0.000 HD
ENDBRANCH   3  10
BRANCH   4  12
ATOM     12  C   UNL     1      -8.039   5.996 132.514  0.00  0.00    +0.000 C 
ATOM     13  C   UNL     1      -8.127   5.205 133.593  0.00  0.00    +0.000 C 
BRANCH  13  14
ATOM     14  C   UNL     1      -7.159   5.213 134.724  0.00  0.00    +0.000 C 
BRANCH  14  15
ATOM     15  O   UNL     1      -5.994   5.905 134.303  0.00  0.00    +0.000 OA
ATOM     16  H   UNL     1      -5.556   6.238 135.105  0.00  0.00    +0.000 HD
ENDBRANCH  14  15
BRANCH  14  17
ATOM     17  C   UNL     1      -7.785   5.909 135.930  0.00  0.00    +0.000 C 
BRANCH  17  18
ATOM     18  C   UNL     1      -6.768   6.045 137.050  0.00  0.00    +0.000 C 
BRANCH  18  19
ATOM     19  C   UNL     1      -7.330   6.894 138.177  0.00  0.00    +0.000 C 
BRANCH  19  20
ATOM     20  C   UNL     1      -8.681   7.465 137.775  0.00  0.00    +0.000 C 
ATOM     21  C   UNL     1      -8.886   8.829 138.404  0.00  0.00    +0.000 C 
ENDBRANCH  19  20
ENDBRANCH  18  19
ENDBRANCH  17  18
ENDBRANCH  14  17
ENDBRANCH  13  14
ENDBRANCH   4  12
BRANCH   9  22
ATOM     22  C   UNL     1     -13.552   6.879 128.513  0.00  0.00    +0.000 C 
BRANCH  22  23
ATOM     23  C   UNL     1     -12.925   7.849 127.515  0.00  0.00    +0.000 C 
BRANCH  23  24
ATOM     24  C   UNL     1     -12.022   7.140 126.513  0.00  0.00    +0.000 C 
BRANCH  24  25
ATOM     25  C   UNL     1     -10.558   7.077 126.887  0.00  0.00    +0.000 C 
ATOM     26  O   UNL     1      -9.766   6.361 126.281  0.00  0.00    +0.000 OA
BRANCH  25  27
ATOM     27  O   UNL     1     -10.147   7.840 127.918  0.00  0.00    +0.000 OA
ATOM     28  H   UNL     1     -10.009   7.403 128.776  0.00  0.00    +0.000 HD
ENDBRANCH  25  27
ENDBRANCH  24  25
ENDBRANCH  23  24
ENDBRANCH  22  23
ENDBRANCH   9  22
TORSDOF 13
ENDMDL
MODEL 4
REMARK VINA RESULT:      -6.6      3.195      3.710
REMARK  Name = Epoprostenol
REMARK  14 active torsions:
REMARK  status: ('A' for Active; 'I' for Inactive)
REMARK    1  A    between atoms: C_4  and  O_5
REMARK    2  A    between atoms: C_6  and  C_7
REMARK    3  A    between atoms: C_8  and  C_9
REMARK    4  A    between atoms: C_9  and  O_10
REMARK    5  A    between atoms: C_9  and  C_11
REMARK    6  A    between atoms: C_11  and  C_12
REMARK    7  A    between atoms: C_12  and  C_13
REMARK    8  A    between atoms: C_13  and  C_14
REMARK    9  A    between atoms: C_14  and  C_15
REMARK   10  A    between atoms: C_21  and  C_22
REMARK   11  A    between atoms: C_22  and  C_23
REMARK   12  A    between atoms: C_23  and  C_24
REMARK   13  A    between atoms: C_24  and  C_25
REMARK   14  A    between atoms: C_25  and  O_26
REMARK                            x       y       z     vdW  Elec       q    Type
REMARK                         _______ _______ _______ _____ _____    ______ ____
ROOT
ATOM      1  C   UNL     1      -9.867   4.249 130.531  0.00  0.00    +0.000 C 
ATOM      2  C   UNL     1      -8.990   3.350 129.683  0.00  0.00    +0.000 C 
ATOM      3  C   UNL     1      -7.888   4.271 129.176  0.00  0.00    +0.000 C 
ATOM      4  C   UNL     1      -7.775   5.434 130.196  0.00  0.00    +0.000 C 
ATOM      5  C   UNL     1      -8.930   5.237 131.205  0.00  0.00    +0.000 C 
ATOM      6  C   UNL     1      -9.791   6.477 131.370  0.00  0.00    +0.000 C 
ATOM      7  C   UNL     1     -10.872   6.229 130.366  0.00  0.00    +0.000 C 
ATOM      8  O   UNL     1     -10.734   5.024 129.696  0.00  0.00    +0.000 OA
ATOM      9  C   UNL     1     -11.915   7.031 130.131  0.00  0.00    +0.000 C 
ENDROOT
BRANCH   3  10
ATOM     10  O   UNL     1      -8.200   4.779 127.882  0.00  0.00    +0.000 OA
ATOM     11  H   UNL     1      -7.967   5.724 127.870  0.00  0.00    +0.000 HD
ENDBRANCH   3  10
BRANCH   4  12
ATOM     12  C   UNL     1      -6.456   5.524 130.917  0.00  0.00    +0.000 C 
ATOM     13  C   UNL     1      -5.713   6.638 130.991  0.00  0.00    +0.000 C 
BRANCH  13  14
ATOM     14  C   UNL     1      -4.454   6.759 131.775  0.00  0.00    +0.000 C 
BRANCH  14  15
ATOM     15  O   UNL     1      -4.059   5.457 132.180  0.00  0.00    +0.000 OA
ATOM     16  H   UNL     1      -4.152   4.879 131.405  0.00  0.00    +0.000 HD
ENDBRANCH  14  15
BRANCH  14  17
ATOM     17  C   UNL     1      -3.370   7.398 130.909  0.00  0.00    +0.000 C 
BRANCH  17  18
ATOM     18  C   UNL     1      -2.376   6.348 130.443  0.00  0.00    +0.000 C 
BRANCH  18  19
ATOM     19  C   UNL     1      -2.172   6.440 128.941  0.00  0.00    +0.000 C 
BRANCH  19  20
ATOM     20  C   UNL     1      -3.107   5.474 128.228  0.00  0.00    +0.000 C 
ATOM     21  C   UNL     1      -3.206   4.173 128.998  0.00  0.00    +0.000 C 
ENDBRANCH  19  20
ENDBRANCH  18  19
ENDBRANCH  17  18
ENDBRANCH  14  17
ENDBRANCH  13  14
ENDBRANCH   4  12
BRANCH   9  22
ATOM     22  C   UNL     1     -12.979   6.707 129.118  0.00  0.00    +0.000 C 
BRANCH  22  23
ATOM     23  C   UNL     1     -13.014   7.758 128.013  0.00  0.00    +0.000 C 
BRANCH  23  24
ATOM     24  C   UNL     1     -11.636   8.345 127.732  0.00  0.00    +0.000 C 
BRANCH  24  25
ATOM     25  C   UNL     1     -10.834   7.639 126.662  0.00  0.00    +0.000 C 
ATOM     26  O   UNL     1     -10.878   7.986 125.485  0.00  0.00    +0.000 OA
BRANCH  25  27
ATOM     27  O   UNL     1     -10.060   6.606 127.046  0.00  0.00    +0.000 OA
ATOM     28  H   UNL     1     -10.155   6.287 127.961  0.00  0.00    +0.000 HD
ENDBRANCH  25  27
ENDBRANCH  24  25
ENDBRANCH  23  24
ENDBRANCH  22  23
ENDBRANCH   9  22
TORSDOF 13
ENDMDL
MODEL 5
REMARK VINA RESULT:      -6.5      8.215      9.373
REMARK  Name = Epoprostenol
REMARK  14 active torsions:
REMARK  status: ('A' for Active; 'I' for Inactive)
REMARK    1  A    between atoms: C_4  and  O_5
REMARK    2  A    between atoms: C_6  and  C_7
REMARK    3  A    between atoms: C_8  and  C_9
REMARK    4  A    between atoms: C_9  and  O_10
REMARK    5  A    between atoms: C_9  and  C_11
REMARK    6  A    between atoms: C_11  and  C_12
REMARK    7  A    between atoms: C_12  and  C_13
REMARK    8  A    between atoms: C_13  and  C_14
REMARK    9  A    between atoms: C_14  and  C_15
REMARK   10  A    between atoms: C_21  and  C_22
REMARK   11  A    between atoms: C_22  and  C_23
REMARK   12  A    between atoms: C_23  and  C_24
REMARK   13  A    between atoms: C_24  and  C_25
REMARK   14  A    between atoms: C_25  and  O_26
REMARK                            x       y       z     vdW  Elec       q    Type
REMARK                         _______ _______ _______ _____ _____    ______ ____
ROOT
ATOM      1  C   UNL     1      -8.420  -0.298 123.911  0.00  0.00    +0.000 C 
ATOM      2  C   UNL     1      -8.366  -1.697 123.331  0.00  0.00    +0.000 C 
ATOM      3  C   UNL     1      -6.921  -2.133 123.534  0.00  0.00    +0.000 C 
ATOM      4  C   UNL     1      -6.373  -1.315 124.732  0.00  0.00    +0.000 C 
ATOM      5  C   UNL     1      -7.480  -0.302 125.106  0.00  0.00    +0.000 C 
ATOM      6  C   UNL     1      -6.980   1.131 125.162  0.00  0.00    +0.000 C 
ATOM      7  C   UNL     1      -7.272   1.605 123.773  0.00  0.00    +0.000 C 
ATOM      8  O   UNL     1      -7.878   0.645 122.980  0.00  0.00    +0.000 OA
ATOM      9  C   UNL     1      -7.036   2.835 123.305  0.00  0.00    +0.000 C 
ENDROOT
BRANCH   3  10
ATOM     10  O   UNL     1      -6.142  -1.882 122.368  0.00  0.00    +0.000 OA
ATOM     11  H   UNL     1      -5.627  -1.070 122.524  0.00  0.00    +0.000 HD
ENDBRANCH   3  10
BRANCH   4  12
ATOM     12  C   UNL     1      -5.978  -2.130 125.934  0.00  0.00    +0.000 C 
ATOM     13  C   UNL     1      -5.505  -1.609 127.075  0.00  0.00    +0.000 C 
BRANCH  13  14
ATOM     14  C   UNL     1      -5.196  -2.401 128.298  0.00  0.00    +0.000 C 
BRANCH  14  15
ATOM     15  O   UNL     1      -3.938  -1.971 128.796  0.00  0.00    +0.000 OA
ATOM     16  H   UNL     1      -3.974  -2.055 129.764  0.00  0.00    +0.000 HD
ENDBRANCH  14  15
BRANCH  14  17
ATOM     17  C   UNL     1      -6.287  -2.176 129.343  0.00  0.00    +0.000 C 
BRANCH  17  18
ATOM     18  C   UNL     1      -7.090  -3.448 129.552  0.00  0.00    +0.000 C 
BRANCH  18  19
ATOM     19  C   UNL     1      -8.502  -3.279 129.017  0.00  0.00    +0.000 C 
BRANCH  19  20
ATOM     20  C   UNL     1      -8.670  -4.077 127.732  0.00  0.00    +0.000 C 
ATOM     21  C   UNL     1      -9.237  -3.198 126.636  0.00  0.00    +0.000 C 
ENDBRANCH  19  20
ENDBRANCH  18  19
ENDBRANCH  17  18
ENDBRANCH  14  17
ENDBRANCH  13  14
ENDBRANCH   4  12
BRANCH   9  22
ATOM     22  C   UNL     1      -7.376   3.250 121.900  0.00  0.00    +0.000 C 
BRANCH  22  23
ATOM     23  C   UNL     1      -6.171   3.083 120.979  0.00  0.00    +0.000 C 
BRANCH  23  24
ATOM     24  C   UNL     1      -5.055   4.067 121.305  0.00  0.00    +0.000 C 
BRANCH  24  25
ATOM     25  C   UNL     1      -4.969   5.277 120.402  0.00  0.00    +0.000 C 
ATOM     26  O   UNL     1      -4.332   6.278 120.719  0.00  0.00    +0.000 OA
BRANCH  25  27
ATOM     27  O   UNL     1      -5.619   5.220 119.224  0.00  0.00    +0.000 OA
ATOM     28  H   UNL     1      -5.349   4.530 118.592  0.00  0.00    +0.000 HD
ENDBRANCH  25  27
ENDBRANCH  24  25
ENDBRANCH  23  24
ENDBRANCH  22  23
ENDBRANCH   9  22
TORSDOF 13
ENDMDL
MODEL 6
REMARK VINA RESULT:      -6.3      2.793      3.516
REMARK  Name = Epoprostenol
REMARK  14 active torsions:
REMARK  status: ('A' for Active; 'I' for Inactive)
REMARK    1  A    between atoms: C_4  and  O_5
REMARK    2  A    between atoms: C_6  and  C_7
REMARK    3  A    between atoms: C_8  and  C_9
REMARK    4  A    between atoms: C_9  and  O_10
REMARK    5  A    between atoms: C_9  and  C_11
REMARK    6  A    between atoms: C_11  and  C_12
REMARK    7  A    between atoms: C_12  and  C_13
REMARK    8  A    between atoms: C_13  and  C_14
REMARK    9  A    between atoms: C_14  and  C_15
REMARK   10  A    between atoms: C_21  and  C_22
REMARK   11  A    between atoms: C_22  and  C_23
REMARK   12  A    between atoms: C_23  and  C_24
REMARK   13  A    between atoms: C_24  and  C_25
REMARK   14  A    between atoms: C_25  and  O_26
REMARK                            x       y       z     vdW  Elec       q    Type
REMARK                         _______ _______ _______ _____ _____    ______ ____
ROOT
ATOM      1  C   UNL     1     -10.723   4.363 130.705  0.00  0.00    +0.000 C 
ATOM      2  C   UNL     1      -9.532   3.663 130.081  0.00  0.00    +0.000 C 
ATOM      3  C   UNL     1      -8.436   4.723 130.073  0.00  0.00    +0.000 C 
ATOM      4  C   UNL     1      -8.775   5.722 131.210  0.00  0.00    +0.000 C 
ATOM      5  C   UNL     1     -10.157   5.298 131.761  0.00  0.00    +0.000 C 
ATOM      6  C   UNL     1     -11.159   6.438 131.790  0.00  0.00    +0.000 C 
ATOM      7  C   UNL     1     -11.841   6.273 130.468  0.00  0.00    +0.000 C 
ATOM      8  O   UNL     1     -11.369   5.196 129.737  0.00  0.00    +0.000 OA
ATOM      9  C   UNL     1     -12.843   7.031 130.010  0.00  0.00    +0.000 C 
ENDROOT
BRANCH   3  10
ATOM     10  O   UNL     1      -8.387   5.399 128.820  0.00  0.00    +0.000 OA
ATOM     11  H   UNL     1      -7.594   5.962 128.819  0.00  0.00    +0.000 HD
ENDBRANCH   3  10
BRANCH   4  12
ATOM     12  C   UNL     1      -7.763   5.789 132.323  0.00  0.00    +0.000 C 
ATOM     13  C   UNL     1      -6.446   5.952 132.134  0.00  0.00    +0.000 C 
BRANCH  13  14
ATOM     14  C   UNL     1      -5.452   6.109 133.231  0.00  0.00    +0.000 C 
BRANCH  14  15
ATOM     15  O   UNL     1      -5.636   5.043 134.150  0.00  0.00    +0.000 OA
ATOM     16  H   UNL     1      -5.249   4.249 133.743  0.00  0.00    +0.000 HD
ENDBRANCH  14  15
BRANCH  14  17
ATOM     17  C   UNL     1      -4.039   6.073 132.650  0.00  0.00    +0.000 C 
BRANCH  17  18
ATOM     18  C   UNL     1      -3.802   7.281 131.760  0.00  0.00    +0.000 C 
BRANCH  18  19
ATOM     19  C   UNL     1      -2.413   7.850 131.997  0.00  0.00    +0.000 C 
BRANCH  19  20
ATOM     20  C   UNL     1      -1.651   6.971 132.978  0.00  0.00    +0.000 C 
ATOM     21  C   UNL     1      -0.178   7.329 132.972  0.00  0.00    +0.000 C 
ENDBRANCH  19  20
ENDBRANCH  18  19
ENDBRANCH  17  18
ENDBRANCH  14  17
ENDBRANCH  13  14
ENDBRANCH   4  12
BRANCH   9  22
ATOM     22  C   UNL     1     -13.498   6.794 128.677  0.00  0.00    +0.000 C 
BRANCH  22  23
ATOM     23  C   UNL     1     -13.029   7.822 127.652  0.00  0.00    +0.000 C 
BRANCH  23  24
ATOM     24  C   UNL     1     -12.105   7.212 126.605  0.00  0.00    +0.000 C 
BRANCH  24  25
ATOM     25  C   UNL     1     -10.632   7.234 126.945  0.00  0.00    +0.000 C 
ATOM     26  O   UNL     1      -9.836   6.457 126.424  0.00  0.00    +0.000 OA
BRANCH  25  27
ATOM     27  O   UNL     1     -10.215   8.145 127.845  0.00  0.00    +0.000 OA
ATOM     28  H   UNL     1     -10.868   8.476 128.487  0.00  0.00    +0.000 HD
ENDBRANCH  25  27
ENDBRANCH  24  25
ENDBRANCH  23  24
ENDBRANCH  22  23
ENDBRANCH   9  22
TORSDOF 13
ENDMDL
MODEL 7
REMARK VINA RESULT:      -6.2      2.550      3.871
REMARK  Name = Epoprostenol
REMARK  14 active torsions:
REMARK  status: ('A' for Active; 'I' for Inactive)
REMARK    1  A    between atoms: C_4  and  O_5
REMARK    2  A    between atoms: C_6  and  C_7
REMARK    3  A    between atoms: C_8  and  C_9
REMARK    4  A    between atoms: C_9  and  O_10
REMARK    5  A    between atoms: C_9  and  C_11
REMARK    6  A    between atoms: C_11  and  C_12
REMARK    7  A    between atoms: C_12  and  C_13
REMARK    8  A    between atoms: C_13  and  C_14
REMARK    9  A    between atoms: C_14  and  C_15
REMARK   10  A    between atoms: C_21  and  C_22
REMARK   11  A    between atoms: C_22  and  C_23
REMARK   12  A    between atoms: C_23  and  C_24
REMARK   13  A    between atoms: C_24  and  C_25
REMARK   14  A    between atoms: C_25  and  O_26
REMARK                            x       y       z     vdW  Elec       q    Type
REMARK                         _______ _______ _______ _____ _____    ______ ____
ROOT
ATOM      1  C   UNL     1      -9.210   6.103 130.695  0.00  0.00    +0.000 C 
ATOM      2  C   UNL     1      -8.130   6.297 131.740  0.00  0.00    +0.000 C 
ATOM      3  C   UNL     1      -8.626   5.508 132.945  0.00  0.00    +0.000 C 
ATOM      4  C   UNL     1      -9.576   4.410 132.397  0.00  0.00    +0.000 C 
ATOM      5  C   UNL     1      -9.728   4.686 130.883  0.00  0.00    +0.000 C 
ATOM      6  C   UNL     1     -11.177   4.783 130.441  0.00  0.00    +0.000 C 
ATOM      7  C   UNL     1     -11.427   6.255 130.546  0.00  0.00    +0.000 C 
ATOM      8  O   UNL     1     -10.317   6.972 130.961  0.00  0.00    +0.000 OA
ATOM      9  C   UNL     1     -12.571   6.874 130.239  0.00  0.00    +0.000 C 
ENDROOT
BRANCH   3  10
ATOM     10  O   UNL     1      -9.322   6.351 133.858  0.00  0.00    +0.000 OA
ATOM     11  H   UNL     1      -9.965   5.801 134.339  0.00  0.00    +0.000 HD
ENDBRANCH   3  10
BRANCH   4  12
ATOM     12  C   UNL     1      -9.118   2.996 132.631  0.00  0.00    +0.000 C 
ATOM     13  C   UNL     1      -9.024   2.066 131.669  0.00  0.00    +0.000 C 
BRANCH  13  14
ATOM     14  C   UNL     1      -8.488   0.693 131.875  0.00  0.00    +0.000 C 
BRANCH  14  15
ATOM     15  O   UNL     1      -9.585  -0.206 131.932  0.00  0.00    +0.000 OA
ATOM     16  H   UNL     1      -9.242  -1.051 132.266  0.00  0.00    +0.000 HD
ENDBRANCH  14  15
BRANCH  14  17
ATOM     17  C   UNL     1      -7.560   0.326 130.719  0.00  0.00    +0.000 C 
BRANCH  17  18
ATOM     18  C   UNL     1      -7.932  -1.033 130.152  0.00  0.00    +0.000 C 
BRANCH  18  19
ATOM     19  C   UNL     1      -6.915  -2.080 130.572  0.00  0.00    +0.000 C 
BRANCH  19  20
ATOM     20  C   UNL     1      -7.203  -3.398 129.868  0.00  0.00    +0.000 C 
ATOM     21  C   UNL     1      -8.425  -3.265 128.981  0.00  0.00    +0.000 C 
ENDBRANCH  19  20
ENDBRANCH  18  19
ENDBRANCH  17  18
ENDBRANCH  14  17
ENDBRANCH  13  14
ENDBRANCH   4  12
BRANCH   9  22
ATOM     22  C   UNL     1     -12.745   8.364 130.349  0.00  0.00    +0.000 C 
BRANCH  22  23
ATOM     23  C   UNL     1     -12.550   9.034 128.993  0.00  0.00    +0.000 C 
BRANCH  23  24
ATOM     24  C   UNL     1     -12.534   8.027 127.850  0.00  0.00    +0.000 C 
BRANCH  24  25
ATOM     25  C   UNL     1     -11.200   7.843 127.162  0.00  0.00    +0.000 C 
ATOM     26  O   UNL     1     -11.119   7.548 125.973  0.00  0.00    +0.000 OA
BRANCH  25  27
ATOM     27  O   UNL     1     -10.090   8.017 127.904  0.00  0.00    +0.000 OA
ATOM     28  H   UNL     1      -9.682   7.226 128.299  0.00  0.00    +0.000 HD
ENDBRANCH  25  27
ENDBRANCH  24  25
ENDBRANCH  23  24
ENDBRANCH  22  23
ENDBRANCH   9  22
TORSDOF 13
ENDMDL
MODEL 8
REMARK VINA RESULT:      -5.8      8.334      9.378
REMARK  Name = Epoprostenol
REMARK  14 active torsions:
REMARK  status: ('A' for Active; 'I' for Inactive)
REMARK    1  A    between atoms: C_4  and  O_5
REMARK    2  A    between atoms: C_6  and  C_7
REMARK    3  A    between atoms: C_8  and  C_9
REMARK    4  A    between atoms: C_9  and  O_10
REMARK    5  A    between atoms: C_9  and  C_11
REMARK    6  A    between atoms: C_11  and  C_12
REMARK    7  A    between atoms: C_12  and  C_13
REMARK    8  A    between atoms: C_13  and  C_14
REMARK    9  A    between atoms: C_14  and  C_15
REMARK   10  A    between atoms: C_21  and  C_22
REMARK   11  A    between atoms: C_22  and  C_23
REMARK   12  A    between atoms: C_23  and  C_24
REMARK   13  A    between atoms: C_24  and  C_25
REMARK   14  A    between atoms: C_25  and  O_26
REMARK                            x       y       z     vdW  Elec       q    Type
REMARK                         _______ _______ _______ _____ _____    ______ ____
ROOT
ATOM      1  C   UNL     1      -8.116  -0.249 124.134  0.00  0.00    +0.000 C 
ATOM      2  C   UNL     1      -8.177  -1.657 123.574  0.00  0.00    +0.000 C 
ATOM      3  C   UNL     1      -6.748  -2.171 123.698  0.00  0.00    +0.000 C 
ATOM      4  C   UNL     1      -6.084  -1.371 124.848  0.00  0.00    +0.000 C 
ATOM      5  C   UNL     1      -7.108  -0.292 125.271  0.00  0.00    +0.000 C 
ATOM      6  C   UNL     1      -6.526   1.110 125.273  0.00  0.00    +0.000 C 
ATOM      7  C   UNL     1      -6.874   1.583 123.896  0.00  0.00    +0.000 C 
ATOM      8  O   UNL     1      -7.580   0.649 123.157  0.00  0.00    +0.000 OA
ATOM      9  C   UNL     1      -6.598   2.792 123.396  0.00  0.00    +0.000 C 
ENDROOT
BRANCH   3  10
ATOM     10  O   UNL     1      -6.028  -1.980 122.483  0.00  0.00    +0.000 OA
ATOM     11  H   UNL     1      -6.300  -2.680 121.864  0.00  0.00    +0.000 HD
ENDBRANCH   3  10
BRANCH   4  12
ATOM     12  C   UNL     1      -5.664  -2.192 126.037  0.00  0.00    +0.000 C 
ATOM     13  C   UNL     1      -5.539  -1.707 127.281  0.00  0.00    +0.000 C 
BRANCH  13  14
ATOM     14  C   UNL     1      -5.210  -2.531 128.477  0.00  0.00    +0.000 C 
BRANCH  14  15
ATOM     15  O   UNL     1      -4.035  -2.000 129.069  0.00  0.00    +0.000 OA
ATOM     16  H   UNL     1      -4.217  -1.068 129.274  0.00  0.00    +0.000 HD
ENDBRANCH  14  15
BRANCH  14  17
ATOM     17  C   UNL     1      -6.373  -2.484 129.466  0.00  0.00    +0.000 C 
BRANCH  17  18
ATOM     18  C   UNL     1      -6.623  -3.862 130.055  0.00  0.00    +0.000 C 
BRANCH  18  19
ATOM     19  C   UNL     1      -6.242  -3.889 131.525  0.00  0.00    +0.000 C 
BRANCH  19  20
ATOM     20  C   UNL     1      -4.968  -4.699 131.718  0.00  0.00    +0.000 C 
ATOM     21  C   UNL     1      -3.856  -3.814 132.243  0.00  0.00    +0.000 C 
ENDBRANCH  19  20
ENDBRANCH  18  19
ENDBRANCH  17  18
ENDBRANCH  14  17
ENDBRANCH  13  14
ENDBRANCH   4  12
BRANCH   9  22
ATOM     22  C   UNL     1      -6.999   3.208 122.007  0.00  0.00    +0.000 C 
BRANCH  22  23
ATOM     23  C   UNL     1      -5.870   2.942 121.015  0.00  0.00    +0.000 C 
BRANCH  23  24
ATOM     24  C   UNL     1      -4.911   4.121 120.904  0.00  0.00    +0.000 C 
BRANCH  24  25
ATOM     25  C   UNL     1      -5.359   5.240 119.990  0.00  0.00    +0.000 C 
ATOM     26  O   UNL     1      -4.879   6.368 120.066  0.00  0.00    +0.000 OA
BRANCH  25  27
ATOM     27  O   UNL     1      -6.310   4.956 119.081  0.00  0.00    +0.000 OA
ATOM     28  H   UNL     1      -7.112   5.508 119.079  0.00  0.00    +0.000 HD
ENDBRANCH  25  27
ENDBRANCH  24  25
ENDBRANCH  23  24
ENDBRANCH  22  23
ENDBRANCH   9  22
TORSDOF 13
ENDMDL
MODEL 9
REMARK VINA RESULT:      -5.8      8.370     11.618
REMARK  Name = Epoprostenol
REMARK  14 active torsions:
REMARK  status: ('A' for Active; 'I' for Inactive)
REMARK    1  A    between atoms: C_4  and  O_5
REMARK    2  A    between atoms: C_6  and  C_7
REMARK    3  A    between atoms: C_8  and  C_9
REMARK    4  A    between atoms: C_9  and  O_10
REMARK    5  A    between atoms: C_9  and  C_11
REMARK    6  A    between atoms: C_11  and  C_12
REMARK    7  A    between atoms: C_12  and  C_13
REMARK    8  A    between atoms: C_13  and  C_14
REMARK    9  A    between atoms: C_14  and  C_15
REMARK   10  A    between atoms: C_21  and  C_22
REMARK   11  A    between atoms: C_22  and  C_23
REMARK   12  A    between atoms: C_23  and  C_24
REMARK   13  A    between atoms: C_24  and  C_25
REMARK   14  A    between atoms: C_25  and  O_26
REMARK                            x       y       z     vdW  Elec       q    Type
REMARK                         _______ _______ _______ _____ _____    ______ ____
ROOT
ATOM      1  C   UNL     1      -6.181  -0.920 130.053  0.00  0.00    +0.000 C 
ATOM      2  C   UNL     1      -5.027  -0.820 129.075  0.00  0.00    +0.000 C 
ATOM      3  C   UNL     1      -5.222  -2.009 128.143  0.00  0.00    +0.000 C 
ATOM      4  C   UNL     1      -6.732  -2.360 128.177  0.00  0.00    +0.000 C 
ATOM      5  C   UNL     1      -7.362  -1.451 129.258  0.00  0.00    +0.000 C 
ATOM      6  C   UNL     1      -8.160  -2.225 130.293  0.00  0.00    +0.000 C 
ATOM      7  C   UNL     1      -7.130  -2.459 131.353  0.00  0.00    +0.000 C 
ATOM      8  O   UNL     1      -5.897  -1.905 131.053  0.00  0.00    +0.000 OA
ATOM      9  C   UNL     1      -7.338  -3.090 132.513  0.00  0.00    +0.000 C 
ENDROOT
BRANCH   3  10
ATOM     10  O   UNL     1      -4.446  -3.126 128.568  0.00  0.00    +0.000 OA
ATOM     11  H   UNL     1      -3.543  -2.809 128.746  0.00  0.00    +0.000 HD
ENDBRANCH   3  10
BRANCH   4  12
ATOM     12  C   UNL     1      -7.455  -2.199 126.867  0.00  0.00    +0.000 C 
ATOM     13  C   UNL     1      -8.039  -3.205 126.200  0.00  0.00    +0.000 C 
BRANCH  13  14
ATOM     14  C   UNL     1      -8.831  -3.040 124.951  0.00  0.00    +0.000 C 
BRANCH  14  15
ATOM     15  O   UNL     1     -10.207  -3.024 125.299  0.00  0.00    +0.000 OA
ATOM     16  H   UNL     1     -10.253  -2.992 126.269  0.00  0.00    +0.000 HD
ENDBRANCH  14  15
BRANCH  14  17
ATOM     17  C   UNL     1      -8.440  -1.731 124.267  0.00  0.00    +0.000 C 
BRANCH  17  18
ATOM     18  C   UNL     1      -7.549  -2.006 123.067  0.00  0.00    +0.000 C 
BRANCH  18  19
ATOM     19  C   UNL     1      -6.094  -1.746 123.417  0.00  0.00    +0.000 C 
BRANCH  19  20
ATOM     20  C   UNL     1      -5.236  -2.928 122.988  0.00  0.00    +0.000 C 
ATOM     21  C   UNL     1      -4.865  -3.773 124.189  0.00  0.00    +0.000 C 
ENDBRANCH  19  20
ENDBRANCH  18  19
ENDBRANCH  17  18
ENDBRANCH  14  17
ENDBRANCH  13  14
ENDBRANCH   4  12
BRANCH   9  22
ATOM     22  C   UNL     1      -6.259  -3.270 133.545  0.00  0.00    +0.000 C 
BRANCH  22  23
ATOM     23  C   UNL     1      -5.817  -4.729 133.620  0.00  0.00    +0.000 C 
BRANCH  23  24
ATOM     24  C   UNL     1      -4.862  -5.100 132.492  0.00  0.00    +0.000 C 
BRANCH  24  25
ATOM     25  C   UNL     1      -3.609  -4.259 132.398  0.00  0.00    +0.000 C 
ATOM     26  O   UNL     1      -2.732  -4.305 133.258  0.00  0.00    +0.000 OA
BRANCH  25  27
ATOM     27  O   UNL     1      -3.481  -3.450 131.329  0.00  0.00    +0.000 OA
ATOM     28  H   UNL     1      -4.087  -3.593 130.580  0.00  0.00    +0.000 HD
ENDBRANCH  25  27
ENDBRANCH  24  25
ENDBRANCH  23  24
ENDBRANCH  22  23
ENDBRANCH   9  22
TORSDOF 13
ENDMDL
