MODEL 1
REMARK VINA RESULT:      -7.7      0.000      0.000
REMARK  Name = Eprosartan
REMARK  13 active torsions:
REMARK  status: ('A' for Active; 'I' for Inactive)
REMARK    1  A    between atoms: C_1  and  C_2
REMARK    2  A    between atoms: C_2  and  C_3
REMARK    3  A    between atoms: C_3  and  C_4
REMARK    4  A    between atoms: C_4  and  C_5
REMARK    5  A    between atoms: C_8  and  C_9
REMARK    6  A    between atoms: C_10  and  C_11
REMARK    7  A    between atoms: C_10  and  C_17
REMARK    8  A    between atoms: C_11  and  C_12
REMARK    9  A    between atoms: C_17  and  O_18
REMARK   10  A    between atoms: N_20  and  C_21
REMARK   11  A    between atoms: C_21  and  C_22
REMARK   12  A    between atoms: C_25  and  C_28
REMARK   13  A    between atoms: C_28  and  O_29
REMARK                            x       y       z     vdW  Elec       q    Type
REMARK                         _______ _______ _______ _____ _____    ______ ____
ROOT
ATOM      1  C   UNL     1      -8.378  -0.527 123.344  0.00  0.00    +0.000 A 
ATOM      2  N   UNL     1      -9.660  -0.302 123.372  0.00  0.00    +0.000 NA
ATOM      3  C   UNL     1      -9.778   0.832 124.037  0.00  0.00    +0.000 A 
ATOM      4  C   UNL     1      -8.617   1.406 124.436  0.00  0.00    +0.000 A 
ATOM      5  N   UNL     1      -7.703   0.384 124.172  0.00  0.00    +0.000 N 
ENDROOT
BRANCH   4   6
ATOM      6  C   UNL     1      -8.450   2.650 125.097  0.00  0.00    +0.000 C 
ATOM      7  C   UNL     1      -7.598   3.629 124.659  0.00  0.00    +0.000 C 
BRANCH   7   8
ATOM      8  C   UNL     1      -7.685   5.017 125.272  0.00  0.00    +0.000 C 
ATOM      9  O   UNL     1      -8.634   5.364 125.957  0.00  0.00    +0.000 OA
BRANCH   8  10
ATOM     10  O   UNL     1      -6.661   5.876 125.078  0.00  0.00    +0.000 OA
ATOM     11  H   UNL     1      -5.788   5.705 125.452  0.00  0.00    +0.000 HD
ENDBRANCH   8  10
ENDBRANCH   7   8
BRANCH   7  12
ATOM     12  C   UNL     1      -6.451   3.644 123.551  0.00  0.00    +0.000 C 
BRANCH  12  13
ATOM     13  C   UNL     1      -6.718   3.479 122.038  0.00  0.00    +0.000 A 
ATOM     14  C   UNL     1      -5.839   3.603 120.948  0.00  0.00    +0.000 A 
ATOM     15  C   UNL     1      -6.544   4.099 119.779  0.00  0.00    +0.000 A 
ATOM     16  C   UNL     1      -7.909   4.146 119.994  0.00  0.00    +0.000 A 
ATOM     17  S   UNL     1      -8.346   3.376 121.466  0.00  0.00    +0.000 S 
ENDBRANCH  12  13
ENDBRANCH   7  12
ENDBRANCH   4   6
BRANCH   1  18
ATOM     18  C   UNL     1      -8.054  -1.880 122.863  0.00  0.00    +0.000 C 
BRANCH  18  19
ATOM     19  C   UNL     1      -9.255  -2.682 123.349  0.00  0.00    +0.000 C 
BRANCH  19  21
ATOM     20  C   UNL     1      -7.399  -3.911 124.410  0.00  0.00    +0.000 C 
ATOM     21  C   UNL     1      -8.889  -3.634 124.439  0.00  0.00    +0.000 C 
ENDBRANCH  19  21
ENDBRANCH  18  19
ENDBRANCH   1  18
BRANCH   5  22
ATOM     22  C   UNL     1      -6.535   0.172 125.027  0.00  0.00    +0.000 C 
BRANCH  22  23
ATOM     23  C   UNL     1      -6.673  -0.877 126.095  0.00  0.00    +0.000 A 
ATOM     24  C   UNL     1      -5.537  -1.582 126.511  0.00  0.00    +0.000 A 
ATOM     25  C   UNL     1      -5.582  -2.442 127.615  0.00  0.00    +0.000 A 
ATOM     26  C   UNL     1      -6.724  -2.493 128.420  0.00  0.00    +0.000 A 
ATOM     27  C   UNL     1      -7.866  -1.781 128.003  0.00  0.00    +0.000 A 
ATOM     28  C   UNL     1      -7.864  -1.043 126.807  0.00  0.00    +0.000 A 
BRANCH  26  29
ATOM     29  C   UNL     1      -6.697  -2.969 129.857  0.00  0.00    +0.000 C 
ATOM     30  O   UNL     1      -7.083  -2.285 130.763  0.00  0.00    +0.000 OA
BRANCH  29  31
ATOM     31  O   UNL     1      -6.112  -4.176 130.085  0.00  0.00    +0.000 OA
ATOM     32  H   UNL     1      -5.150  -4.245 130.150  0.00  0.00    +0.000 HD
ENDBRANCH  29  31
ENDBRANCH  26  29
ENDBRANCH  22  23
ENDBRANCH   5  22
TORSDOF 12
ENDMDL
MODEL 2
REMARK VINA RESULT:      -7.5      1.182      1.432
REMARK  Name = Eprosartan
REMARK  13 active torsions:
REMARK  status: ('A' for Active; 'I' for Inactive)
REMARK    1  A    between atoms: C_1  and  C_2
REMARK    2  A    between atoms: C_2  and  C_3
REMARK    3  A    between atoms: C_3  and  C_4
REMARK    4  A    between atoms: C_4  and  C_5
REMARK    5  A    between atoms: C_8  and  C_9
REMARK    6  A    between atoms: C_10  and  C_11
REMARK    7  A    between atoms: C_10  and  C_17
REMARK    8  A    between atoms: C_11  and  C_12
REMARK    9  A    between atoms: C_17  and  O_18
REMARK   10  A    between atoms: N_20  and  C_21
REMARK   11  A    between atoms: C_21  and  C_22
REMARK   12  A    between atoms: C_25  and  C_28
REMARK   13  A    between atoms: C_28  and  O_29
REMARK                            x       y       z     vdW  Elec       q    Type
REMARK                         _______ _______ _______ _____ _____    ______ ____
ROOT
ATOM      1  C   UNL     1      -7.927  -1.019 124.563  0.00  0.00    +0.000 A 
ATOM      2  N   UNL     1      -9.192  -0.801 124.344  0.00  0.00    +0.000 NA
ATOM      3  C   UNL     1      -9.393   0.425 124.791  0.00  0.00    +0.000 A 
ATOM      4  C   UNL     1      -8.301   1.062 125.279  0.00  0.00    +0.000 A 
ATOM      5  N   UNL     1      -7.378   0.017 125.336  0.00  0.00    +0.000 N 
ENDROOT
BRANCH   4   6
ATOM      6  C   UNL     1      -8.219   2.398 125.751  0.00  0.00    +0.000 C 
ATOM      7  C   UNL     1      -7.518   3.383 125.109  0.00  0.00    +0.000 C 
BRANCH   7   8
ATOM      8  C   UNL     1      -7.706   4.829 125.538  0.00  0.00    +0.000 C 
ATOM      9  O   UNL     1      -8.541   5.154 126.367  0.00  0.00    +0.000 OA
BRANCH   8  10
ATOM     10  O   UNL     1      -6.897   5.772 125.010  0.00  0.00    +0.000 OA
ATOM     11  H   UNL     1      -7.257   6.584 124.632  0.00  0.00    +0.000 HD
ENDBRANCH   8  10
ENDBRANCH   7   8
BRANCH   7  12
ATOM     12  C   UNL     1      -6.472   3.354 123.905  0.00  0.00    +0.000 C 
BRANCH  12  13
ATOM     13  C   UNL     1      -6.879   3.238 122.418  0.00  0.00    +0.000 A 
ATOM     14  C   UNL     1      -6.132   3.494 121.256  0.00  0.00    +0.000 A 
ATOM     15  C   UNL     1      -6.994   3.979 120.192  0.00  0.00    +0.000 A 
ATOM     16  C   UNL     1      -8.327   3.892 120.544  0.00  0.00    +0.000 A 
ATOM     17  S   UNL     1      -8.542   3.015 122.005  0.00  0.00    +0.000 S 
ENDBRANCH  12  13
ENDBRANCH   7  12
ENDBRANCH   4   6
BRANCH   1  18
ATOM     18  C   UNL     1      -7.557  -2.430 124.364  0.00  0.00    +0.000 C 
BRANCH  18  19
ATOM     19  C   UNL     1      -6.412  -2.316 123.365  0.00  0.00    +0.000 C 
BRANCH  19  21
ATOM     20  C   UNL     1      -4.607  -3.983 123.573  0.00  0.00    +0.000 C 
ATOM     21  C   UNL     1      -5.089  -2.608 123.992  0.00  0.00    +0.000 C 
ENDBRANCH  19  21
ENDBRANCH  18  19
ENDBRANCH   1  18
BRANCH   5  22
ATOM     22  C   UNL     1      -6.370  -0.048 126.394  0.00  0.00    +0.000 C 
BRANCH  22  23
ATOM     23  C   UNL     1      -6.453  -1.228 127.321  0.00  0.00    +0.000 A 
ATOM     24  C   UNL     1      -5.280  -1.912 127.663  0.00  0.00    +0.000 A 
ATOM     25  C   UNL     1      -5.282  -2.905 128.651  0.00  0.00    +0.000 A 
ATOM     26  C   UNL     1      -6.424  -3.121 129.427  0.00  0.00    +0.000 A 
ATOM     27  C   UNL     1      -7.604  -2.430 129.085  0.00  0.00    +0.000 A 
ATOM     28  C   UNL     1      -7.637  -1.550 127.990  0.00  0.00    +0.000 A 
BRANCH  26  29
ATOM     29  C   UNL     1      -6.379  -3.770 130.794  0.00  0.00    +0.000 C 
ATOM     30  O   UNL     1      -6.791  -3.219 131.776  0.00  0.00    +0.000 OA
BRANCH  29  31
ATOM     31  O   UNL     1      -5.749  -4.973 130.874  0.00  0.00    +0.000 OA
ATOM     32  H   UNL     1      -5.103  -5.137 131.573  0.00  0.00    +0.000 HD
ENDBRANCH  29  31
ENDBRANCH  26  29
ENDBRANCH  22  23
ENDBRANCH   5  22
TORSDOF 12
ENDMDL
MODEL 3
REMARK VINA RESULT:      -7.4      2.920      3.847
REMARK  Name = Eprosartan
REMARK  13 active torsions:
REMARK  status: ('A' for Active; 'I' for Inactive)
REMARK    1  A    between atoms: C_1  and  C_2
REMARK    2  A    between atoms: C_2  and  C_3
REMARK    3  A    between atoms: C_3  and  C_4
REMARK    4  A    between atoms: C_4  and  C_5
REMARK    5  A    between atoms: C_8  and  C_9
REMARK    6  A    between atoms: C_10  and  C_11
REMARK    7  A    between atoms: C_10  and  C_17
REMARK    8  A    between atoms: C_11  and  C_12
REMARK    9  A    between atoms: C_17  and  O_18
REMARK   10  A    between atoms: N_20  and  C_21
REMARK   11  A    between atoms: C_21  and  C_22
REMARK   12  A    between atoms: C_25  and  C_28
REMARK   13  A    between atoms: C_28  and  O_29
REMARK                            x       y       z     vdW  Elec       q    Type
REMARK                         _______ _______ _______ _____ _____    ______ ____
ROOT
ATOM      1  C   UNL     1      -8.052  -1.095 125.008  0.00  0.00    +0.000 A 
ATOM      2  N   UNL     1      -9.176  -0.787 124.426  0.00  0.00    +0.000 NA
ATOM      3  C   UNL     1      -9.345   0.493 124.701  0.00  0.00    +0.000 A 
ATOM      4  C   UNL     1      -8.359   1.077 125.424  0.00  0.00    +0.000 A 
ATOM      5  N   UNL     1      -7.615  -0.036 125.819  0.00  0.00    +0.000 N 
ENDROOT
BRANCH   4   6
ATOM      6  C   UNL     1      -8.252   2.443 125.794  0.00  0.00    +0.000 C 
ATOM      7  C   UNL     1      -7.532   3.363 125.081  0.00  0.00    +0.000 C 
BRANCH   7   8
ATOM      8  C   UNL     1      -7.693   4.840 125.399  0.00  0.00    +0.000 C 
ATOM      9  O   UNL     1      -6.738   5.600 125.443  0.00  0.00    +0.000 OA
BRANCH   8  10
ATOM     10  O   UNL     1      -8.935   5.328 125.604  0.00  0.00    +0.000 OA
ATOM     11  H   UNL     1      -9.372   5.239 126.460  0.00  0.00    +0.000 HD
ENDBRANCH   8  10
ENDBRANCH   7   8
BRANCH   7  12
ATOM     12  C   UNL     1      -6.486   3.223 123.884  0.00  0.00    +0.000 C 
BRANCH  12  13
ATOM     13  C   UNL     1      -6.891   3.170 122.394  0.00  0.00    +0.000 A 
ATOM     14  C   UNL     1      -6.136   3.454 121.243  0.00  0.00    +0.000 A 
ATOM     15  C   UNL     1      -6.985   3.995 120.196  0.00  0.00    +0.000 A 
ATOM     16  C   UNL     1      -8.321   3.920 120.541  0.00  0.00    +0.000 A 
ATOM     17  S   UNL     1      -8.557   2.995 121.969  0.00  0.00    +0.000 S 
ENDBRANCH  12  13
ENDBRANCH   7  12
ENDBRANCH   4   6
BRANCH   1  18
ATOM     18  C   UNL     1      -7.810  -2.547 125.031  0.00  0.00    +0.000 C 
BRANCH  18  19
ATOM     19  C   UNL     1      -7.190  -2.784 123.660  0.00  0.00    +0.000 C 
BRANCH  19  21
ATOM     20  C   UNL     1      -4.883  -3.641 123.816  0.00  0.00    +0.000 C 
ATOM     21  C   UNL     1      -5.746  -2.409 123.624  0.00  0.00    +0.000 C 
ENDBRANCH  19  21
ENDBRANCH  18  19
ENDBRANCH   1  18
BRANCH   5  22
ATOM     22  C   UNL     1      -6.947  -0.078 127.119  0.00  0.00    +0.000 C 
BRANCH  22  23
ATOM     23  C   UNL     1      -5.913   0.983 127.372  0.00  0.00    +0.000 A 
ATOM     24  C   UNL     1      -4.892   1.181 126.434  0.00  0.00    +0.000 A 
ATOM     25  C   UNL     1      -4.011   2.264 126.539  0.00  0.00    +0.000 A 
ATOM     26  C   UNL     1      -4.232   3.259 127.495  0.00  0.00    +0.000 A 
ATOM     27  C   UNL     1      -5.261   3.062 128.437  0.00  0.00    +0.000 A 
ATOM     28  C   UNL     1      -6.044   1.895 128.423  0.00  0.00    +0.000 A 
BRANCH  26  29
ATOM     29  C   UNL     1      -3.677   4.662 127.366  0.00  0.00    +0.000 C 
ATOM     30  O   UNL     1      -2.498   4.885 127.382  0.00  0.00    +0.000 OA
BRANCH  29  31
ATOM     31  O   UNL     1      -4.585   5.673 127.336  0.00  0.00    +0.000 OA
ATOM     32  H   UNL     1      -5.476   5.536 127.686  0.00  0.00    +0.000 HD
ENDBRANCH  29  31
ENDBRANCH  26  29
ENDBRANCH  22  23
ENDBRANCH   5  22
TORSDOF 12
ENDMDL
MODEL 4
REMARK VINA RESULT:      -7.3      2.965      3.997
REMARK  Name = Eprosartan
REMARK  13 active torsions:
REMARK  status: ('A' for Active; 'I' for Inactive)
REMARK    1  A    between atoms: C_1  and  C_2
REMARK    2  A    between atoms: C_2  and  C_3
REMARK    3  A    between atoms: C_3  and  C_4
REMARK    4  A    between atoms: C_4  and  C_5
REMARK    5  A    between atoms: C_8  and  C_9
REMARK    6  A    between atoms: C_10  and  C_11
REMARK    7  A    between atoms: C_10  and  C_17
REMARK    8  A    between atoms: C_11  and  C_12
REMARK    9  A    between atoms: C_17  and  O_18
REMARK   10  A    between atoms: N_20  and  C_21
REMARK   11  A    between atoms: C_21  and  C_22
REMARK   12  A    between atoms: C_25  and  C_28
REMARK   13  A    between atoms: C_28  and  O_29
REMARK                            x       y       z     vdW  Elec       q    Type
REMARK                         _______ _______ _______ _____ _____    ______ ____
ROOT
ATOM      1  C   UNL     1      -6.932  -0.918 123.744  0.00  0.00    +0.000 A 
ATOM      2  N   UNL     1      -7.008   0.243 123.159  0.00  0.00    +0.000 NA
ATOM      3  C   UNL     1      -7.602   1.018 124.049  0.00  0.00    +0.000 A 
ATOM      4  C   UNL     1      -7.905   0.432 125.233  0.00  0.00    +0.000 A 
ATOM      5  N   UNL     1      -7.665  -0.912 124.941  0.00  0.00    +0.000 N 
ENDROOT
BRANCH   4   6
ATOM      6  C   UNL     1      -8.473   1.044 126.380  0.00  0.00    +0.000 C 
ATOM      7  C   UNL     1      -7.732   1.508 127.433  0.00  0.00    +0.000 C 
BRANCH   7   8
ATOM      8  C   UNL     1      -8.398   2.382 128.483  0.00  0.00    +0.000 C 
ATOM      9  O   UNL     1      -8.773   1.933 129.554  0.00  0.00    +0.000 OA
BRANCH   8  10
ATOM     10  O   UNL     1      -8.544   3.700 128.232  0.00  0.00    +0.000 OA
ATOM     11  H   UNL     1      -8.274   4.081 127.387  0.00  0.00    +0.000 HD
ENDBRANCH   8  10
ENDBRANCH   7   8
BRANCH   7  12
ATOM     12  C   UNL     1      -6.196   1.335 127.831  0.00  0.00    +0.000 C 
BRANCH  12  13
ATOM     13  C   UNL     1      -5.092   2.347 127.450  0.00  0.00    +0.000 A 
ATOM     14  C   UNL     1      -4.206   2.347 126.359  0.00  0.00    +0.000 A 
ATOM     15  C   UNL     1      -2.942   2.960 126.729  0.00  0.00    +0.000 A 
ATOM     16  C   UNL     1      -3.008   3.535 127.984  0.00  0.00    +0.000 A 
ATOM     17  S   UNL     1      -4.616   3.557 128.588  0.00  0.00    +0.000 S 
ENDBRANCH  12  13
ENDBRANCH   7  12
ENDBRANCH   4   6
BRANCH   1  18
ATOM     18  C   UNL     1      -6.526  -1.988 122.818  0.00  0.00    +0.000 C 
BRANCH  18  19
ATOM     19  C   UNL     1      -5.237  -2.486 123.460  0.00  0.00    +0.000 C 
BRANCH  19  21
ATOM     20  C   UNL     1      -4.236  -4.739 123.492  0.00  0.00    +0.000 C 
ATOM     21  C   UNL     1      -5.375  -3.873 123.993  0.00  0.00    +0.000 C 
ENDBRANCH  19  21
ENDBRANCH  18  19
ENDBRANCH   1  18
BRANCH   5  22
ATOM     22  C   UNL     1      -8.474  -1.973 125.539  0.00  0.00    +0.000 C 
BRANCH  22  23
ATOM     23  C   UNL     1      -7.932  -2.599 126.793  0.00  0.00    +0.000 A 
ATOM     24  C   UNL     1      -6.651  -2.246 127.235  0.00  0.00    +0.000 A 
ATOM     25  C   UNL     1      -6.172  -2.668 128.481  0.00  0.00    +0.000 A 
ATOM     26  C   UNL     1      -7.024  -3.320 129.377  0.00  0.00    +0.000 A 
ATOM     27  C   UNL     1      -8.314  -3.672 128.934  0.00  0.00    +0.000 A 
ATOM     28  C   UNL     1      -8.736  -3.384 127.625  0.00  0.00    +0.000 A 
BRANCH  26  29
ATOM     29  C   UNL     1      -6.775  -3.355 130.870  0.00  0.00    +0.000 C 
ATOM     30  O   UNL     1      -7.541  -2.872 131.656  0.00  0.00    +0.000 OA
BRANCH  29  31
ATOM     31  O   UNL     1      -5.583  -3.872 131.274  0.00  0.00    +0.000 OA
ATOM     32  H   UNL     1      -4.758  -3.424 131.045  0.00  0.00    +0.000 HD
ENDBRANCH  29  31
ENDBRANCH  26  29
ENDBRANCH  22  23
ENDBRANCH   5  22
TORSDOF 12
ENDMDL
MODEL 5
REMARK VINA RESULT:      -7.3      2.604      3.726
REMARK  Name = Eprosartan
REMARK  13 active torsions:
REMARK  status: ('A' for Active; 'I' for Inactive)
REMARK    1  A    between atoms: C_1  and  C_2
REMARK    2  A    between atoms: C_2  and  C_3
REMARK    3  A    between atoms: C_3  and  C_4
REMARK    4  A    between atoms: C_4  and  C_5
REMARK    5  A    between atoms: C_8  and  C_9
REMARK    6  A    between atoms: C_10  and  C_11
REMARK    7  A    between atoms: C_10  and  C_17
REMARK    8  A    between atoms: C_11  and  C_12
REMARK    9  A    between atoms: C_17  and  O_18
REMARK   10  A    between atoms: N_20  and  C_21
REMARK   11  A    between atoms: C_21  and  C_22
REMARK   12  A    between atoms: C_25  and  C_28
REMARK   13  A    between atoms: C_28  and  O_29
REMARK                            x       y       z     vdW  Elec       q    Type
REMARK                         _______ _______ _______ _____ _____    ______ ____
ROOT
ATOM      1  C   UNL     1      -7.062  -1.383 124.276  0.00  0.00    +0.000 A 
ATOM      2  N   UNL     1      -7.133  -0.743 123.144  0.00  0.00    +0.000 NA
ATOM      3  C   UNL     1      -7.564   0.460 123.477  0.00  0.00    +0.000 A 
ATOM      4  C   UNL     1      -7.758   0.672 124.801  0.00  0.00    +0.000 A 
ATOM      5  N   UNL     1      -7.642  -0.624 125.305  0.00  0.00    +0.000 N 
ENDROOT
BRANCH   4   6
ATOM      6  C   UNL     1      -8.143   1.882 125.435  0.00  0.00    +0.000 C 
ATOM      7  C   UNL     1      -7.328   2.977 125.528  0.00  0.00    +0.000 C 
BRANCH   7   8
ATOM      8  C   UNL     1      -7.915   4.304 125.982  0.00  0.00    +0.000 C 
ATOM      9  O   UNL     1      -8.219   4.513 127.145  0.00  0.00    +0.000 OA
BRANCH   8  10
ATOM     10  O   UNL     1      -8.069   5.289 125.072  0.00  0.00    +0.000 OA
ATOM     11  H   UNL     1      -8.615   5.163 124.286  0.00  0.00    +0.000 HD
ENDBRANCH   8  10
ENDBRANCH   7   8
BRANCH   7  12
ATOM     12  C   UNL     1      -5.776   3.196 125.231  0.00  0.00    +0.000 C 
BRANCH  12  13
ATOM     13  C   UNL     1      -4.719   3.450 126.329  0.00  0.00    +0.000 A 
ATOM     14  C   UNL     1      -3.371   3.831 126.213  0.00  0.00    +0.000 A 
ATOM     15  C   UNL     1      -2.587   3.266 127.297  0.00  0.00    +0.000 A 
ATOM     16  C   UNL     1      -3.393   2.659 128.241  0.00  0.00    +0.000 A 
ATOM     17  S   UNL     1      -5.056   2.986 127.959  0.00  0.00    +0.000 S 
ENDBRANCH  12  13
ENDBRANCH   7  12
ENDBRANCH   4   6
BRANCH   1  18
ATOM     18  C   UNL     1      -6.840  -2.827 124.093  0.00  0.00    +0.000 C 
BRANCH  18  19
ATOM     19  C   UNL     1      -5.394  -2.983 124.550  0.00  0.00    +0.000 C 
BRANCH  19  21
ATOM     20  C   UNL     1      -4.242  -4.896 123.507  0.00  0.00    +0.000 C 
ATOM     21  C   UNL     1      -4.496  -3.404 123.435  0.00  0.00    +0.000 C 
ENDBRANCH  19  21
ENDBRANCH  18  19
ENDBRANCH   1  18
BRANCH   5  22
ATOM     22  C   UNL     1      -8.439  -1.068 126.448  0.00  0.00    +0.000 C 
BRANCH  22  23
ATOM     23  C   UNL     1      -7.678  -1.642 127.609  0.00  0.00    +0.000 A 
ATOM     24  C   UNL     1      -8.226  -2.715 128.323  0.00  0.00    +0.000 A 
ATOM     25  C   UNL     1      -7.483  -3.391 129.298  0.00  0.00    +0.000 A 
ATOM     26  C   UNL     1      -6.124  -3.110 129.467  0.00  0.00    +0.000 A 
ATOM     27  C   UNL     1      -5.572  -2.033 128.746  0.00  0.00    +0.000 A 
ATOM     28  C   UNL     1      -6.363  -1.255 127.883  0.00  0.00    +0.000 A 
BRANCH  26  29
ATOM     29  C   UNL     1      -5.153  -4.088 130.094  0.00  0.00    +0.000 C 
ATOM     30  O   UNL     1      -5.520  -5.103 130.619  0.00  0.00    +0.000 OA
BRANCH  29  31
ATOM     31  O   UNL     1      -3.847  -3.709 130.128  0.00  0.00    +0.000 OA
ATOM     32  H   UNL     1      -3.218  -4.079 129.494  0.00  0.00    +0.000 HD
ENDBRANCH  29  31
ENDBRANCH  26  29
ENDBRANCH  22  23
ENDBRANCH   5  22
TORSDOF 12
ENDMDL
MODEL 6
REMARK VINA RESULT:      -7.1      1.685      2.253
REMARK  Name = Eprosartan
REMARK  13 active torsions:
REMARK  status: ('A' for Active; 'I' for Inactive)
REMARK    1  A    between atoms: C_1  and  C_2
REMARK    2  A    between atoms: C_2  and  C_3
REMARK    3  A    between atoms: C_3  and  C_4
REMARK    4  A    between atoms: C_4  and  C_5
REMARK    5  A    between atoms: C_8  and  C_9
REMARK    6  A    between atoms: C_10  and  C_11
REMARK    7  A    between atoms: C_10  and  C_17
REMARK    8  A    between atoms: C_11  and  C_12
REMARK    9  A    between atoms: C_17  and  O_18
REMARK   10  A    between atoms: N_20  and  C_21
REMARK   11  A    between atoms: C_21  and  C_22
REMARK   12  A    between atoms: C_25  and  C_28
REMARK   13  A    between atoms: C_28  and  O_29
REMARK                            x       y       z     vdW  Elec       q    Type
REMARK                         _______ _______ _______ _____ _____    ______ ____
ROOT
ATOM      1  C   UNL     1      -6.559  -1.124 124.910  0.00  0.00    +0.000 A 
ATOM      2  N   UNL     1      -7.712  -1.051 124.310  0.00  0.00    +0.000 NA
ATOM      3  C   UNL     1      -8.145   0.166 124.585  0.00  0.00    +0.000 A 
ATOM      4  C   UNL     1      -7.312   0.936 125.326  0.00  0.00    +0.000 A 
ATOM      5  N   UNL     1      -6.362  -0.003 125.732  0.00  0.00    +0.000 N 
ENDROOT
BRANCH   4   6
ATOM      6  C   UNL     1      -7.494   2.292 125.701  0.00  0.00    +0.000 C 
ATOM      7  C   UNL     1      -7.142   3.349 124.905  0.00  0.00    +0.000 C 
BRANCH   7   8
ATOM      8  C   UNL     1      -7.616   4.745 125.271  0.00  0.00    +0.000 C 
ATOM      9  O   UNL     1      -8.705   4.945 125.787  0.00  0.00    +0.000 OA
BRANCH   8  10
ATOM     10  O   UNL     1      -6.789   5.789 125.051  0.00  0.00    +0.000 OA
ATOM     11  H   UNL     1      -6.181   5.795 124.301  0.00  0.00    +0.000 HD
ENDBRANCH   8  10
ENDBRANCH   7   8
BRANCH   7  12
ATOM     12  C   UNL     1      -6.289   3.450 123.560  0.00  0.00    +0.000 C 
BRANCH  12  13
ATOM     13  C   UNL     1      -6.899   3.320 122.146  0.00  0.00    +0.000 A 
ATOM     14  C   UNL     1      -6.348   3.641 120.894  0.00  0.00    +0.000 A 
ATOM     15  C   UNL     1      -7.387   4.073 119.975  0.00  0.00    +0.000 A 
ATOM     16  C   UNL     1      -8.646   3.886 120.514  0.00  0.00    +0.000 A 
ATOM     17  S   UNL     1      -8.584   2.981 121.972  0.00  0.00    +0.000 S 
ENDBRANCH  12  13
ENDBRANCH   7  12
ENDBRANCH   4   6
BRANCH   1  18
ATOM     18  C   UNL     1      -6.024  -2.496 124.935  0.00  0.00    +0.000 C 
BRANCH  18  19
ATOM     19  C   UNL     1      -5.587  -2.688 123.488  0.00  0.00    +0.000 C 
BRANCH  19  21
ATOM     20  C   UNL     1      -4.435  -4.866 123.573  0.00  0.00    +0.000 C 
ATOM     21  C   UNL     1      -4.264  -3.371 123.387  0.00  0.00    +0.000 C 
ENDBRANCH  19  21
ENDBRANCH  18  19
ENDBRANCH   1  18
BRANCH   5  22
ATOM     22  C   UNL     1      -5.721   0.086 127.043  0.00  0.00    +0.000 C 
BRANCH  22  23
ATOM     23  C   UNL     1      -6.442  -0.575 128.184  0.00  0.00    +0.000 A 
ATOM     24  C   UNL     1      -6.001  -1.823 128.642  0.00  0.00    +0.000 A 
ATOM     25  C   UNL     1      -6.530  -2.396 129.804  0.00  0.00    +0.000 A 
ATOM     26  C   UNL     1      -7.396  -1.661 130.619  0.00  0.00    +0.000 A 
ATOM     27  C   UNL     1      -7.837  -0.405 130.161  0.00  0.00    +0.000 A 
ATOM     28  C   UNL     1      -7.424   0.099 128.915  0.00  0.00    +0.000 A 
BRANCH  26  29
ATOM     29  C   UNL     1      -7.605  -1.971 132.086  0.00  0.00    +0.000 C 
ATOM     30  O   UNL     1      -7.637  -3.096 132.502  0.00  0.00    +0.000 OA
BRANCH  29  31
ATOM     31  O   UNL     1      -7.862  -0.911 132.900  0.00  0.00    +0.000 OA
ATOM     32  H   UNL     1      -8.739  -0.504 132.902  0.00  0.00    +0.000 HD
ENDBRANCH  29  31
ENDBRANCH  26  29
ENDBRANCH  22  23
ENDBRANCH   5  22
TORSDOF 12
ENDMDL
MODEL 7
REMARK VINA RESULT:      -6.9      3.345      5.200
REMARK  Name = Eprosartan
REMARK  13 active torsions:
REMARK  status: ('A' for Active; 'I' for Inactive)
REMARK    1  A    between atoms: C_1  and  C_2
REMARK    2  A    between atoms: C_2  and  C_3
REMARK    3  A    between atoms: C_3  and  C_4
REMARK    4  A    between atoms: C_4  and  C_5
REMARK    5  A    between atoms: C_8  and  C_9
REMARK    6  A    between atoms: C_10  and  C_11
REMARK    7  A    between atoms: C_10  and  C_17
REMARK    8  A    between atoms: C_11  and  C_12
REMARK    9  A    between atoms: C_17  and  O_18
REMARK   10  A    between atoms: N_20  and  C_21
REMARK   11  A    between atoms: C_21  and  C_22
REMARK   12  A    between atoms: C_25  and  C_28
REMARK   13  A    between atoms: C_28  and  O_29
REMARK                            x       y       z     vdW  Elec       q    Type
REMARK                         _______ _______ _______ _____ _____    ______ ____
ROOT
ATOM      1  C   UNL     1      -7.126  -1.121 128.432  0.00  0.00    +0.000 A 
ATOM      2  N   UNL     1      -6.157  -0.324 128.782  0.00  0.00    +0.000 NA
ATOM      3  C   UNL     1      -6.429   0.811 128.164  0.00  0.00    +0.000 A 
ATOM      4  C   UNL     1      -7.568   0.825 127.431  0.00  0.00    +0.000 A 
ATOM      5  N   UNL     1      -7.908  -0.529 127.427  0.00  0.00    +0.000 N 
ENDROOT
BRANCH   4   6
ATOM      6  C   UNL     1      -8.132   1.924 126.731  0.00  0.00    +0.000 C 
ATOM      7  C   UNL     1      -7.461   2.630 125.769  0.00  0.00    +0.000 C 
BRANCH   7   8
ATOM      8  C   UNL     1      -8.228   3.607 124.894  0.00  0.00    +0.000 C 
ATOM      9  O   UNL     1      -8.531   3.343 123.741  0.00  0.00    +0.000 OA
BRANCH   8  10
ATOM     10  O   UNL     1      -8.615   4.787 125.425  0.00  0.00    +0.000 OA
ATOM     11  H   UNL     1      -9.493   4.898 125.809  0.00  0.00    +0.000 HD
ENDBRANCH   8  10
ENDBRANCH   7   8
BRANCH   7  12
ATOM     12  C   UNL     1      -5.932   2.648 125.313  0.00  0.00    +0.000 C 
BRANCH  12  13
ATOM     13  C   UNL     1      -4.786   3.220 126.177  0.00  0.00    +0.000 A 
ATOM     14  C   UNL     1      -3.475   2.750 126.362  0.00  0.00    +0.000 A 
ATOM     15  C   UNL     1      -3.004   3.066 127.700  0.00  0.00    +0.000 A 
ATOM     16  C   UNL     1      -3.892   3.889 128.366  0.00  0.00    +0.000 A 
ATOM     17  S   UNL     1      -5.124   4.471 127.321  0.00  0.00    +0.000 S 
ENDBRANCH  12  13
ENDBRANCH   7  12
ENDBRANCH   4   6
BRANCH   1  18
ATOM     18  C   UNL     1      -6.872  -2.519 128.816  0.00  0.00    +0.000 C 
BRANCH  18  19
ATOM     19  C   UNL     1      -5.380  -2.655 128.537  0.00  0.00    +0.000 C 
BRANCH  19  21
ATOM     20  C   UNL     1      -3.228  -3.659 129.197  0.00  0.00    +0.000 C 
ATOM     21  C   UNL     1      -4.697  -3.521 129.542  0.00  0.00    +0.000 C 
ENDBRANCH  19  21
ENDBRANCH  18  19
ENDBRANCH   1  18
BRANCH   5  22
ATOM     22  C   UNL     1      -8.551  -1.146 126.268  0.00  0.00    +0.000 C 
BRANCH  22  23
ATOM     23  C   UNL     1      -7.649  -1.885 125.320  0.00  0.00    +0.000 A 
ATOM     24  C   UNL     1      -6.469  -1.271 124.880  0.00  0.00    +0.000 A 
ATOM     25  C   UNL     1      -5.518  -1.979 124.137  0.00  0.00    +0.000 A 
ATOM     26  C   UNL     1      -5.653  -3.359 123.955  0.00  0.00    +0.000 A 
ATOM     27  C   UNL     1      -6.838  -3.977 124.400  0.00  0.00    +0.000 A 
ATOM     28  C   UNL     1      -7.862  -3.230 125.007  0.00  0.00    +0.000 A 
BRANCH  26  29
ATOM     29  C   UNL     1      -4.483  -4.265 123.633  0.00  0.00    +0.000 C 
ATOM     30  O   UNL     1      -3.399  -3.832 123.357  0.00  0.00    +0.000 OA
BRANCH  29  31
ATOM     31  O   UNL     1      -4.748  -5.597 123.568  0.00  0.00    +0.000 OA
ATOM     32  H   UNL     1      -4.249  -6.218 124.116  0.00  0.00    +0.000 HD
ENDBRANCH  29  31
ENDBRANCH  26  29
ENDBRANCH  22  23
ENDBRANCH   5  22
TORSDOF 12
ENDMDL
MODEL 8
REMARK VINA RESULT:      -6.7      6.643      9.841
REMARK  Name = Eprosartan
REMARK  13 active torsions:
REMARK  status: ('A' for Active; 'I' for Inactive)
REMARK    1  A    between atoms: C_1  and  C_2
REMARK    2  A    between atoms: C_2  and  C_3
REMARK    3  A    between atoms: C_3  and  C_4
REMARK    4  A    between atoms: C_4  and  C_5
REMARK    5  A    between atoms: C_8  and  C_9
REMARK    6  A    between atoms: C_10  and  C_11
REMARK    7  A    between atoms: C_10  and  C_17
REMARK    8  A    between atoms: C_11  and  C_12
REMARK    9  A    between atoms: C_17  and  O_18
REMARK   10  A    between atoms: N_20  and  C_21
REMARK   11  A    between atoms: C_21  and  C_22
REMARK   12  A    between atoms: C_25  and  C_28
REMARK   13  A    between atoms: C_28  and  O_29
REMARK                            x       y       z     vdW  Elec       q    Type
REMARK                         _______ _______ _______ _____ _____    ______ ____
ROOT
ATOM      1  C   UNL     1      -8.897   3.608 132.334  0.00  0.00    +0.000 A 
ATOM      2  N   UNL     1      -9.543   2.610 131.804  0.00  0.00    +0.000 NA
ATOM      3  C   UNL     1      -9.273   2.694 130.515  0.00  0.00    +0.000 A 
ATOM      4  C   UNL     1      -8.438   3.698 130.151  0.00  0.00    +0.000 A 
ATOM      5  N   UNL     1      -8.373   4.440 131.332  0.00  0.00    +0.000 N 
ENDROOT
BRANCH   4   6
ATOM      6  C   UNL     1      -7.929   3.972 128.855  0.00  0.00    +0.000 C 
ATOM      7  C   UNL     1      -6.592   4.062 128.574  0.00  0.00    +0.000 C 
BRANCH   7   8
ATOM      8  C   UNL     1      -6.139   4.090 127.123  0.00  0.00    +0.000 C 
ATOM      9  O   UNL     1      -5.790   3.080 126.535  0.00  0.00    +0.000 OA
BRANCH   8  10
ATOM     10  O   UNL     1      -6.160   5.267 126.461  0.00  0.00    +0.000 OA
ATOM     11  H   UNL     1      -6.678   6.014 126.785  0.00  0.00    +0.000 HD
ENDBRANCH   8  10
ENDBRANCH   7   8
BRANCH   7  12
ATOM     12  C   UNL     1      -5.296   4.135 129.501  0.00  0.00    +0.000 C 
BRANCH  12  13
ATOM     13  C   UNL     1      -4.301   5.317 129.493  0.00  0.00    +0.000 A 
ATOM     14  C   UNL     1      -3.001   5.398 128.965  0.00  0.00    +0.000 A 
ATOM     15  C   UNL     1      -2.185   6.302 129.755  0.00  0.00    +0.000 A 
ATOM     16  C   UNL     1      -2.941   6.972 130.698  0.00  0.00    +0.000 A 
ATOM     17  S   UNL     1      -4.623   6.709 130.466  0.00  0.00    +0.000 S 
ENDBRANCH  12  13
ENDBRANCH   7  12
ENDBRANCH   4   6
BRANCH   1  18
ATOM     18  C   UNL     1      -9.272   3.840 133.739  0.00  0.00    +0.000 C 
BRANCH  18  19
ATOM     19  C   UNL     1      -7.910   3.953 134.413  0.00  0.00    +0.000 C 
BRANCH  19  21
ATOM     20  C   UNL     1      -6.233   5.706 134.850  0.00  0.00    +0.000 C 
ATOM     21  C   UNL     1      -7.687   5.306 135.003  0.00  0.00    +0.000 C 
ENDBRANCH  19  21
ENDBRANCH  18  19
ENDBRANCH   1  18
BRANCH   5  22
ATOM     22  C   UNL     1      -8.251   5.897 131.305  0.00  0.00    +0.000 C 
BRANCH  22  23
ATOM     23  C   UNL     1      -9.466   6.661 130.859  0.00  0.00    +0.000 A 
ATOM     24  C   UNL     1      -9.402   7.421 129.684  0.00  0.00    +0.000 A 
ATOM     25  C   UNL     1     -10.550   8.008 129.138  0.00  0.00    +0.000 A 
ATOM     26  C   UNL     1     -11.809   7.714 129.668  0.00  0.00    +0.000 A 
ATOM     27  C   UNL     1     -11.874   6.947 130.848  0.00  0.00    +0.000 A 
ATOM     28  C   UNL     1     -10.705   6.490 131.481  0.00  0.00    +0.000 A 
BRANCH  26  29
ATOM     29  C   UNL     1     -13.091   7.870 128.878  0.00  0.00    +0.000 C 
ATOM     30  O   UNL     1     -13.726   6.926 128.501  0.00  0.00    +0.000 OA
BRANCH  29  31
ATOM     31  O   UNL     1     -13.435   9.138 128.523  0.00  0.00    +0.000 OA
ATOM     32  H   UNL     1     -14.292   9.311 128.112  0.00  0.00    +0.000 HD
ENDBRANCH  29  31
ENDBRANCH  26  29
ENDBRANCH  22  23
ENDBRANCH   5  22
TORSDOF 12
ENDMDL
MODEL 9
REMARK VINA RESULT:      -6.6      5.512      8.668
REMARK  Name = Eprosartan
REMARK  13 active torsions:
REMARK  status: ('A' for Active; 'I' for Inactive)
REMARK    1  A    between atoms: C_1  and  C_2
REMARK    2  A    between atoms: C_2  and  C_3
REMARK    3  A    between atoms: C_3  and  C_4
REMARK    4  A    between atoms: C_4  and  C_5
REMARK    5  A    between atoms: C_8  and  C_9
REMARK    6  A    between atoms: C_10  and  C_11
REMARK    7  A    between atoms: C_10  and  C_17
REMARK    8  A    between atoms: C_11  and  C_12
REMARK    9  A    between atoms: C_17  and  O_18
REMARK   10  A    between atoms: N_20  and  C_21
REMARK   11  A    between atoms: C_21  and  C_22
REMARK   12  A    between atoms: C_25  and  C_28
REMARK   13  A    between atoms: C_28  and  O_29
REMARK                            x       y       z     vdW  Elec       q    Type
REMARK                         _______ _______ _______ _____ _____    ______ ____
ROOT
ATOM      1  C   UNL     1      -7.727   2.724 131.181  0.00  0.00    +0.000 A 
ATOM      2  N   UNL     1      -8.294   1.757 130.519  0.00  0.00    +0.000 NA
ATOM      3  C   UNL     1      -8.478   2.254 129.309  0.00  0.00    +0.000 A 
ATOM      4  C   UNL     1      -8.026   3.517 129.115  0.00  0.00    +0.000 A 
ATOM      5  N   UNL     1      -7.735   3.907 130.424  0.00  0.00    +0.000 N 
ENDROOT
BRANCH   4   6
ATOM      6  C   UNL     1      -8.029   4.259 127.906  0.00  0.00    +0.000 C 
ATOM      7  C   UNL     1      -7.201   3.986 126.851  0.00  0.00    +0.000 C 
BRANCH   7   8
ATOM      8  C   UNL     1      -7.458   4.656 125.512  0.00  0.00    +0.000 C 
ATOM      9  O   UNL     1      -8.355   4.292 124.768  0.00  0.00    +0.000 OA
BRANCH   8  10
ATOM     10  O   UNL     1      -6.691   5.708 125.155  0.00  0.00    +0.000 OA
ATOM     11  H   UNL     1      -5.728   5.641 125.136  0.00  0.00    +0.000 HD
ENDBRANCH   8  10
ENDBRANCH   7   8
BRANCH   7  12
ATOM     12  C   UNL     1      -5.931   3.033 126.695  0.00  0.00    +0.000 C 
BRANCH  12  13
ATOM     13  C   UNL     1      -4.588   3.266 127.424  0.00  0.00    +0.000 A 
ATOM     14  C   UNL     1      -4.330   3.492 128.787  0.00  0.00    +0.000 A 
ATOM     15  C   UNL     1      -3.170   4.352 128.950  0.00  0.00    +0.000 A 
ATOM     16  C   UNL     1      -2.531   4.571 127.745  0.00  0.00    +0.000 A 
ATOM     17  S   UNL     1      -3.158   3.566 126.501  0.00  0.00    +0.000 S 
ENDBRANCH  12  13
ENDBRANCH   7  12
ENDBRANCH   4   6
BRANCH   1  18
ATOM     18  C   UNL     1      -7.667   2.456 132.627  0.00  0.00    +0.000 C 
BRANCH  18  19
ATOM     19  C   UNL     1      -9.125   2.627 133.038  0.00  0.00    +0.000 C 
BRANCH  19  21
ATOM     20  C   UNL     1      -7.983   4.262 134.489  0.00  0.00    +0.000 C 
ATOM     21  C   UNL     1      -9.319   3.799 133.942  0.00  0.00    +0.000 C 
ENDBRANCH  19  21
ENDBRANCH  18  19
ENDBRANCH   1  18
BRANCH   5  22
ATOM     22  C   UNL     1      -7.924   5.288 130.863  0.00  0.00    +0.000 C 
BRANCH  22  23
ATOM     23  C   UNL     1      -9.248   5.918 130.533  0.00  0.00    +0.000 A 
ATOM     24  C   UNL     1      -9.274   7.191 129.951  0.00  0.00    +0.000 A 
ATOM     25  C   UNL     1     -10.467   7.744 129.470  0.00  0.00    +0.000 A 
ATOM     26  C   UNL     1     -11.630   6.970 129.418  0.00  0.00    +0.000 A 
ATOM     27  C   UNL     1     -11.603   5.687 130.001  0.00  0.00    +0.000 A 
ATOM     28  C   UNL     1     -10.443   5.197 130.623  0.00  0.00    +0.000 A 
BRANCH  26  29
ATOM     29  C   UNL     1     -12.783   7.279 128.487  0.00  0.00    +0.000 C 
ATOM     30  O   UNL     1     -13.079   6.557 127.576  0.00  0.00    +0.000 OA
BRANCH  29  31
ATOM     31  O   UNL     1     -13.406   8.475 128.670  0.00  0.00    +0.000 OA
ATOM     32  H   UNL     1     -13.261   8.978 129.482  0.00  0.00    +0.000 HD
ENDBRANCH  29  31
ENDBRANCH  26  29
ENDBRANCH  22  23
ENDBRANCH   5  22
TORSDOF 12
ENDMDL
