MODEL 1
REMARK VINA RESULT:      -8.4      0.000      0.000
REMARK  Name = Eravacycline
REMARK  11 active torsions:
REMARK  status: ('A' for Active; 'I' for Inactive)
REMARK    1  A    between atoms: C_8  and  N_9
REMARK    2  A    between atoms: C_10  and  C_12
REMARK    3  A    between atoms: C_12  and  N_13
REMARK    4  A    between atoms: C_18  and  O_19
REMARK    5  A    between atoms: C_24  and  O_25
REMARK    6  A    between atoms: C_26  and  O_27
REMARK    7  A    between atoms: C_30  and  C_31
REMARK    8  A    between atoms: C_34  and  O_35
REMARK    9  A    between atoms: C_36  and  N_37
REMARK   10  A    between atoms: N_37  and  C_38
REMARK   11  A    between atoms: N_37  and  C_39
REMARK                            x       y       z     vdW  Elec       q    Type
REMARK                         _______ _______ _______ _____ _____    ______ ____
ROOT
ATOM      1  C   UNL     1      -7.401  -2.536 129.451  0.00  0.00    +0.000 C 
ATOM      2  C   UNL     1      -8.017  -3.240 128.247  0.00  0.00    +0.000 C 
ATOM      3  C   UNL     1      -8.191  -2.341 127.080  0.00  0.00    +0.000 A 
ATOM      4  C   UNL     1      -9.183  -2.576 126.134  0.00  0.00    +0.000 A 
ATOM      5  F   UNL     1     -10.062  -3.568 126.345  0.00  0.00    +0.000 F 
ATOM      6  C   UNL     1      -9.276  -1.816 124.962  0.00  0.00    +0.000 A 
ATOM      7  C   UNL     1      -8.351  -0.784 124.713  0.00  0.00    +0.000 A 
ATOM      8  C   UNL     1      -7.367  -0.561 125.697  0.00  0.00    +0.000 A 
ATOM      9  C   UNL     1      -7.275  -1.327 126.855  0.00  0.00    +0.000 A 
ATOM     10  C   UNL     1      -6.153  -1.050 127.804  0.00  0.00    +0.000 C 
ATOM     11  O   UNL     1      -5.179  -0.346 127.543  0.00  0.00    +0.000 OA
ATOM     12  C   UNL     1      -6.195  -1.707 129.120  0.00  0.00    +0.000 C 
ATOM     13  C   UNL     1      -5.135  -1.540 129.942  0.00  0.00    +0.000 C 
ATOM     14  C   UNL     1      -5.063  -2.154 131.313  0.00  0.00    +0.000 C 
ATOM     15  C   UNL     1      -3.813  -2.983 131.537  0.00  0.00    +0.000 C 
ATOM     16  O   UNL     1      -3.163  -3.448 130.592  0.00  0.00    +0.000 OA
ATOM     17  C   UNL     1      -3.573  -3.527 132.919  0.00  0.00    +0.000 C 
ATOM     18  C   UNL     1      -4.378  -4.590 132.876  0.00  0.00    +0.000 C 
ATOM     19  C   UNL     1      -6.034  -4.184 132.747  0.00  0.00    +0.000 C 
ATOM     20  C   UNL     1      -6.236  -3.112 131.593  0.00  0.00    +0.000 C 
ATOM     21  C   UNL     1      -7.012  -3.662 130.416  0.00  0.00    +0.000 C 
ENDROOT
BRANCH  17  22
ATOM     22  C   UNL     1      -4.031  -3.065 134.276  0.00  0.00    +0.000 C 
ATOM     23  N   UNL     1      -4.272  -1.702 134.444  0.00  0.00    +0.000 N 
ATOM     24  O   UNL     1      -4.074  -3.800 135.268  0.00  0.00    +0.000 OA
ATOM     25  H   UNL     1      -4.002  -1.040 133.717  0.00  0.00    +0.000 HD
ATOM     26  H   UNL     1      -4.030  -1.340 135.359  0.00  0.00    +0.000 HD
ENDBRANCH  17  22
BRANCH   7  27
ATOM     27  N   UNL     1      -8.480  -0.039 123.492  0.00  0.00    +0.000 N 
ATOM     28  C   UNL     1      -9.276   1.077 123.317  0.00  0.00    +0.000 C 
ATOM     29  O   UNL     1      -9.969   1.580 124.200  0.00  0.00    +0.000 OA
ATOM     30  H   UNL     1      -7.930  -0.360 122.703  0.00  0.00    +0.000 HD
BRANCH  28  31
ATOM     31  C   UNL     1      -9.326   1.767 121.973  0.00  0.00    +0.000 C 
BRANCH  31  32
ATOM     32  N   UNL     1      -8.813   3.136 122.227  0.00  0.00    +0.000 NA
ATOM     33  C   UNL     1      -8.578   3.905 121.014  0.00  0.00    +0.000 C 
ATOM     34  C   UNL     1      -7.173   3.463 120.687  0.00  0.00    +0.000 C 
ATOM     35  C   UNL     1      -6.498   3.501 122.053  0.00  0.00    +0.000 C 
ATOM     36  C   UNL     1      -7.608   3.185 123.044  0.00  0.00    +0.000 C 
ENDBRANCH  31  32
ENDBRANCH  28  31
ENDBRANCH   7  27
BRANCH  19  37
ATOM     37  N   UNL     1      -7.047  -3.668 133.757  0.00  0.00    +0.000 NA
ATOM     38  C   UNL     1      -7.701  -4.458 134.853  0.00  0.00    +0.000 C 
ATOM     39  C   UNL     1      -7.916  -2.574 133.419  0.00  0.00    +0.000 C 
ENDBRANCH  19  37
BRANCH   8  40
ATOM     40  O   UNL     1      -6.429   0.413 125.703  0.00  0.00    +0.000 OA
ATOM     41  H   UNL     1      -5.760   0.316 125.015  0.00  0.00    +0.000 HD
ENDBRANCH   8  40
BRANCH  13  42
ATOM     42  O   UNL     1      -4.045  -0.725 129.647  0.00  0.00    +0.000 OA
ATOM     43  H   UNL     1      -3.423  -0.762 130.417  0.00  0.00    +0.000 HD
ENDBRANCH  13  42
BRANCH  14  44
ATOM     44  O   UNL     1      -5.059  -1.023 132.177  0.00  0.00    +0.000 OA
ATOM     45  H   UNL     1      -5.607  -0.344 131.732  0.00  0.00    +0.000 HD
ENDBRANCH  14  44
BRANCH  18  46
ATOM     46  O   UNL     1      -3.797  -5.756 133.498  0.00  0.00    +0.000 OA
ATOM     47  H   UNL     1      -3.103  -5.438 134.154  0.00  0.00    +0.000 HD
ENDBRANCH  18  46
TORSDOF 9
ENDMDL
MODEL 2
REMARK VINA RESULT:      -8.1      6.180     10.297
REMARK  Name = Eravacycline
REMARK  11 active torsions:
REMARK  status: ('A' for Active; 'I' for Inactive)
REMARK    1  A    between atoms: C_8  and  N_9
REMARK    2  A    between atoms: C_10  and  C_12
REMARK    3  A    between atoms: C_12  and  N_13
REMARK    4  A    between atoms: C_18  and  O_19
REMARK    5  A    between atoms: C_24  and  O_25
REMARK    6  A    between atoms: C_26  and  O_27
REMARK    7  A    between atoms: C_30  and  C_31
REMARK    8  A    between atoms: C_34  and  O_35
REMARK    9  A    between atoms: C_36  and  N_37
REMARK   10  A    between atoms: N_37  and  C_38
REMARK   11  A    between atoms: N_37  and  C_39
REMARK                            x       y       z     vdW  Elec       q    Type
REMARK                         _______ _______ _______ _____ _____    ______ ____
ROOT
ATOM      1  C   UNL     1      -7.296   2.151 128.798  0.00  0.00    +0.000 C 
ATOM      2  C   UNL     1      -7.823   2.679 130.128  0.00  0.00    +0.000 C 
ATOM      3  C   UNL     1      -6.830   3.506 130.855  0.00  0.00    +0.000 A 
ATOM      4  C   UNL     1      -6.861   3.613 132.242  0.00  0.00    +0.000 A 
ATOM      5  F   UNL     1      -7.736   2.865 132.933  0.00  0.00    +0.000 F 
ATOM      6  C   UNL     1      -6.016   4.491 132.930  0.00  0.00    +0.000 A 
ATOM      7  C   UNL     1      -5.105   5.297 132.222  0.00  0.00    +0.000 A 
ATOM      8  C   UNL     1      -5.086   5.156 130.820  0.00  0.00    +0.000 A 
ATOM      9  C   UNL     1      -5.937   4.289 130.141  0.00  0.00    +0.000 A 
ATOM     10  C   UNL     1      -5.883   4.263 128.647  0.00  0.00    +0.000 C 
ATOM     11  O   UNL     1      -5.302   5.099 127.958  0.00  0.00    +0.000 OA
ATOM     12  C   UNL     1      -6.617   3.191 127.956  0.00  0.00    +0.000 C 
ATOM     13  C   UNL     1      -6.654   3.222 126.606  0.00  0.00    +0.000 C 
ATOM     14  C   UNL     1      -7.366   2.182 125.786  0.00  0.00    +0.000 C 
ATOM     15  C   UNL     1      -8.371   2.765 124.812  0.00  0.00    +0.000 C 
ATOM     16  O   UNL     1      -8.854   3.894 124.974  0.00  0.00    +0.000 OA
ATOM     17  C   UNL     1      -9.038   1.823 123.847  0.00  0.00    +0.000 C 
ATOM     18  C   UNL     1      -9.976   1.318 124.650  0.00  0.00    +0.000 C 
ATOM     19  C   UNL     1      -9.340   0.392 125.939  0.00  0.00    +0.000 C 
ATOM     20  C   UNL     1      -8.172   1.197 126.654  0.00  0.00    +0.000 C 
ATOM     21  C   UNL     1      -8.529   1.609 128.066  0.00  0.00    +0.000 C 
ENDROOT
BRANCH  17  22
ATOM     22  C   UNL     1      -8.614   0.494 123.282  0.00  0.00    +0.000 C 
ATOM     23  N   UNL     1      -7.247   0.230 123.218  0.00  0.00    +0.000 N 
ATOM     24  O   UNL     1      -9.396  -0.304 122.756  0.00  0.00    +0.000 OA
ATOM     25  H   UNL     1      -6.571   0.970 123.408  0.00  0.00    +0.000 HD
ATOM     26  H   UNL     1      -6.958  -0.312 122.411  0.00  0.00    +0.000 HD
ENDBRANCH  17  22
BRANCH   7  27
ATOM     27  N   UNL     1      -4.266   6.190 132.972  0.00  0.00    +0.000 N 
ATOM     28  C   UNL     1      -2.962   5.932 133.350  0.00  0.00    +0.000 C 
ATOM     29  O   UNL     1      -2.352   4.900 133.078  0.00  0.00    +0.000 OA
ATOM     30  H   UNL     1      -4.669   7.083 133.231  0.00  0.00    +0.000 HD
BRANCH  28  31
ATOM     31  C   UNL     1      -2.189   6.958 134.147  0.00  0.00    +0.000 C 
BRANCH  31  32
ATOM     32  N   UNL     1      -1.497   7.789 133.130  0.00  0.00    +0.000 NA
ATOM     33  C   UNL     1      -0.047   7.663 133.161  0.00  0.00    +0.000 C 
ATOM     34  C   UNL     1       0.289   8.699 134.204  0.00  0.00    +0.000 C 
ATOM     35  C   UNL     1      -0.616   9.861 133.806  0.00  0.00    +0.000 C 
ATOM     36  C   UNL     1      -1.837   9.205 133.179  0.00  0.00    +0.000 C 
ENDBRANCH  31  32
ENDBRANCH  28  31
ENDBRANCH   7  27
BRANCH  19  37
ATOM     37  N   UNL     1      -8.762  -1.014 126.008  0.00  0.00    +0.000 NA
ATOM     38  C   UNL     1      -9.505  -2.298 125.787  0.00  0.00    +0.000 C 
ATOM     39  C   UNL     1      -7.632  -1.292 126.851  0.00  0.00    +0.000 C 
ENDBRANCH  19  37
BRANCH   8  40
ATOM     40  O   UNL     1      -4.253   5.771 129.951  0.00  0.00    +0.000 OA
ATOM     41  H   UNL     1      -3.641   5.172 129.507  0.00  0.00    +0.000 HD
ENDBRANCH   8  40
BRANCH  13  42
ATOM     42  O   UNL     1      -5.977   4.162 125.831  0.00  0.00    +0.000 OA
ATOM     43  H   UNL     1      -6.301   5.060 126.093  0.00  0.00    +0.000 HD
ENDBRANCH  13  42
BRANCH  14  44
ATOM     44  O   UNL     1      -6.309   1.547 125.074  0.00  0.00    +0.000 OA
ATOM     45  H   UNL     1      -6.730   0.840 124.544  0.00  0.00    +0.000 HD
ENDBRANCH  14  44
BRANCH  18  46
ATOM     46  O   UNL     1     -11.250   1.161 123.991  0.00  0.00    +0.000 OA
ATOM     47  H   UNL     1     -11.876   1.853 124.368  0.00  0.00    +0.000 HD
ENDBRANCH  18  46
TORSDOF 9
ENDMDL
MODEL 3
REMARK VINA RESULT:      -8.1      2.250     10.183
REMARK  Name = Eravacycline
REMARK  11 active torsions:
REMARK  status: ('A' for Active; 'I' for Inactive)
REMARK    1  A    between atoms: C_8  and  N_9
REMARK    2  A    between atoms: C_10  and  C_12
REMARK    3  A    between atoms: C_12  and  N_13
REMARK    4  A    between atoms: C_18  and  O_19
REMARK    5  A    between atoms: C_24  and  O_25
REMARK    6  A    between atoms: C_26  and  O_27
REMARK    7  A    between atoms: C_30  and  C_31
REMARK    8  A    between atoms: C_34  and  O_35
REMARK    9  A    between atoms: C_36  and  N_37
REMARK   10  A    between atoms: N_37  and  C_38
REMARK   11  A    between atoms: N_37  and  C_39
REMARK                            x       y       z     vdW  Elec       q    Type
REMARK                         _______ _______ _______ _____ _____    ______ ____
ROOT
ATOM      1  C   UNL     1      -6.632  -1.803 127.371  0.00  0.00    +0.000 C 
ATOM      2  C   UNL     1      -7.011  -2.828 128.435  0.00  0.00    +0.000 C 
ATOM      3  C   UNL     1      -5.972  -2.985 129.481  0.00  0.00    +0.000 A 
ATOM      4  C   UNL     1      -5.832  -4.178 130.182  0.00  0.00    +0.000 A 
ATOM      5  F   UNL     1      -6.581  -5.234 129.825  0.00  0.00    +0.000 F 
ATOM      6  C   UNL     1      -4.947  -4.299 131.259  0.00  0.00    +0.000 A 
ATOM      7  C   UNL     1      -4.168  -3.197 131.662  0.00  0.00    +0.000 A 
ATOM      8  C   UNL     1      -4.320  -2.006 130.923  0.00  0.00    +0.000 A 
ATOM      9  C   UNL     1      -5.211  -1.891 129.860  0.00  0.00    +0.000 A 
ATOM     10  C   UNL     1      -5.343  -0.564 129.183  0.00  0.00    +0.000 C 
ATOM     11  O   UNL     1      -4.891   0.491 129.626  0.00  0.00    +0.000 OA
ATOM     12  C   UNL     1      -6.112  -0.510 127.930  0.00  0.00    +0.000 C 
ATOM     13  C   UNL     1      -6.319   0.701 127.369  0.00  0.00    +0.000 C 
ATOM     14  C   UNL     1      -7.082   0.885 126.086  0.00  0.00    +0.000 C 
ATOM     15  C   UNL     1      -8.227   1.873 126.202  0.00  0.00    +0.000 C 
ATOM     16  O   UNL     1      -8.734   2.156 127.295  0.00  0.00    +0.000 OA
ATOM     17  C   UNL     1      -8.968   2.236 124.944  0.00  0.00    +0.000 C 
ATOM     18  C   UNL     1      -9.775   1.177 124.854  0.00  0.00    +0.000 C 
ATOM     19  C   UNL     1      -8.941  -0.289 124.574  0.00  0.00    +0.000 C 
ATOM     20  C   UNL     1      -7.729  -0.423 125.592  0.00  0.00    +0.000 C 
ATOM     21  C   UNL     1      -7.923  -1.549 126.584  0.00  0.00    +0.000 C 
ENDROOT
BRANCH  17  22
ATOM     22  C   UNL     1      -8.560   2.219 123.495  0.00  0.00    +0.000 C 
ATOM     23  N   UNL     1      -7.283   2.680 123.181  0.00  0.00    +0.000 N 
ATOM     24  O   UNL     1      -9.335   1.948 122.572  0.00  0.00    +0.000 OA
ATOM     25  H   UNL     1      -6.716   3.145 123.890  0.00  0.00    +0.000 HD
ATOM     26  H   UNL     1      -7.216   3.172 122.297  0.00  0.00    +0.000 HD
ENDBRANCH  17  22
BRANCH   7  27
ATOM     27  N   UNL     1      -3.281  -3.366 132.779  0.00  0.00    +0.000 N 
ATOM     28  C   UNL     1      -3.522  -2.924 134.065  0.00  0.00    +0.000 C 
ATOM     29  O   UNL     1      -4.542  -2.335 134.417  0.00  0.00    +0.000 OA
ATOM     30  H   UNL     1      -2.415  -3.862 132.600  0.00  0.00    +0.000 HD
BRANCH  28  31
ATOM     31  C   UNL     1      -2.497  -3.163 135.151  0.00  0.00    +0.000 C 
BRANCH  31  32
ATOM     32  N   UNL     1      -1.184  -3.016 134.475  0.00  0.00    +0.000 NA
ATOM     33  C   UNL     1      -0.119  -3.792 135.094  0.00  0.00    +0.000 C 
ATOM     34  C   UNL     1       0.340  -2.819 136.151  0.00  0.00    +0.000 C 
ATOM     35  C   UNL     1       0.366  -1.501 135.385  0.00  0.00    +0.000 C 
ATOM     36  C   UNL     1      -0.729  -1.639 134.337  0.00  0.00    +0.000 C 
ENDBRANCH  31  32
ENDBRANCH  28  31
ENDBRANCH   7  27
BRANCH  19  37
ATOM     37  N   UNL     1      -8.298  -0.885 123.330  0.00  0.00    +0.000 NA
ATOM     38  C   UNL     1      -8.884  -1.938 122.437  0.00  0.00    +0.000 C 
ATOM     39  C   UNL     1      -6.867  -0.949 123.214  0.00  0.00    +0.000 C 
ENDBRANCH  19  37
BRANCH   8  40
ATOM     40  O   UNL     1      -3.630  -0.855 131.083  0.00  0.00    +0.000 OA
ATOM     41  H   UNL     1      -3.053  -0.850 131.856  0.00  0.00    +0.000 HD
ENDBRANCH   8  40
BRANCH  13  42
ATOM     42  O   UNL     1      -5.787   1.889 127.865  0.00  0.00    +0.000 OA
ATOM     43  H   UNL     1      -6.461   2.601 127.734  0.00  0.00    +0.000 HD
ENDBRANCH  13  42
BRANCH  14  44
ATOM     44  O   UNL     1      -6.096   1.383 125.188  0.00  0.00    +0.000 OA
ATOM     45  H   UNL     1      -5.296   0.842 125.343  0.00  0.00    +0.000 HD
ENDBRANCH  14  44
BRANCH  18  46
ATOM     46  O   UNL     1     -11.113   1.528 124.446  0.00  0.00    +0.000 OA
ATOM     47  H   UNL     1     -11.079   2.453 124.049  0.00  0.00    +0.000 HD
ENDBRANCH  18  46
TORSDOF 9
ENDMDL
MODEL 4
REMARK VINA RESULT:      -7.8      5.868      9.751
REMARK  Name = Eravacycline
REMARK  11 active torsions:
REMARK  status: ('A' for Active; 'I' for Inactive)
REMARK    1  A    between atoms: C_8  and  N_9
REMARK    2  A    between atoms: C_10  and  C_12
REMARK    3  A    between atoms: C_12  and  N_13
REMARK    4  A    between atoms: C_18  and  O_19
REMARK    5  A    between atoms: C_24  and  O_25
REMARK    6  A    between atoms: C_26  and  O_27
REMARK    7  A    between atoms: C_30  and  C_31
REMARK    8  A    between atoms: C_34  and  O_35
REMARK    9  A    between atoms: C_36  and  N_37
REMARK   10  A    between atoms: N_37  and  C_38
REMARK   11  A    between atoms: N_37  and  C_39
REMARK                            x       y       z     vdW  Elec       q    Type
REMARK                         _______ _______ _______ _____ _____    ______ ____
ROOT
ATOM      1  C   UNL     1      -6.289   2.314 126.473  0.00  0.00    +0.000 C 
ATOM      2  C   UNL     1      -5.284   3.440 126.256  0.00  0.00    +0.000 C 
ATOM      3  C   UNL     1      -4.712   3.954 127.525  0.00  0.00    +0.000 A 
ATOM      4  C   UNL     1      -4.249   5.262 127.627  0.00  0.00    +0.000 A 
ATOM      5  F   UNL     1      -4.427   6.098 126.592  0.00  0.00    +0.000 F 
ATOM      6  C   UNL     1      -3.588   5.720 128.772  0.00  0.00    +0.000 A 
ATOM      7  C   UNL     1      -3.372   4.853 129.860  0.00  0.00    +0.000 A 
ATOM      8  C   UNL     1      -3.866   3.539 129.733  0.00  0.00    +0.000 A 
ATOM      9  C   UNL     1      -4.513   3.087 128.587  0.00  0.00    +0.000 A 
ATOM     10  C   UNL     1      -4.940   1.655 128.528  0.00  0.00    +0.000 C 
ATOM     11  O   UNL     1      -4.575   0.788 129.320  0.00  0.00    +0.000 OA
ATOM     12  C   UNL     1      -5.815   1.249 127.417  0.00  0.00    +0.000 C 
ATOM     13  C   UNL     1      -6.121  -0.063 127.304  0.00  0.00    +0.000 C 
ATOM     14  C   UNL     1      -7.010  -0.600 126.216  0.00  0.00    +0.000 C 
ATOM     15  C   UNL     1      -6.376  -1.724 125.419  0.00  0.00    +0.000 C 
ATOM     16  O   UNL     1      -5.148  -1.881 125.380  0.00  0.00    +0.000 OA
ATOM     17  C   UNL     1      -7.229  -2.427 124.399  0.00  0.00    +0.000 C 
ATOM     18  C   UNL     1      -7.139  -1.549 123.399  0.00  0.00    +0.000 C 
ATOM     19  C   UNL     1      -7.867  -0.042 123.752  0.00  0.00    +0.000 C 
ATOM     20  C   UNL     1      -7.380   0.472 125.174  0.00  0.00    +0.000 C 
ATOM     21  C   UNL     1      -6.521   1.713 125.082  0.00  0.00    +0.000 C 
ENDROOT
BRANCH  17  22
ATOM     22  C   UNL     1      -8.719  -2.608 124.287  0.00  0.00    +0.000 C 
ATOM     23  N   UNL     1      -9.423  -2.888 125.457  0.00  0.00    +0.000 N 
ATOM     24  O   UNL     1      -9.321  -2.655 123.209  0.00  0.00    +0.000 OA
ATOM     25  H   UNL     1      -8.921  -3.106 126.318  0.00  0.00    +0.000 HD
ATOM     26  H   UNL     1     -10.209  -3.517 125.338  0.00  0.00    +0.000 HD
ENDBRANCH  17  22
BRANCH   7  27
ATOM     27  N   UNL     1      -2.681   5.367 131.009  0.00  0.00    +0.000 N 
ATOM     28  C   UNL     1      -3.275   6.003 132.082  0.00  0.00    +0.000 C 
ATOM     29  O   UNL     1      -4.484   6.199 132.189  0.00  0.00    +0.000 OA
ATOM     30  H   UNL     1      -1.676   5.237 131.030  0.00  0.00    +0.000 HD
BRANCH  28  31
ATOM     31  C   UNL     1      -2.427   6.503 133.228  0.00  0.00    +0.000 C 
BRANCH  31  32
ATOM     32  N   UNL     1      -1.556   7.547 132.633  0.00  0.00    +0.000 NA
ATOM     33  C   UNL     1      -0.145   7.377 132.944  0.00  0.00    +0.000 C 
ATOM     34  C   UNL     1      -0.074   8.103 134.264  0.00  0.00    +0.000 C 
ATOM     35  C   UNL     1      -0.904   9.352 133.990  0.00  0.00    +0.000 C 
ATOM     36  C   UNL     1      -1.940   8.913 132.966  0.00  0.00    +0.000 C 
ENDBRANCH  31  32
ENDBRANCH  28  31
ENDBRANCH   7  27
BRANCH  19  37
ATOM     37  N   UNL     1      -9.318   0.413 123.797  0.00  0.00    +0.000 NA
ATOM     38  C   UNL     1     -10.190   0.745 122.622  0.00  0.00    +0.000 C 
ATOM     39  C   UNL     1      -9.817   1.131 124.938  0.00  0.00    +0.000 C 
ENDBRANCH  19  37
BRANCH   8  40
ATOM     40  O   UNL     1      -3.837   2.565 130.670  0.00  0.00    +0.000 OA
ATOM     41  H   UNL     1      -3.093   2.631 131.280  0.00  0.00    +0.000 HD
ENDBRANCH   8  40
BRANCH  13  42
ATOM     42  O   UNL     1      -5.720  -1.036 128.216  0.00  0.00    +0.000 OA
ATOM     43  H   UNL     1      -4.948  -1.516 127.826  0.00  0.00    +0.000 HD
ENDBRANCH  13  42
BRANCH  14  44
ATOM     44  O   UNL     1      -8.141  -1.087 126.930  0.00  0.00    +0.000 OA
ATOM     45  H   UNL     1      -8.257  -0.483 127.692  0.00  0.00    +0.000 HD
ENDBRANCH  14  44
BRANCH  18  46
ATOM     46  O   UNL     1      -6.992  -2.182 122.111  0.00  0.00    +0.000 OA
ATOM     47  H   UNL     1      -6.205  -1.755 121.649  0.00  0.00    +0.000 HD
ENDBRANCH  18  46
TORSDOF 9
ENDMDL
MODEL 5
REMARK VINA RESULT:      -7.7      2.612      3.242
REMARK  Name = Eravacycline
REMARK  11 active torsions:
REMARK  status: ('A' for Active; 'I' for Inactive)
REMARK    1  A    between atoms: C_8  and  N_9
REMARK    2  A    between atoms: C_10  and  C_12
REMARK    3  A    between atoms: C_12  and  N_13
REMARK    4  A    between atoms: C_18  and  O_19
REMARK    5  A    between atoms: C_24  and  O_25
REMARK    6  A    between atoms: C_26  and  O_27
REMARK    7  A    between atoms: C_30  and  C_31
REMARK    8  A    between atoms: C_34  and  O_35
REMARK    9  A    between atoms: C_36  and  N_37
REMARK   10  A    between atoms: N_37  and  C_38
REMARK   11  A    between atoms: N_37  and  C_39
REMARK                            x       y       z     vdW  Elec       q    Type
REMARK                         _______ _______ _______ _____ _____    ______ ____
ROOT
ATOM      1  C   UNL     1      -5.938  -0.551 131.040  0.00  0.00    +0.000 C 
ATOM      2  C   UNL     1      -7.209   0.210 130.681  0.00  0.00    +0.000 C 
ATOM      3  C   UNL     1      -7.101   0.939 129.394  0.00  0.00    +0.000 A 
ATOM      4  C   UNL     1      -7.854   2.084 129.151  0.00  0.00    +0.000 A 
ATOM      5  F   UNL     1      -8.605   2.591 130.141  0.00  0.00    +0.000 F 
ATOM      6  C   UNL     1      -7.861   2.705 127.897  0.00  0.00    +0.000 A 
ATOM      7  C   UNL     1      -7.097   2.177 126.840  0.00  0.00    +0.000 A 
ATOM      8  C   UNL     1      -6.332   1.026 127.121  0.00  0.00    +0.000 A 
ATOM      9  C   UNL     1      -6.338   0.407 128.367  0.00  0.00    +0.000 A 
ATOM     10  C   UNL     1      -5.543  -0.847 128.543  0.00  0.00    +0.000 C 
ATOM     11  O   UNL     1      -5.057  -1.497 127.618  0.00  0.00    +0.000 OA
ATOM     12  C   UNL     1      -5.376  -1.364 129.910  0.00  0.00    +0.000 C 
ATOM     13  C   UNL     1      -4.744  -2.549 130.063  0.00  0.00    +0.000 C 
ATOM     14  C   UNL     1      -4.507  -3.177 131.409  0.00  0.00    +0.000 C 
ATOM     15  C   UNL     1      -5.028  -4.598 131.511  0.00  0.00    +0.000 C 
ATOM     16  O   UNL     1      -5.907  -5.025 130.751  0.00  0.00    +0.000 OA
ATOM     17  C   UNL     1      -4.720  -5.368 132.766  0.00  0.00    +0.000 C 
ATOM     18  C   UNL     1      -5.665  -4.869 133.564  0.00  0.00    +0.000 C 
ATOM     19  C   UNL     1      -5.463  -3.205 133.900  0.00  0.00    +0.000 C 
ATOM     20  C   UNL     1      -5.204  -2.411 132.549  0.00  0.00    +0.000 C 
ATOM     21  C   UNL     1      -6.338  -1.473 132.198  0.00  0.00    +0.000 C 
ENDROOT
BRANCH  17  22
ATOM     22  C   UNL     1      -3.611  -5.243 133.777  0.00  0.00    +0.000 C 
ATOM     23  N   UNL     1      -2.363  -4.827 133.314  0.00  0.00    +0.000 N 
ATOM     24  O   UNL     1      -3.713  -5.613 134.950  0.00  0.00    +0.000 OA
ATOM     25  H   UNL     1      -2.184  -4.759 132.312  0.00  0.00    +0.000 HD
ATOM     26  H   UNL     1      -1.573  -5.254 133.785  0.00  0.00    +0.000 HD
ENDBRANCH  17  22
BRANCH   7  27
ATOM     27  N   UNL     1      -7.144   2.844 125.569  0.00  0.00    +0.000 N 
ATOM     28  C   UNL     1      -6.066   3.426 124.931  0.00  0.00    +0.000 C 
ATOM     29  O   UNL     1      -4.918   3.432 125.373  0.00  0.00    +0.000 OA
ATOM     30  H   UNL     1      -8.045   2.877 125.106  0.00  0.00    +0.000 HD
BRANCH  28  31
ATOM     31  C   UNL     1      -6.255   4.105 123.594  0.00  0.00    +0.000 C 
BRANCH  31  32
ATOM     32  N   UNL     1      -6.716   3.030 122.680  0.00  0.00    +0.000 NA
ATOM     33  C   UNL     1      -5.940   2.934 121.453  0.00  0.00    +0.000 C 
ATOM     34  C   UNL     1      -6.667   3.941 120.598  0.00  0.00    +0.000 C 
ATOM     35  C   UNL     1      -8.128   3.622 120.897  0.00  0.00    +0.000 C 
ATOM     36  C   UNL     1      -8.128   3.105 122.328  0.00  0.00    +0.000 C 
ENDBRANCH  31  32
ENDBRANCH  28  31
ENDBRANCH   7  27
BRANCH  19  37
ATOM     37  N   UNL     1      -4.520  -2.450 134.826  0.00  0.00    +0.000 NA
ATOM     38  C   UNL     1      -4.611  -2.368 136.321  0.00  0.00    +0.000 C 
ATOM     39  C   UNL     1      -3.824  -1.284 134.357  0.00  0.00    +0.000 C 
ENDBRANCH  19  37
BRANCH   8  40
ATOM     40  O   UNL     1      -5.476   0.394 126.288  0.00  0.00    +0.000 OA
ATOM     41  H   UNL     1      -5.881   0.095 125.465  0.00  0.00    +0.000 HD
ENDBRANCH   8  40
BRANCH  13  42
ATOM     42  O   UNL     1      -4.179  -3.269 129.014  0.00  0.00    +0.000 OA
ATOM     43  H   UNL     1      -3.359  -3.708 129.354  0.00  0.00    +0.000 HD
ENDBRANCH  13  42
BRANCH  14  44
ATOM     44  O   UNL     1      -3.089  -3.168 131.527  0.00  0.00    +0.000 OA
ATOM     45  H   UNL     1      -2.749  -2.876 130.657  0.00  0.00    +0.000 HD
ENDBRANCH  14  44
BRANCH  18  46
ATOM     46  O   UNL     1      -6.278  -5.874 134.400  0.00  0.00    +0.000 OA
ATOM     47  H   UNL     1      -6.370  -5.487 135.325  0.00  0.00    +0.000 HD
ENDBRANCH  18  46
TORSDOF 9
ENDMDL
MODEL 6
REMARK VINA RESULT:      -7.6      1.668      2.686
REMARK  Name = Eravacycline
REMARK  11 active torsions:
REMARK  status: ('A' for Active; 'I' for Inactive)
REMARK    1  A    between atoms: C_8  and  N_9
REMARK    2  A    between atoms: C_10  and  C_12
REMARK    3  A    between atoms: C_12  and  N_13
REMARK    4  A    between atoms: C_18  and  O_19
REMARK    5  A    between atoms: C_24  and  O_25
REMARK    6  A    between atoms: C_26  and  O_27
REMARK    7  A    between atoms: C_30  and  C_31
REMARK    8  A    between atoms: C_34  and  O_35
REMARK    9  A    between atoms: C_36  and  N_37
REMARK   10  A    between atoms: N_37  and  C_38
REMARK   11  A    between atoms: N_37  and  C_39
REMARK                            x       y       z     vdW  Elec       q    Type
REMARK                         _______ _______ _______ _____ _____    ______ ____
ROOT
ATOM      1  C   UNL     1      -6.415  -3.021 131.755  0.00  0.00    +0.000 C 
ATOM      2  C   UNL     1      -7.179  -3.702 130.625  0.00  0.00    +0.000 C 
ATOM      3  C   UNL     1      -7.185  -2.908 129.372  0.00  0.00    +0.000 A 
ATOM      4  C   UNL     1      -8.219  -3.031 128.448  0.00  0.00    +0.000 A 
ATOM      5  F   UNL     1      -9.277  -3.798 128.754  0.00  0.00    +0.000 F 
ATOM      6  C   UNL     1      -8.173  -2.389 127.205  0.00  0.00    +0.000 A 
ATOM      7  C   UNL     1      -7.063  -1.596 126.858  0.00  0.00    +0.000 A 
ATOM      8  C   UNL     1      -6.039  -1.479 127.820  0.00  0.00    +0.000 A 
ATOM      9  C   UNL     1      -6.086  -2.129 129.050  0.00  0.00    +0.000 A 
ATOM     10  C   UNL     1      -4.918  -1.991 129.973  0.00  0.00    +0.000 C 
ATOM     11  O   UNL     1      -3.825  -1.529 129.647  0.00  0.00    +0.000 OA
ATOM     12  C   UNL     1      -5.071  -2.490 131.348  0.00  0.00    +0.000 C 
ATOM     13  C   UNL     1      -3.988  -2.460 132.155  0.00  0.00    +0.000 C 
ATOM     14  C   UNL     1      -4.020  -2.936 133.581  0.00  0.00    +0.000 C 
ATOM     15  C   UNL     1      -2.960  -3.974 133.895  0.00  0.00    +0.000 C 
ATOM     16  O   UNL     1      -2.432  -4.653 133.004  0.00  0.00    +0.000 OA
ATOM     17  C   UNL     1      -2.814  -4.415 135.325  0.00  0.00    +0.000 C 
ATOM     18  C   UNL     1      -3.818  -5.292 135.386  0.00  0.00    +0.000 C 
ATOM     19  C   UNL     1      -5.359  -4.573 135.207  0.00  0.00    +0.000 C 
ATOM     20  C   UNL     1      -5.358  -3.603 133.949  0.00  0.00    +0.000 C 
ATOM     21  C   UNL     1      -6.247  -4.100 132.830  0.00  0.00    +0.000 C 
ENDROOT
BRANCH  17  22
ATOM     22  C   UNL     1      -3.149  -3.736 136.627  0.00  0.00    +0.000 C 
ATOM     23  N   UNL     1      -2.867  -2.375 136.733  0.00  0.00    +0.000 N 
ATOM     24  O   UNL     1      -3.530  -4.342 137.633  0.00  0.00    +0.000 OA
ATOM     25  H   UNL     1      -2.320  -1.906 136.011  0.00  0.00    +0.000 HD
ATOM     26  H   UNL     1      -2.564  -2.076 137.654  0.00  0.00    +0.000 HD
ENDBRANCH  17  22
BRANCH   7  27
ATOM     27  N   UNL     1      -7.058  -0.966 125.568  0.00  0.00    +0.000 N 
ATOM     28  C   UNL     1      -6.986   0.396 125.343  0.00  0.00    +0.000 C 
ATOM     29  O   UNL     1      -6.905   1.242 126.232  0.00  0.00    +0.000 OA
ATOM     30  H   UNL     1      -7.099  -1.579 124.762  0.00  0.00    +0.000 HD
BRANCH  28  31
ATOM     31  C   UNL     1      -6.996   0.930 123.930  0.00  0.00    +0.000 C 
BRANCH  31  32
ATOM     32  N   UNL     1      -7.775   2.192 124.004  0.00  0.00    +0.000 NA
ATOM     33  C   UNL     1      -9.216   1.989 123.999  0.00  0.00    +0.000 C 
ATOM     34  C   UNL     1      -9.474   1.943 122.514  0.00  0.00    +0.000 C 
ATOM     35  C   UNL     1      -8.614   3.094 122.002  0.00  0.00    +0.000 C 
ATOM     36  C   UNL     1      -7.443   3.165 122.971  0.00  0.00    +0.000 C 
ENDBRANCH  31  32
ENDBRANCH  28  31
ENDBRANCH   7  27
BRANCH  19  37
ATOM     37  N   UNL     1      -6.232  -3.764 136.155  0.00  0.00    +0.000 NA
ATOM     38  C   UNL     1      -7.084  -4.302 137.267  0.00  0.00    +0.000 C 
ATOM     39  C   UNL     1      -6.793  -2.511 135.731  0.00  0.00    +0.000 C 
ENDBRANCH  19  37
BRANCH   8  40
ATOM     40  O   UNL     1      -4.924  -0.720 127.733  0.00  0.00    +0.000 OA
ATOM     41  H   UNL     1      -4.422  -0.668 128.555  0.00  0.00    +0.000 HD
ENDBRANCH   8  40
BRANCH  13  42
ATOM     42  O   UNL     1      -2.759  -1.917 131.785  0.00  0.00    +0.000 OA
ATOM     43  H   UNL     1      -2.250  -1.729 132.613  0.00  0.00    +0.000 HD
ENDBRANCH  13  42
BRANCH  14  44
ATOM     44  O   UNL     1      -3.775  -1.748 134.326  0.00  0.00    +0.000 OA
ATOM     45  H   UNL     1      -3.239  -1.172 133.744  0.00  0.00    +0.000 HD
ENDBRANCH  14  44
BRANCH  18  46
ATOM     46  O   UNL     1      -3.475  -6.482 136.126  0.00  0.00    +0.000 OA
ATOM     47  H   UNL     1      -3.775  -7.275 135.583  0.00  0.00    +0.000 HD
ENDBRANCH  18  46
TORSDOF 9
ENDMDL
MODEL 7
REMARK VINA RESULT:      -7.6      5.986      9.220
REMARK  Name = Eravacycline
REMARK  11 active torsions:
REMARK  status: ('A' for Active; 'I' for Inactive)
REMARK    1  A    between atoms: C_8  and  N_9
REMARK    2  A    between atoms: C_10  and  C_12
REMARK    3  A    between atoms: C_12  and  N_13
REMARK    4  A    between atoms: C_18  and  O_19
REMARK    5  A    between atoms: C_24  and  O_25
REMARK    6  A    between atoms: C_26  and  O_27
REMARK    7  A    between atoms: C_30  and  C_31
REMARK    8  A    between atoms: C_34  and  O_35
REMARK    9  A    between atoms: C_36  and  N_37
REMARK   10  A    between atoms: N_37  and  C_38
REMARK   11  A    between atoms: N_37  and  C_39
REMARK                            x       y       z     vdW  Elec       q    Type
REMARK                         _______ _______ _______ _____ _____    ______ ____
ROOT
ATOM      1  C   UNL     1      -6.878   1.196 129.239  0.00  0.00    +0.000 C 
ATOM      2  C   UNL     1      -7.667   2.263 129.988  0.00  0.00    +0.000 C 
ATOM      3  C   UNL     1      -6.796   3.243 130.683  0.00  0.00    +0.000 A 
ATOM      4  C   UNL     1      -7.235   3.916 131.819  0.00  0.00    +0.000 A 
ATOM      5  F   UNL     1      -8.423   3.588 132.352  0.00  0.00    +0.000 F 
ATOM      6  C   UNL     1      -6.478   4.936 132.407  0.00  0.00    +0.000 A 
ATOM      7  C   UNL     1      -5.240   5.309 131.852  0.00  0.00    +0.000 A 
ATOM      8  C   UNL     1      -4.815   4.599 130.710  0.00  0.00    +0.000 A 
ATOM      9  C   UNL     1      -5.578   3.593 130.125  0.00  0.00    +0.000 A 
ATOM     10  C   UNL     1      -5.066   2.947 128.877  0.00  0.00    +0.000 C 
ATOM     11  O   UNL     1      -4.132   3.379 128.203  0.00  0.00    +0.000 OA
ATOM     12  C   UNL     1      -5.762   1.742 128.397  0.00  0.00    +0.000 C 
ATOM     13  C   UNL     1      -5.367   1.214 127.218  0.00  0.00    +0.000 C 
ATOM     14  C   UNL     1      -5.995  -0.018 126.626  0.00  0.00    +0.000 C 
ATOM     15  C   UNL     1      -6.493   0.181 125.208  0.00  0.00    +0.000 C 
ATOM     16  O   UNL     1      -6.745   1.308 124.760  0.00  0.00    +0.000 OA
ATOM     17  C   UNL     1      -7.013  -1.024 124.473  0.00  0.00    +0.000 C 
ATOM     18  C   UNL     1      -8.241  -1.082 124.991  0.00  0.00    +0.000 C 
ATOM     19  C   UNL     1      -8.256  -1.434 126.664  0.00  0.00    +0.000 C 
ATOM     20  C   UNL     1      -7.225  -0.493 127.422  0.00  0.00    +0.000 C 
ATOM     21  C   UNL     1      -7.907   0.491 128.348  0.00  0.00    +0.000 C 
ENDROOT
BRANCH  17  22
ATOM     22  C   UNL     1      -6.731  -2.495 124.626  0.00  0.00    +0.000 C 
ATOM     23  N   UNL     1      -7.769  -3.381 124.342  0.00  0.00    +0.000 N 
ATOM     24  O   UNL     1      -5.688  -2.942 125.113  0.00  0.00    +0.000 OA
ATOM     25  H   UNL     1      -8.714  -3.031 124.185  0.00  0.00    +0.000 HD
ATOM     26  H   UNL     1      -7.793  -4.207 124.930  0.00  0.00    +0.000 HD
ENDBRANCH  17  22
BRANCH   7  27
ATOM     27  N   UNL     1      -4.505   6.368 132.485  0.00  0.00    +0.000 N 
ATOM     28  C   UNL     1      -3.533   6.199 133.453  0.00  0.00    +0.000 C 
ATOM     29  O   UNL     1      -3.169   5.108 133.887  0.00  0.00    +0.000 OA
ATOM     30  H   UNL     1      -4.715   7.312 132.181  0.00  0.00    +0.000 HD
BRANCH  28  31
ATOM     31  C   UNL     1      -2.838   7.403 134.045  0.00  0.00    +0.000 C 
BRANCH  31  32
ATOM     32  N   UNL     1      -2.127   8.032 132.904  0.00  0.00    +0.000 NA
ATOM     33  C   UNL     1      -0.912   7.331 132.515  0.00  0.00    +0.000 C 
ATOM     34  C   UNL     1       0.078   7.969 133.456  0.00  0.00    +0.000 C 
ATOM     35  C   UNL     1      -0.307   9.443 133.376  0.00  0.00    +0.000 C 
ATOM     36  C   UNL     1      -1.803   9.440 133.100  0.00  0.00    +0.000 C 
ENDBRANCH  31  32
ENDBRANCH  28  31
ENDBRANCH   7  27
BRANCH  19  37
ATOM     37  N   UNL     1      -8.047  -2.724 127.445  0.00  0.00    +0.000 NA
ATOM     38  C   UNL     1      -9.034  -3.843 127.603  0.00  0.00    +0.000 C 
ATOM     39  C   UNL     1      -7.158  -2.752 128.573  0.00  0.00    +0.000 C 
ENDBRANCH  19  37
BRANCH   8  40
ATOM     40  O   UNL     1      -3.640   4.736 130.057  0.00  0.00    +0.000 OA
ATOM     41  H   UNL     1      -3.419   3.989 129.488  0.00  0.00    +0.000 HD
ENDBRANCH   8  40
BRANCH  13  42
ATOM     42  O   UNL     1      -4.295   1.696 126.471  0.00  0.00    +0.000 OA
ATOM     43  H   UNL     1      -4.394   2.679 126.398  0.00  0.00    +0.000 HD
ENDBRANCH  13  42
BRANCH  14  44
ATOM     44  O   UNL     1      -4.932  -0.965 126.641  0.00  0.00    +0.000 OA
ATOM     45  H   UNL     1      -4.124  -0.465 126.404  0.00  0.00    +0.000 HD
ENDBRANCH  14  44
BRANCH  18  46
ATOM     46  O   UNL     1      -9.247  -1.404 124.008  0.00  0.00    +0.000 OA
ATOM     47  H   UNL     1      -9.466  -0.558 123.507  0.00  0.00    +0.000 HD
ENDBRANCH  18  46
TORSDOF 9
ENDMDL
MODEL 8
REMARK VINA RESULT:      -7.5      6.124     10.765
REMARK  Name = Eravacycline
REMARK  11 active torsions:
REMARK  status: ('A' for Active; 'I' for Inactive)
REMARK    1  A    between atoms: C_8  and  N_9
REMARK    2  A    between atoms: C_10  and  C_12
REMARK    3  A    between atoms: C_12  and  N_13
REMARK    4  A    between atoms: C_18  and  O_19
REMARK    5  A    between atoms: C_24  and  O_25
REMARK    6  A    between atoms: C_26  and  O_27
REMARK    7  A    between atoms: C_30  and  C_31
REMARK    8  A    between atoms: C_34  and  O_35
REMARK    9  A    between atoms: C_36  and  N_37
REMARK   10  A    between atoms: N_37  and  C_38
REMARK   11  A    between atoms: N_37  and  C_39
REMARK                            x       y       z     vdW  Elec       q    Type
REMARK                         _______ _______ _______ _____ _____    ______ ____
ROOT
ATOM      1  C   UNL     1      -7.648   2.201 129.248  0.00  0.00    +0.000 C 
ATOM      2  C   UNL     1      -8.353   2.547 130.555  0.00  0.00    +0.000 C 
ATOM      3  C   UNL     1      -7.515   3.370 131.461  0.00  0.00    +0.000 A 
ATOM      4  C   UNL     1      -7.696   3.331 132.840  0.00  0.00    +0.000 A 
ATOM      5  F   UNL     1      -8.568   2.451 133.357  0.00  0.00    +0.000 F 
ATOM      6  C   UNL     1      -7.005   4.196 133.696  0.00  0.00    +0.000 A 
ATOM      7  C   UNL     1      -6.102   5.139 133.172  0.00  0.00    +0.000 A 
ATOM      8  C   UNL     1      -5.929   5.145 131.773  0.00  0.00    +0.000 A 
ATOM      9  C   UNL     1      -6.627   4.289 130.927  0.00  0.00    +0.000 A 
ATOM     10  C   UNL     1      -6.419   4.420 129.452  0.00  0.00    +0.000 C 
ATOM     11  O   UNL     1      -5.846   5.366 128.912  0.00  0.00    +0.000 OA
ATOM     12  C   UNL     1      -6.982   3.372 128.586  0.00  0.00    +0.000 C 
ATOM     13  C   UNL     1      -6.884   3.539 127.249  0.00  0.00    +0.000 C 
ATOM     14  C   UNL     1      -7.415   2.536 126.262  0.00  0.00    +0.000 C 
ATOM     15  C   UNL     1      -8.364   3.137 125.243  0.00  0.00    +0.000 C 
ATOM     16  O   UNL     1      -8.957   4.202 125.456  0.00  0.00    +0.000 OA
ATOM     17  C   UNL     1      -8.844   2.251 124.126  0.00  0.00    +0.000 C 
ATOM     18  C   UNL     1      -9.810   1.594 124.770  0.00  0.00    +0.000 C 
ATOM     19  C   UNL     1      -9.229   0.593 126.029  0.00  0.00    +0.000 C 
ATOM     20  C   UNL     1      -8.216   1.408 126.940  0.00  0.00    +0.000 C 
ATOM     21  C   UNL     1      -8.748   1.643 128.337  0.00  0.00    +0.000 C 
ENDROOT
BRANCH  17  22
ATOM     22  C   UNL     1      -8.249   1.023 123.488  0.00  0.00    +0.000 C 
ATOM     23  N   UNL     1      -6.859   0.951 123.406  0.00  0.00    +0.000 N 
ATOM     24  O   UNL     1      -8.921   0.155 122.923  0.00  0.00    +0.000 OA
ATOM     25  H   UNL     1      -6.289   1.765 123.634  0.00  0.00    +0.000 HD
ATOM     26  H   UNL     1      -6.508   0.497 122.570  0.00  0.00    +0.000 HD
ENDBRANCH  17  22
BRANCH   7  27
ATOM     27  N   UNL     1      -5.425   6.012 134.090  0.00  0.00    +0.000 N 
ATOM     28  C   UNL     1      -4.167   5.794 134.620  0.00  0.00    +0.000 C 
ATOM     29  O   UNL     1      -3.463   4.821 134.359  0.00  0.00    +0.000 OA
ATOM     30  H   UNL     1      -5.913   6.860 134.355  0.00  0.00    +0.000 HD
BRANCH  28  31
ATOM     31  C   UNL     1      -3.571   6.793 135.585  0.00  0.00    +0.000 C 
BRANCH  31  32
ATOM     32  N   UNL     1      -4.677   7.136 136.513  0.00  0.00    +0.000 NA
ATOM     33  C   UNL     1      -4.644   8.516 136.975  0.00  0.00    +0.000 C 
ATOM     34  C   UNL     1      -3.722   8.378 138.161  0.00  0.00    +0.000 C 
ATOM     35  C   UNL     1      -4.236   7.104 138.822  0.00  0.00    +0.000 C 
ATOM     36  C   UNL     1      -4.779   6.263 137.675  0.00  0.00    +0.000 C 
ENDBRANCH  31  32
ENDBRANCH  28  31
ENDBRANCH   7  27
BRANCH  19  37
ATOM     37  N   UNL     1      -8.540  -0.763 126.028  0.00  0.00    +0.000 NA
ATOM     38  C   UNL     1      -9.175  -2.089 125.728  0.00  0.00    +0.000 C 
ATOM     39  C   UNL     1      -7.399  -0.996 126.869  0.00  0.00    +0.000 C 
ENDBRANCH  19  37
BRANCH   8  40
ATOM     40  O   UNL     1      -5.069   5.908 131.062  0.00  0.00    +0.000 OA
ATOM     41  H   UNL     1      -4.708   6.653 131.556  0.00  0.00    +0.000 HD
ENDBRANCH   8  40
BRANCH  13  42
ATOM     42  O   UNL     1      -6.217   4.602 126.645  0.00  0.00    +0.000 OA
ATOM     43  H   UNL     1      -6.888   5.299 126.433  0.00  0.00    +0.000 HD
ENDBRANCH  13  42
BRANCH  14  44
ATOM     44  O   UNL     1      -6.240   2.062 125.614  0.00  0.00    +0.000 OA
ATOM     45  H   UNL     1      -5.511   2.636 125.927  0.00  0.00    +0.000 HD
ENDBRANCH  14  44
BRANCH  18  46
ATOM     46  O   UNL     1     -10.992   1.408 123.963  0.00  0.00    +0.000 OA
ATOM     47  H   UNL     1     -10.702   1.376 123.000  0.00  0.00    +0.000 HD
ENDBRANCH  18  46
TORSDOF 9
ENDMDL
MODEL 9
REMARK VINA RESULT:      -7.5      2.540     10.498
REMARK  Name = Eravacycline
REMARK  11 active torsions:
REMARK  status: ('A' for Active; 'I' for Inactive)
REMARK    1  A    between atoms: C_8  and  N_9
REMARK    2  A    between atoms: C_10  and  C_12
REMARK    3  A    between atoms: C_12  and  N_13
REMARK    4  A    between atoms: C_18  and  O_19
REMARK    5  A    between atoms: C_24  and  O_25
REMARK    6  A    between atoms: C_26  and  O_27
REMARK    7  A    between atoms: C_30  and  C_31
REMARK    8  A    between atoms: C_34  and  O_35
REMARK    9  A    between atoms: C_36  and  N_37
REMARK   10  A    between atoms: N_37  and  C_38
REMARK   11  A    between atoms: N_37  and  C_39
REMARK                            x       y       z     vdW  Elec       q    Type
REMARK                         _______ _______ _______ _____ _____    ______ ____
ROOT
ATOM      1  C   UNL     1      -6.289  -2.920 128.493  0.00  0.00    +0.000 C 
ATOM      2  C   UNL     1      -6.636  -3.633 129.794  0.00  0.00    +0.000 C 
ATOM      3  C   UNL     1      -5.478  -3.752 130.714  0.00  0.00    +0.000 A 
ATOM      4  C   UNL     1      -5.399  -4.788 131.639  0.00  0.00    +0.000 A 
ATOM      5  F   UNL     1      -6.333  -5.752 131.619  0.00  0.00    +0.000 F 
ATOM      6  C   UNL     1      -4.381  -4.839 132.599  0.00  0.00    +0.000 A 
ATOM      7  C   UNL     1      -3.404  -3.827 132.650  0.00  0.00    +0.000 A 
ATOM      8  C   UNL     1      -3.502  -2.800 131.690  0.00  0.00    +0.000 A 
ATOM      9  C   UNL     1      -4.523  -2.750 130.745  0.00  0.00    +0.000 A 
ATOM     10  C   UNL     1      -4.574  -1.581 129.813  0.00  0.00    +0.000 C 
ATOM     11  O   UNL     1      -3.915  -0.551 129.953  0.00  0.00    +0.000 OA
ATOM     12  C   UNL     1      -5.513  -1.649 128.683  0.00  0.00    +0.000 C 
ATOM     13  C   UNL     1      -5.635  -0.557 127.898  0.00  0.00    +0.000 C 
ATOM     14  C   UNL     1      -6.556  -0.506 126.710  0.00  0.00    +0.000 C 
ATOM     15  C   UNL     1      -7.519   0.665 126.743  0.00  0.00    +0.000 C 
ATOM     16  O   UNL     1      -7.805   1.241 127.801  0.00  0.00    +0.000 OA
ATOM     17  C   UNL     1      -8.390   0.890 125.537  0.00  0.00    +0.000 C 
ATOM     18  C   UNL     1      -9.340  -0.014 125.784  0.00  0.00    +0.000 C 
ATOM     19  C   UNL     1      -8.772  -1.627 125.735  0.00  0.00    +0.000 C 
ATOM     20  C   UNL     1      -7.447  -1.757 126.601  0.00  0.00    +0.000 C 
ATOM     21  C   UNL     1      -7.638  -2.614 127.833  0.00  0.00    +0.000 C 
ENDROOT
BRANCH  17  22
ATOM     22  C   UNL     1      -8.219   0.515 124.089  0.00  0.00    +0.000 C 
ATOM     23  N   UNL     1      -6.953   0.676 123.528  0.00  0.00    +0.000 N 
ATOM     24  O   UNL     1      -9.159   0.205 123.350  0.00  0.00    +0.000 OA
ATOM     25  H   UNL     1      -6.223   1.168 124.043  0.00  0.00    +0.000 HD
ATOM     26  H   UNL     1      -6.955   0.965 122.556  0.00  0.00    +0.000 HD
ENDBRANCH  17  22
BRANCH   7  27
ATOM     27  N   UNL     1      -2.386  -3.918 133.658  0.00  0.00    +0.000 N 
ATOM     28  C   UNL     1      -2.107  -2.949 134.602  0.00  0.00    +0.000 C 
ATOM     29  O   UNL     1      -2.711  -1.882 134.701  0.00  0.00    +0.000 OA
ATOM     30  H   UNL     1      -1.841  -4.772 133.678  0.00  0.00    +0.000 HD
BRANCH  28  31
ATOM     31  C   UNL     1      -1.000  -3.168 135.607  0.00  0.00    +0.000 C 
BRANCH  31  32
ATOM     32  N   UNL     1      -1.665  -3.090 136.932  0.00  0.00    +0.000 NA
ATOM     33  C   UNL     1      -0.822  -2.526 137.976  0.00  0.00    +0.000 C 
ATOM     34  C   UNL     1      -0.101  -3.768 138.436  0.00  0.00    +0.000 C 
ATOM     35  C   UNL     1      -1.229  -4.793 138.493  0.00  0.00    +0.000 C 
ATOM     36  C   UNL     1      -2.205  -4.356 137.410  0.00  0.00    +0.000 C 
ENDBRANCH  31  32
ENDBRANCH  28  31
ENDBRANCH   7  27
BRANCH  19  37
ATOM     37  N   UNL     1      -8.420  -2.558 124.584  0.00  0.00    +0.000 NA
ATOM     38  C   UNL     1      -9.385  -3.288 123.697  0.00  0.00    +0.000 C 
ATOM     39  C   UNL     1      -7.186  -3.293 124.599  0.00  0.00    +0.000 C 
ENDBRANCH  19  37
BRANCH   8  40
ATOM     40  O   UNL     1      -2.643  -1.773 131.506  0.00  0.00    +0.000 OA
ATOM     41  H   UNL     1      -2.282  -1.720 130.613  0.00  0.00    +0.000 HD
ENDBRANCH   8  40
BRANCH  13  42
ATOM     42  O   UNL     1      -4.872   0.599 128.050  0.00  0.00    +0.000 OA
ATOM     43  H   UNL     1      -5.431   1.369 127.778  0.00  0.00    +0.000 HD
ENDBRANCH  13  42
BRANCH  14  44
ATOM     44  O   UNL     1      -5.662  -0.370 125.610  0.00  0.00    +0.000 OA
ATOM     45  H   UNL     1      -6.059  -0.884 124.878  0.00  0.00    +0.000 HD
ENDBRANCH  14  44
BRANCH  18  46
ATOM     46  O   UNL     1     -10.664   0.470 125.475  0.00  0.00    +0.000 OA
ATOM     47  H   UNL     1     -10.563   1.333 124.968  0.00  0.00    +0.000 HD
ENDBRANCH  18  46
TORSDOF 9
ENDMDL
