MODEL 1
REMARK VINA RESULT:      -7.4      0.000      0.000
REMARK  Name = Erdafitinib
REMARK  14 active torsions:
REMARK  status: ('A' for Active; 'I' for Inactive)
REMARK    1  A    between atoms: C_1  and  O_2
REMARK    2  A    between atoms: O_2  and  C_3
REMARK    3  A    between atoms: C_5  and  N_11
REMARK    4  A    between atoms: C_7  and  O_8
REMARK    5  A    between atoms: O_8  and  C_9
REMARK    6  A    between atoms: N_11  and  C_12
REMARK    7  A    between atoms: N_11  and  C_18
REMARK    8  A    between atoms: C_12  and  C_13
REMARK    9  A    between atoms: C_13  and  N_14
REMARK   10  A    between atoms: N_14  and  C_15
REMARK   11  A    between atoms: C_15  and  C_16
REMARK   12  A    between atoms: C_15  and  C_17
REMARK   13  A    between atoms: C_24  and  C_28
REMARK   14  A    between atoms: N_30  and  C_31
REMARK                            x       y       z     vdW  Elec       q    Type
REMARK                         _______ _______ _______ _____ _____    ______ ____
ROOT
ATOM      1  N   UNL     1      -7.031   0.235 127.000  0.00  0.00    +0.000 N 
ENDROOT
BRANCH   1   2
ATOM      2  C   UNL     1      -7.278   1.283 127.992  0.00  0.00    +0.000 A 
ATOM      3  C   UNL     1      -6.201   1.734 128.750  0.00  0.00    +0.000 A 
ATOM      4  C   UNL     1      -6.353   2.822 129.607  0.00  0.00    +0.000 A 
ATOM      5  C   UNL     1      -7.533   3.535 129.721  0.00  0.00    +0.000 A 
ATOM      6  N   UNL     1      -7.385   4.739 130.261  0.00  0.00    +0.000 NA
ATOM      7  C   UNL     1      -8.460   5.549 130.229  0.00  0.00    +0.000 A 
ATOM      8  C   UNL     1      -9.754   5.113 130.120  0.00  0.00    +0.000 A 
ATOM      9  N   UNL     1      -9.922   3.878 129.514  0.00  0.00    +0.000 NA
ATOM     10  C   UNL     1      -8.752   3.100 129.157  0.00  0.00    +0.000 A 
ATOM     11  C   UNL     1      -8.543   1.955 128.241  0.00  0.00    +0.000 A 
BRANCH   8  12
ATOM     12  C   UNL     1     -10.833   6.080 130.499  0.00  0.00    +0.000 A 
ATOM     13  C   UNL     1     -11.570   6.900 129.659  0.00  0.00    +0.000 A 
ATOM     14  N   UNL     1     -12.356   7.704 130.453  0.00  0.00    +0.000 N 
ATOM     15  C   UNL     1     -12.916   8.990 130.091  0.00  0.00    +0.000 C 
ATOM     16  N   UNL     1     -12.437   7.265 131.719  0.00  0.00    +0.000 NA
ATOM     17  C   UNL     1     -11.551   6.259 131.743  0.00  0.00    +0.000 A 
ENDBRANCH   8  12
ENDBRANCH   1   2
BRANCH   1  20
ATOM     18  C   UNL     1      -8.035  -3.230 128.301  0.00  0.00    +0.000 A 
ATOM     19  C   UNL     1      -7.342  -2.030 128.125  0.00  0.00    +0.000 A 
ATOM     20  C   UNL     1      -7.518  -1.110 127.065  0.00  0.00    +0.000 A 
ATOM     21  C   UNL     1      -8.275  -1.649 126.022  0.00  0.00    +0.000 A 
ATOM     22  C   UNL     1      -8.970  -2.872 126.149  0.00  0.00    +0.000 A 
ATOM     23  C   UNL     1      -8.888  -3.636 127.316  0.00  0.00    +0.000 A 
BRANCH  18  25
ATOM     24  C   UNL     1      -7.111  -3.105 130.478  0.00  0.00    +0.000 C 
ATOM     25  O   UNL     1      -7.887  -3.822 129.527  0.00  0.00    +0.000 OA
ENDBRANCH  18  25
BRANCH  22  26
ATOM     26  O   UNL     1      -9.752  -3.206 125.074  0.00  0.00    +0.000 OA
ATOM     27  C   UNL     1      -9.106  -3.085 123.813  0.00  0.00    +0.000 C 
ENDBRANCH  22  26
ENDBRANCH   1  20
BRANCH   1  28
ATOM     28  C   UNL     1      -6.163   0.777 125.848  0.00  0.00    +0.000 C 
BRANCH  28  29
ATOM     29  C   UNL     1      -6.908   1.461 124.683  0.00  0.00    +0.000 C 
BRANCH  29  30
ATOM     30  N   UNL     1      -7.413   2.840 124.641  0.00  0.00    +0.000 NA
ATOM     31  H   UNL     1      -6.753   3.405 124.104  0.00  0.00    +0.000 HD
BRANCH  30  32
ATOM     32  C   UNL     1      -8.721   2.871 123.909  0.00  0.00    +0.000 C 
ATOM     33  C   UNL     1      -8.624   2.946 122.373  0.00  0.00    +0.000 C 
ATOM     34  C   UNL     1      -9.494   1.610 124.285  0.00  0.00    +0.000 C 
ENDBRANCH  30  32
ENDBRANCH  29  30
ENDBRANCH  28  29
ENDBRANCH   1  28
TORSDOF 9
ENDMDL
MODEL 2
REMARK VINA RESULT:      -7.4      3.503      5.434
REMARK  Name = Erdafitinib
REMARK  14 active torsions:
REMARK  status: ('A' for Active; 'I' for Inactive)
REMARK    1  A    between atoms: C_1  and  O_2
REMARK    2  A    between atoms: O_2  and  C_3
REMARK    3  A    between atoms: C_5  and  N_11
REMARK    4  A    between atoms: C_7  and  O_8
REMARK    5  A    between atoms: O_8  and  C_9
REMARK    6  A    between atoms: N_11  and  C_12
REMARK    7  A    between atoms: N_11  and  C_18
REMARK    8  A    between atoms: C_12  and  C_13
REMARK    9  A    between atoms: C_13  and  N_14
REMARK   10  A    between atoms: N_14  and  C_15
REMARK   11  A    between atoms: C_15  and  C_16
REMARK   12  A    between atoms: C_15  and  C_17
REMARK   13  A    between atoms: C_24  and  C_28
REMARK   14  A    between atoms: N_30  and  C_31
REMARK                            x       y       z     vdW  Elec       q    Type
REMARK                         _______ _______ _______ _____ _____    ______ ____
ROOT
ATOM      1  N   UNL     1      -8.500   1.077 124.969  0.00  0.00    +0.000 N 
ENDROOT
BRANCH   1   2
ATOM      2  C   UNL     1      -8.013   1.809 126.140  0.00  0.00    +0.000 A 
ATOM      3  C   UNL     1      -8.676   1.624 127.350  0.00  0.00    +0.000 A 
ATOM      4  C   UNL     1      -8.170   2.187 128.520  0.00  0.00    +0.000 A 
ATOM      5  C   UNL     1      -6.987   2.901 128.564  0.00  0.00    +0.000 A 
ATOM      6  N   UNL     1      -6.472   3.015 129.784  0.00  0.00    +0.000 NA
ATOM      7  C   UNL     1      -5.233   3.536 129.868  0.00  0.00    +0.000 A 
ATOM      8  C   UNL     1      -4.669   4.345 128.917  0.00  0.00    +0.000 A 
ATOM      9  N   UNL     1      -5.167   4.200 127.632  0.00  0.00    +0.000 NA
ATOM     10  C   UNL     1      -6.296   3.319 127.407  0.00  0.00    +0.000 A 
ATOM     11  C   UNL     1      -6.855   2.686 126.190  0.00  0.00    +0.000 A 
BRANCH   8  12
ATOM     12  C   UNL     1      -3.478   5.153 129.331  0.00  0.00    +0.000 A 
ATOM     13  C   UNL     1      -2.832   5.142 130.558  0.00  0.00    +0.000 A 
ATOM     14  N   UNL     1      -1.873   6.130 130.527  0.00  0.00    +0.000 N 
ATOM     15  C   UNL     1      -1.290   6.802 131.670  0.00  0.00    +0.000 C 
ATOM     16  N   UNL     1      -1.618   6.568 129.284  0.00  0.00    +0.000 NA
ATOM     17  C   UNL     1      -2.556   5.952 128.552  0.00  0.00    +0.000 A 
ENDBRANCH   8  12
ENDBRANCH   1   2
BRANCH   1  20
ATOM     18  C   UNL     1      -6.777  -2.096 123.678  0.00  0.00    +0.000 A 
ATOM     19  C   UNL     1      -7.227  -0.777 123.772  0.00  0.00    +0.000 A 
ATOM     20  C   UNL     1      -8.214  -0.292 124.661  0.00  0.00    +0.000 A 
ATOM     21  C   UNL     1      -8.924  -1.327 125.274  0.00  0.00    +0.000 A 
ATOM     22  C   UNL     1      -8.518  -2.676 125.183  0.00  0.00    +0.000 A 
ATOM     23  C   UNL     1      -7.408  -3.050 124.422  0.00  0.00    +0.000 A 
BRANCH  18  25
ATOM     24  C   UNL     1      -4.732  -3.261 123.418  0.00  0.00    +0.000 C 
ATOM     25  O   UNL     1      -5.640  -2.279 122.937  0.00  0.00    +0.000 OA
ENDBRANCH  18  25
BRANCH  22  26
ATOM     26  O   UNL     1      -9.260  -3.555 125.929  0.00  0.00    +0.000 OA
ATOM     27  C   UNL     1      -8.865  -3.653 127.292  0.00  0.00    +0.000 C 
ENDBRANCH  22  26
ENDBRANCH   1  20
BRANCH   1  28
ATOM     28  C   UNL     1      -9.383   1.987 124.093  0.00  0.00    +0.000 C 
BRANCH  28  29
ATOM     29  C   UNL     1      -8.770   2.469 122.760  0.00  0.00    +0.000 C 
BRANCH  29  30
ATOM     30  N   UNL     1      -7.988   3.690 122.535  0.00  0.00    +0.000 NA
ATOM     31  H   UNL     1      -7.985   4.232 123.402  0.00  0.00    +0.000 HD
BRANCH  30  32
ATOM     32  C   UNL     1      -6.565   3.324 122.236  0.00  0.00    +0.000 C 
ATOM     33  C   UNL     1      -6.122   3.509 120.772  0.00  0.00    +0.000 C 
ATOM     34  C   UNL     1      -5.668   4.181 123.126  0.00  0.00    +0.000 C 
ENDBRANCH  30  32
ENDBRANCH  29  30
ENDBRANCH  28  29
ENDBRANCH   1  28
TORSDOF 9
ENDMDL
MODEL 3
REMARK VINA RESULT:      -7.3      3.879      5.666
REMARK  Name = Erdafitinib
REMARK  14 active torsions:
REMARK  status: ('A' for Active; 'I' for Inactive)
REMARK    1  A    between atoms: C_1  and  O_2
REMARK    2  A    between atoms: O_2  and  C_3
REMARK    3  A    between atoms: C_5  and  N_11
REMARK    4  A    between atoms: C_7  and  O_8
REMARK    5  A    between atoms: O_8  and  C_9
REMARK    6  A    between atoms: N_11  and  C_12
REMARK    7  A    between atoms: N_11  and  C_18
REMARK    8  A    between atoms: C_12  and  C_13
REMARK    9  A    between atoms: C_13  and  N_14
REMARK   10  A    between atoms: N_14  and  C_15
REMARK   11  A    between atoms: C_15  and  C_16
REMARK   12  A    between atoms: C_15  and  C_17
REMARK   13  A    between atoms: C_24  and  C_28
REMARK   14  A    between atoms: N_30  and  C_31
REMARK                            x       y       z     vdW  Elec       q    Type
REMARK                         _______ _______ _______ _____ _____    ______ ____
ROOT
ATOM      1  N   UNL     1      -7.494   1.682 126.307  0.00  0.00    +0.000 N 
ENDROOT
BRANCH   1   2
ATOM      2  C   UNL     1      -6.225   2.181 126.843  0.00  0.00    +0.000 A 
ATOM      3  C   UNL     1      -5.059   1.892 126.139  0.00  0.00    +0.000 A 
ATOM      4  C   UNL     1      -3.847   2.457 126.528  0.00  0.00    +0.000 A 
ATOM      5  C   UNL     1      -3.733   3.354 127.575  0.00  0.00    +0.000 A 
ATOM      6  N   UNL     1      -2.616   4.073 127.550  0.00  0.00    +0.000 NA
ATOM      7  C   UNL     1      -2.533   5.086 128.431  0.00  0.00    +0.000 A 
ATOM      8  C   UNL     1      -3.246   5.157 129.599  0.00  0.00    +0.000 A 
ATOM      9  N   UNL     1      -4.437   4.448 129.618  0.00  0.00    +0.000 NA
ATOM     10  C   UNL     1      -4.781   3.611 128.486  0.00  0.00    +0.000 A 
ATOM     11  C   UNL     1      -6.052   3.007 128.026  0.00  0.00    +0.000 A 
BRANCH   8  12
ATOM     12  C   UNL     1      -2.756   6.115 130.640  0.00  0.00    +0.000 A 
ATOM     13  C   UNL     1      -1.442   6.428 130.951  0.00  0.00    +0.000 A 
ATOM     14  N   UNL     1      -1.466   7.258 132.050  0.00  0.00    +0.000 N 
ATOM     15  C   UNL     1      -0.392   7.461 133.000  0.00  0.00    +0.000 C 
ATOM     16  N   UNL     1      -2.683   7.773 132.286  0.00  0.00    +0.000 NA
ATOM     17  C   UNL     1      -3.459   7.118 131.411  0.00  0.00    +0.000 A 
ENDBRANCH   8  12
ENDBRANCH   1   2
BRANCH   1  20
ATOM     18  C   UNL     1      -9.040  -1.707 125.396  0.00  0.00    +0.000 A 
ATOM     19  C   UNL     1      -8.809  -0.331 125.465  0.00  0.00    +0.000 A 
ATOM     20  C   UNL     1      -7.958   0.330 126.381  0.00  0.00    +0.000 A 
ATOM     21  C   UNL     1      -7.561  -0.508 127.427  0.00  0.00    +0.000 A 
ATOM     22  C   UNL     1      -7.797  -1.900 127.409  0.00  0.00    +0.000 A 
ATOM     23  C   UNL     1      -8.494  -2.504 126.361  0.00  0.00    +0.000 A 
BRANCH  18  25
ATOM     24  C   UNL     1      -9.300  -3.414 123.775  0.00  0.00    +0.000 C 
ATOM     25  O   UNL     1      -9.690  -2.140 124.272  0.00  0.00    +0.000 OA
ENDBRANCH  18  25
BRANCH  22  26
ATOM     26  O   UNL     1      -7.250  -2.592 128.458  0.00  0.00    +0.000 OA
ATOM     27  C   UNL     1      -8.200  -3.205 129.321  0.00  0.00    +0.000 C 
ENDBRANCH  22  26
ENDBRANCH   1  20
BRANCH   1  28
ATOM     28  C   UNL     1      -8.285   2.825 125.642  0.00  0.00    +0.000 C 
BRANCH  28  29
ATOM     29  C   UNL     1      -8.407   2.777 124.104  0.00  0.00    +0.000 C 
BRANCH  29  30
ATOM     30  N   UNL     1      -7.917   3.775 123.145  0.00  0.00    +0.000 NA
ATOM     31  H   UNL     1      -7.897   4.683 123.612  0.00  0.00    +0.000 HD
BRANCH  30  32
ATOM     32  C   UNL     1      -6.507   3.444 122.757  0.00  0.00    +0.000 C 
ATOM     33  C   UNL     1      -6.180   3.577 121.256  0.00  0.00    +0.000 C 
ATOM     34  C   UNL     1      -5.581   4.371 123.539  0.00  0.00    +0.000 C 
ENDBRANCH  30  32
ENDBRANCH  29  30
ENDBRANCH  28  29
ENDBRANCH   1  28
TORSDOF 9
ENDMDL
MODEL 4
REMARK VINA RESULT:      -7.3      2.374      4.697
REMARK  Name = Erdafitinib
REMARK  14 active torsions:
REMARK  status: ('A' for Active; 'I' for Inactive)
REMARK    1  A    between atoms: C_1  and  O_2
REMARK    2  A    between atoms: O_2  and  C_3
REMARK    3  A    between atoms: C_5  and  N_11
REMARK    4  A    between atoms: C_7  and  O_8
REMARK    5  A    between atoms: O_8  and  C_9
REMARK    6  A    between atoms: N_11  and  C_12
REMARK    7  A    between atoms: N_11  and  C_18
REMARK    8  A    between atoms: C_12  and  C_13
REMARK    9  A    between atoms: C_13  and  N_14
REMARK   10  A    between atoms: N_14  and  C_15
REMARK   11  A    between atoms: C_15  and  C_16
REMARK   12  A    between atoms: C_15  and  C_17
REMARK   13  A    between atoms: C_24  and  C_28
REMARK   14  A    between atoms: N_30  and  C_31
REMARK                            x       y       z     vdW  Elec       q    Type
REMARK                         _______ _______ _______ _____ _____    ______ ____
ROOT
ATOM      1  N   UNL     1      -7.225  -1.402 127.397  0.00  0.00    +0.000 N 
ENDROOT
BRANCH   1   2
ATOM      2  C   UNL     1      -7.217  -0.012 127.858  0.00  0.00    +0.000 A 
ATOM      3  C   UNL     1      -6.287   0.859 127.295  0.00  0.00    +0.000 A 
ATOM      4  C   UNL     1      -6.329   2.219 127.596  0.00  0.00    +0.000 A 
ATOM      5  C   UNL     1      -7.296   2.784 128.407  0.00  0.00    +0.000 A 
ATOM      6  N   UNL     1      -7.417   4.099 128.266  0.00  0.00    +0.000 NA
ATOM      7  C   UNL     1      -8.462   4.678 128.887  0.00  0.00    +0.000 A 
ATOM      8  C   UNL     1      -9.108   4.145 129.972  0.00  0.00    +0.000 A 
ATOM      9  N   UNL     1      -9.027   2.768 130.102  0.00  0.00    +0.000 NA
ATOM     10  C   UNL     1      -8.193   2.018 129.184  0.00  0.00    +0.000 A 
ATOM     11  C   UNL     1      -8.128   0.584 128.821  0.00  0.00    +0.000 A 
BRANCH   8  12
ATOM     12  C   UNL     1      -9.960   5.074 130.780  0.00  0.00    +0.000 A 
ATOM     13  C   UNL     1     -11.309   5.346 130.614  0.00  0.00    +0.000 A 
ATOM     14  N   UNL     1     -11.640   6.348 131.499  0.00  0.00    +0.000 N 
ATOM     15  C   UNL     1     -12.753   7.267 131.384  0.00  0.00    +0.000 C 
ATOM     16  N   UNL     1     -10.708   6.531 132.448  0.00  0.00    +0.000 NA
ATOM     17  C   UNL     1      -9.708   5.735 132.043  0.00  0.00    +0.000 A 
ENDBRANCH   8  12
ENDBRANCH   1   2
BRANCH   1  20
ATOM     18  C   UNL     1      -8.528  -1.984 123.838  0.00  0.00    +0.000 A 
ATOM     19  C   UNL     1      -8.488  -1.822 125.224  0.00  0.00    +0.000 A 
ATOM     20  C   UNL     1      -7.329  -1.829 126.034  0.00  0.00    +0.000 A 
ATOM     21  C   UNL     1      -6.209  -2.301 125.344  0.00  0.00    +0.000 A 
ATOM     22  C   UNL     1      -6.215  -2.503 123.946  0.00  0.00    +0.000 A 
ATOM     23  C   UNL     1      -7.368  -2.291 123.187  0.00  0.00    +0.000 A 
BRANCH  18  25
ATOM     24  C   UNL     1      -9.761  -0.471 122.496  0.00  0.00    +0.000 C 
ATOM     25  O   UNL     1      -9.724  -1.680 123.243  0.00  0.00    +0.000 OA
ENDBRANCH  18  25
BRANCH  22  26
ATOM     26  O   UNL     1      -5.006  -2.864 123.410  0.00  0.00    +0.000 OA
ATOM     27  C   UNL     1      -4.544  -4.148 123.808  0.00  0.00    +0.000 C 
ENDBRANCH  22  26
ENDBRANCH   1  20
BRANCH   1  28
ATOM     28  C   UNL     1      -7.100  -2.367 128.591  0.00  0.00    +0.000 C 
BRANCH  28  29
ATOM     29  C   UNL     1      -5.748  -2.376 129.335  0.00  0.00    +0.000 C 
BRANCH  29  30
ATOM     30  N   UNL     1      -4.416  -2.158 128.756  0.00  0.00    +0.000 NA
ATOM     31  H   UNL     1      -4.240  -1.152 128.730  0.00  0.00    +0.000 HD
BRANCH  30  32
ATOM     32  C   UNL     1      -3.377  -2.767 129.649  0.00  0.00    +0.000 C 
ATOM     33  C   UNL     1      -3.881  -3.258 131.020  0.00  0.00    +0.000 C 
ATOM     34  C   UNL     1      -2.763  -3.951 128.906  0.00  0.00    +0.000 C 
ENDBRANCH  30  32
ENDBRANCH  29  30
ENDBRANCH  28  29
ENDBRANCH   1  28
TORSDOF 9
ENDMDL
MODEL 5
REMARK VINA RESULT:      -7.3      2.102      3.261
REMARK  Name = Erdafitinib
REMARK  14 active torsions:
REMARK  status: ('A' for Active; 'I' for Inactive)
REMARK    1  A    between atoms: C_1  and  O_2
REMARK    2  A    between atoms: O_2  and  C_3
REMARK    3  A    between atoms: C_5  and  N_11
REMARK    4  A    between atoms: C_7  and  O_8
REMARK    5  A    between atoms: O_8  and  C_9
REMARK    6  A    between atoms: N_11  and  C_12
REMARK    7  A    between atoms: N_11  and  C_18
REMARK    8  A    between atoms: C_12  and  C_13
REMARK    9  A    between atoms: C_13  and  N_14
REMARK   10  A    between atoms: N_14  and  C_15
REMARK   11  A    between atoms: C_15  and  C_16
REMARK   12  A    between atoms: C_15  and  C_17
REMARK   13  A    between atoms: C_24  and  C_28
REMARK   14  A    between atoms: N_30  and  C_31
REMARK                            x       y       z     vdW  Elec       q    Type
REMARK                         _______ _______ _______ _____ _____    ______ ____
ROOT
ATOM      1  N   UNL     1      -6.852   0.335 128.247  0.00  0.00    +0.000 N 
ENDROOT
BRANCH   1   2
ATOM      2  C   UNL     1      -7.647   1.119 129.194  0.00  0.00    +0.000 A 
ATOM      3  C   UNL     1      -7.444   0.904 130.555  0.00  0.00    +0.000 A 
ATOM      4  C   UNL     1      -8.072   1.719 131.495  0.00  0.00    +0.000 A 
ATOM      5  C   UNL     1      -8.872   2.793 131.150  0.00  0.00    +0.000 A 
ATOM      6  N   UNL     1      -9.055   3.667 132.133  0.00  0.00    +0.000 NA
ATOM      7  C   UNL     1      -9.667   4.820 131.807  0.00  0.00    +0.000 A 
ATOM      8  C   UNL     1     -10.492   4.978 130.724  0.00  0.00    +0.000 A 
ATOM      9  N   UNL     1     -10.278   4.101 129.673  0.00  0.00    +0.000 NA
ATOM     10  C   UNL     1      -9.311   3.033 129.829  0.00  0.00    +0.000 A 
ATOM     11  C   UNL     1      -8.608   2.158 128.863  0.00  0.00    +0.000 A 
BRANCH   8  12
ATOM     12  C   UNL     1     -11.396   6.173 130.726  0.00  0.00    +0.000 A 
ATOM     13  C   UNL     1     -11.864   6.882 129.631  0.00  0.00    +0.000 A 
ATOM     14  N   UNL     1     -12.559   7.969 130.112  0.00  0.00    +0.000 N 
ATOM     15  C   UNL     1     -12.816   9.208 129.408  0.00  0.00    +0.000 C 
ATOM     16  N   UNL     1     -12.861   7.858 131.415  0.00  0.00    +0.000 NA
ATOM     17  C   UNL     1     -12.196   6.754 131.783  0.00  0.00    +0.000 A 
ENDBRANCH   8  12
ENDBRANCH   1   2
BRANCH   1  20
ATOM     18  C   UNL     1      -8.627  -2.462 126.316  0.00  0.00    +0.000 A 
ATOM     19  C   UNL     1      -7.883  -1.788 127.287  0.00  0.00    +0.000 A 
ATOM     20  C   UNL     1      -7.373  -0.473 127.186  0.00  0.00    +0.000 A 
ATOM     21  C   UNL     1      -7.444   0.019 125.880  0.00  0.00    +0.000 A 
ATOM     22  C   UNL     1      -8.164  -0.644 124.863  0.00  0.00    +0.000 A 
ATOM     23  C   UNL     1      -8.800  -1.865 125.101  0.00  0.00    +0.000 A 
BRANCH  18  25
ATOM     24  C   UNL     1      -8.971  -4.011 128.075  0.00  0.00    +0.000 C 
ATOM     25  O   UNL     1      -9.232  -3.617 126.734  0.00  0.00    +0.000 OA
ENDBRANCH  18  25
BRANCH  22  26
ATOM     26  O   UNL     1      -8.223   0.024 123.667  0.00  0.00    +0.000 OA
ATOM     27  C   UNL     1      -7.236   1.035 123.506  0.00  0.00    +0.000 C 
ENDBRANCH  22  26
ENDBRANCH   1  20
BRANCH   1  28
ATOM     28  C   UNL     1      -5.348   0.495 128.543  0.00  0.00    +0.000 C 
BRANCH  28  29
ATOM     29  C   UNL     1      -4.635   1.687 127.870  0.00  0.00    +0.000 C 
BRANCH  29  30
ATOM     30  N   UNL     1      -3.399   2.345 128.312  0.00  0.00    +0.000 NA
ATOM     31  H   UNL     1      -2.644   1.657 128.284  0.00  0.00    +0.000 HD
BRANCH  30  32
ATOM     32  C   UNL     1      -3.040   3.436 127.349  0.00  0.00    +0.000 C 
ATOM     33  C   UNL     1      -2.703   4.800 127.980  0.00  0.00    +0.000 C 
ATOM     34  C   UNL     1      -1.833   2.964 126.542  0.00  0.00    +0.000 C 
ENDBRANCH  30  32
ENDBRANCH  29  30
ENDBRANCH  28  29
ENDBRANCH   1  28
TORSDOF 9
ENDMDL
MODEL 6
REMARK VINA RESULT:      -7.2      3.874      5.280
REMARK  Name = Erdafitinib
REMARK  14 active torsions:
REMARK  status: ('A' for Active; 'I' for Inactive)
REMARK    1  A    between atoms: C_1  and  O_2
REMARK    2  A    between atoms: O_2  and  C_3
REMARK    3  A    between atoms: C_5  and  N_11
REMARK    4  A    between atoms: C_7  and  O_8
REMARK    5  A    between atoms: O_8  and  C_9
REMARK    6  A    between atoms: N_11  and  C_12
REMARK    7  A    between atoms: N_11  and  C_18
REMARK    8  A    between atoms: C_12  and  C_13
REMARK    9  A    between atoms: C_13  and  N_14
REMARK   10  A    between atoms: N_14  and  C_15
REMARK   11  A    between atoms: C_15  and  C_16
REMARK   12  A    between atoms: C_15  and  C_17
REMARK   13  A    between atoms: C_24  and  C_28
REMARK   14  A    between atoms: N_30  and  C_31
REMARK                            x       y       z     vdW  Elec       q    Type
REMARK                         _______ _______ _______ _____ _____    ______ ____
ROOT
ATOM      1  N   UNL     1      -7.226   1.398 126.682  0.00  0.00    +0.000 N 
ENDROOT
BRANCH   1   2
ATOM      2  C   UNL     1      -5.973   2.044 127.080  0.00  0.00    +0.000 A 
ATOM      3  C   UNL     1      -4.889   1.962 126.210  0.00  0.00    +0.000 A 
ATOM      4  C   UNL     1      -3.721   2.674 126.475  0.00  0.00    +0.000 A 
ATOM      5  C   UNL     1      -3.583   3.522 127.559  0.00  0.00    +0.000 A 
ATOM      6  N   UNL     1      -2.587   4.393 127.438  0.00  0.00    +0.000 NA
ATOM      7  C   UNL     1      -2.518   5.361 128.370  0.00  0.00    +0.000 A 
ATOM      8  C   UNL     1      -3.063   5.268 129.624  0.00  0.00    +0.000 A 
ATOM      9  N   UNL     1      -4.133   4.397 129.749  0.00  0.00    +0.000 NA
ATOM     10  C   UNL     1      -4.517   3.579 128.615  0.00  0.00    +0.000 A 
ATOM     11  C   UNL     1      -5.748   2.824 128.285  0.00  0.00    +0.000 A 
BRANCH   8  12
ATOM     12  C   UNL     1      -2.565   6.231 130.656  0.00  0.00    +0.000 A 
ATOM     13  C   UNL     1      -1.268   6.375 131.124  0.00  0.00    +0.000 A 
ATOM     14  N   UNL     1      -1.300   7.292 132.151  0.00  0.00    +0.000 N 
ATOM     15  C   UNL     1      -0.337   7.418 133.225  0.00  0.00    +0.000 C 
ATOM     16  N   UNL     1      -2.442   7.997 132.183  0.00  0.00    +0.000 NA
ATOM     17  C   UNL     1      -3.195   7.389 131.255  0.00  0.00    +0.000 A 
ENDBRANCH   8  12
ENDBRANCH   1   2
BRANCH   1  20
ATOM     18  C   UNL     1      -7.376  -2.297 127.694  0.00  0.00    +0.000 A 
ATOM     19  C   UNL     1      -6.934  -0.981 127.547  0.00  0.00    +0.000 A 
ATOM     20  C   UNL     1      -7.469  -0.012 126.666  0.00  0.00    +0.000 A 
ATOM     21  C   UNL     1      -8.332  -0.579 125.724  0.00  0.00    +0.000 A 
ATOM     22  C   UNL     1      -8.783  -1.914 125.822  0.00  0.00    +0.000 A 
ATOM     23  C   UNL     1      -8.340  -2.756 126.844  0.00  0.00    +0.000 A 
BRANCH  18  25
ATOM     24  C   UNL     1      -7.821  -3.261 129.811  0.00  0.00    +0.000 C 
ATOM     25  O   UNL     1      -6.885  -2.966 128.783  0.00  0.00    +0.000 OA
ENDBRANCH  18  25
BRANCH  22  26
ATOM     26  O   UNL     1      -9.709  -2.281 124.880  0.00  0.00    +0.000 OA
ATOM     27  C   UNL     1      -9.268  -3.291 123.980  0.00  0.00    +0.000 C 
ENDBRANCH  22  26
ENDBRANCH   1  20
BRANCH   1  28
ATOM     28  C   UNL     1      -8.272   2.454 126.278  0.00  0.00    +0.000 C 
BRANCH  28  29
ATOM     29  C   UNL     1      -8.484   2.674 124.765  0.00  0.00    +0.000 C 
BRANCH  29  30
ATOM     30  N   UNL     1      -8.112   3.858 123.980  0.00  0.00    +0.000 NA
ATOM     31  H   UNL     1      -7.725   4.555 124.619  0.00  0.00    +0.000 HD
BRANCH  30  32
ATOM     32  C   UNL     1      -7.027   3.494 123.012  0.00  0.00    +0.000 C 
ATOM     33  C   UNL     1      -5.643   4.107 123.300  0.00  0.00    +0.000 C 
ATOM     34  C   UNL     1      -6.893   1.974 123.014  0.00  0.00    +0.000 C 
ENDBRANCH  30  32
ENDBRANCH  29  30
ENDBRANCH  28  29
ENDBRANCH   1  28
TORSDOF 9
ENDMDL
MODEL 7
REMARK VINA RESULT:      -7.2      1.736      4.134
REMARK  Name = Erdafitinib
REMARK  14 active torsions:
REMARK  status: ('A' for Active; 'I' for Inactive)
REMARK    1  A    between atoms: C_1  and  O_2
REMARK    2  A    between atoms: O_2  and  C_3
REMARK    3  A    between atoms: C_5  and  N_11
REMARK    4  A    between atoms: C_7  and  O_8
REMARK    5  A    between atoms: O_8  and  C_9
REMARK    6  A    between atoms: N_11  and  C_12
REMARK    7  A    between atoms: N_11  and  C_18
REMARK    8  A    between atoms: C_12  and  C_13
REMARK    9  A    between atoms: C_13  and  N_14
REMARK   10  A    between atoms: N_14  and  C_15
REMARK   11  A    between atoms: C_15  and  C_16
REMARK   12  A    between atoms: C_15  and  C_17
REMARK   13  A    between atoms: C_24  and  C_28
REMARK   14  A    between atoms: N_30  and  C_31
REMARK                            x       y       z     vdW  Elec       q    Type
REMARK                         _______ _______ _______ _____ _____    ______ ____
ROOT
ATOM      1  N   UNL     1      -6.881   0.341 127.798  0.00  0.00    +0.000 N 
ENDROOT
BRANCH   1   2
ATOM      2  C   UNL     1      -7.527   1.146 128.837  0.00  0.00    +0.000 A 
ATOM      3  C   UNL     1      -7.044   1.044 130.138  0.00  0.00    +0.000 A 
ATOM      4  C   UNL     1      -7.529   1.888 131.135  0.00  0.00    +0.000 A 
ATOM      5  C   UNL     1      -8.456   2.886 130.894  0.00  0.00    +0.000 A 
ATOM      6  N   UNL     1      -8.502   3.818 131.839  0.00  0.00    +0.000 NA
ATOM      7  C   UNL     1      -9.247   4.907 131.574  0.00  0.00    +0.000 A 
ATOM      8  C   UNL     1     -10.279   4.938 130.673  0.00  0.00    +0.000 A 
ATOM      9  N   UNL     1     -10.216   3.999 129.657  0.00  0.00    +0.000 NA
ATOM     10  C   UNL     1      -9.164   3.002 129.678  0.00  0.00    +0.000 A 
ATOM     11  C   UNL     1      -8.605   2.101 128.644  0.00  0.00    +0.000 A 
BRANCH   8  12
ATOM     12  C   UNL     1     -11.247   6.075 130.786  0.00  0.00    +0.000 A 
ATOM     13  C   UNL     1     -11.761   6.854 129.761  0.00  0.00    +0.000 A 
ATOM     14  N   UNL     1     -12.512   7.853 130.340  0.00  0.00    +0.000 N 
ATOM     15  C   UNL     1     -12.841   9.134 129.752  0.00  0.00    +0.000 C 
ATOM     16  N   UNL     1     -12.798   7.608 131.629  0.00  0.00    +0.000 NA
ATOM     17  C   UNL     1     -12.070   6.513 131.893  0.00  0.00    +0.000 A 
ENDBRANCH   8  12
ENDBRANCH   1   2
BRANCH   1  20
ATOM     18  C   UNL     1      -7.400   0.288 123.999  0.00  0.00    +0.000 A 
ATOM     19  C   UNL     1      -7.083   0.725 125.287  0.00  0.00    +0.000 A 
ATOM     20  C   UNL     1      -7.415   0.072 126.497  0.00  0.00    +0.000 A 
ATOM     21  C   UNL     1      -8.358  -0.942 126.305  0.00  0.00    +0.000 A 
ATOM     22  C   UNL     1      -8.726  -1.395 125.019  0.00  0.00    +0.000 A 
ATOM     23  C   UNL     1      -8.202  -0.808 123.865  0.00  0.00    +0.000 A 
BRANCH  18  25
ATOM     24  C   UNL     1      -7.014   2.329 122.861  0.00  0.00    +0.000 C 
ATOM     25  O   UNL     1      -6.754   0.937 122.981  0.00  0.00    +0.000 OA
ENDBRANCH  18  25
BRANCH  22  26
ATOM     26  O   UNL     1      -9.580  -2.468 125.007  0.00  0.00    +0.000 OA
ATOM     27  C   UNL     1      -9.419  -3.339 123.894  0.00  0.00    +0.000 C 
ENDBRANCH  22  26
ENDBRANCH   1  20
BRANCH   1  28
ATOM     28  C   UNL     1      -5.522  -0.190 128.293  0.00  0.00    +0.000 C 
BRANCH  28  29
ATOM     29  C   UNL     1      -5.214  -1.675 128.009  0.00  0.00    +0.000 C 
BRANCH  29  30
ATOM     30  N   UNL     1      -6.092  -2.826 128.257  0.00  0.00    +0.000 NA
ATOM     31  H   UNL     1      -5.538  -3.678 128.152  0.00  0.00    +0.000 HD
BRANCH  30  32
ATOM     32  C   UNL     1      -6.580  -2.786 129.673  0.00  0.00    +0.000 C 
ATOM     33  C   UNL     1      -8.091  -2.538 129.852  0.00  0.00    +0.000 C 
ATOM     34  C   UNL     1      -6.229  -4.121 130.324  0.00  0.00    +0.000 C 
ENDBRANCH  30  32
ENDBRANCH  29  30
ENDBRANCH  28  29
ENDBRANCH   1  28
TORSDOF 9
ENDMDL
MODEL 8
REMARK VINA RESULT:      -7.2      2.827      4.113
REMARK  Name = Erdafitinib
REMARK  14 active torsions:
REMARK  status: ('A' for Active; 'I' for Inactive)
REMARK    1  A    between atoms: C_1  and  O_2
REMARK    2  A    between atoms: O_2  and  C_3
REMARK    3  A    between atoms: C_5  and  N_11
REMARK    4  A    between atoms: C_7  and  O_8
REMARK    5  A    between atoms: O_8  and  C_9
REMARK    6  A    between atoms: N_11  and  C_12
REMARK    7  A    between atoms: N_11  and  C_18
REMARK    8  A    between atoms: C_12  and  C_13
REMARK    9  A    between atoms: C_13  and  N_14
REMARK   10  A    between atoms: N_14  and  C_15
REMARK   11  A    between atoms: C_15  and  C_16
REMARK   12  A    between atoms: C_15  and  C_17
REMARK   13  A    between atoms: C_24  and  C_28
REMARK   14  A    between atoms: N_30  and  C_31
REMARK                            x       y       z     vdW  Elec       q    Type
REMARK                         _______ _______ _______ _____ _____    ______ ____
ROOT
ATOM      1  N   UNL     1      -6.816   0.839 130.394  0.00  0.00    +0.000 N 
ENDROOT
BRANCH   1   2
ATOM      2  C   UNL     1      -7.802   1.835 130.820  0.00  0.00    +0.000 A 
ATOM      3  C   UNL     1      -7.884   2.135 132.177  0.00  0.00    +0.000 A 
ATOM      4  C   UNL     1      -8.704   3.171 132.618  0.00  0.00    +0.000 A 
ATOM      5  C   UNL     1      -9.429   3.979 131.760  0.00  0.00    +0.000 A 
ATOM      6  N   UNL     1      -9.823   5.125 132.302  0.00  0.00    +0.000 NA
ATOM      7  C   UNL     1     -10.368   6.030 131.468  0.00  0.00    +0.000 A 
ATOM      8  C   UNL     1     -10.952   5.721 130.267  0.00  0.00    +0.000 A 
ATOM      9  N   UNL     1     -10.512   4.551 129.670  0.00  0.00    +0.000 NA
ATOM     10  C   UNL     1      -9.585   3.696 130.385  0.00  0.00    +0.000 A 
ATOM     11  C   UNL     1      -8.685   2.601 129.956  0.00  0.00    +0.000 A 
BRANCH   8  12
ATOM     12  C   UNL     1     -11.851   6.754 129.662  0.00  0.00    +0.000 A 
ATOM     13  C   UNL     1     -11.663   8.127 129.631  0.00  0.00    +0.000 A 
ATOM     14  N   UNL     1     -12.798   8.686 129.086  0.00  0.00    +0.000 N 
ATOM     15  C   UNL     1     -13.266  10.043 129.273  0.00  0.00    +0.000 C 
ATOM     16  N   UNL     1     -13.573   7.784 128.463  0.00  0.00    +0.000 NA
ATOM     17  C   UNL     1     -12.985   6.620 128.772  0.00  0.00    +0.000 A 
ENDBRANCH   8  12
ENDBRANCH   1   2
BRANCH   1  20
ATOM     18  C   UNL     1      -7.630  -2.335 128.401  0.00  0.00    +0.000 A 
ATOM     19  C   UNL     1      -7.609  -1.003 128.821  0.00  0.00    +0.000 A 
ATOM     20  C   UNL     1      -7.100  -0.522 130.050  0.00  0.00    +0.000 A 
ATOM     21  C   UNL     1      -6.858  -1.555 130.959  0.00  0.00    +0.000 A 
ATOM     22  C   UNL     1      -6.895  -2.915 130.582  0.00  0.00    +0.000 A 
ATOM     23  C   UNL     1      -7.232  -3.299 129.282  0.00  0.00    +0.000 A 
BRANCH  18  25
ATOM     24  C   UNL     1      -8.958  -3.468 126.801  0.00  0.00    +0.000 C 
ATOM     25  O   UNL     1      -7.926  -2.531 127.079  0.00  0.00    +0.000 OA
ENDBRANCH  18  25
BRANCH  22  26
ATOM     26  O   UNL     1      -6.530  -3.798 131.565  0.00  0.00    +0.000 OA
ATOM     27  C   UNL     1      -5.475  -4.681 131.204  0.00  0.00    +0.000 C 
ENDBRANCH  22  26
ENDBRANCH   1  20
BRANCH   1  28
ATOM     28  C   UNL     1      -5.405   1.456 130.358  0.00  0.00    +0.000 C 
BRANCH  28  29
ATOM     29  C   UNL     1      -4.994   2.166 129.051  0.00  0.00    +0.000 C 
BRANCH  29  30
ATOM     30  N   UNL     1      -3.815   1.884 128.222  0.00  0.00    +0.000 NA
ATOM     31  H   UNL     1      -4.133   1.460 127.349  0.00  0.00    +0.000 HD
BRANCH  30  32
ATOM     32  C   UNL     1      -3.134   3.171 127.867  0.00  0.00    +0.000 C 
ATOM     33  C   UNL     1      -1.898   3.043 126.955  0.00  0.00    +0.000 C 
ATOM     34  C   UNL     1      -4.159   4.062 127.171  0.00  0.00    +0.000 C 
ENDBRANCH  30  32
ENDBRANCH  29  30
ENDBRANCH  28  29
ENDBRANCH   1  28
TORSDOF 9
ENDMDL
MODEL 9
REMARK VINA RESULT:      -7.2      3.173      5.108
REMARK  Name = Erdafitinib
REMARK  14 active torsions:
REMARK  status: ('A' for Active; 'I' for Inactive)
REMARK    1  A    between atoms: C_1  and  O_2
REMARK    2  A    between atoms: O_2  and  C_3
REMARK    3  A    between atoms: C_5  and  N_11
REMARK    4  A    between atoms: C_7  and  O_8
REMARK    5  A    between atoms: O_8  and  C_9
REMARK    6  A    between atoms: N_11  and  C_12
REMARK    7  A    between atoms: N_11  and  C_18
REMARK    8  A    between atoms: C_12  and  C_13
REMARK    9  A    between atoms: C_13  and  N_14
REMARK   10  A    between atoms: N_14  and  C_15
REMARK   11  A    between atoms: C_15  and  C_16
REMARK   12  A    between atoms: C_15  and  C_17
REMARK   13  A    between atoms: C_24  and  C_28
REMARK   14  A    between atoms: N_30  and  C_31
REMARK                            x       y       z     vdW  Elec       q    Type
REMARK                         _______ _______ _______ _____ _____    ______ ____
ROOT
ATOM      1  N   UNL     1      -7.129   0.974 131.419  0.00  0.00    +0.000 N 
ENDROOT
BRANCH   1   2
ATOM      2  C   UNL     1      -8.095   2.047 131.667  0.00  0.00    +0.000 A 
ATOM      3  C   UNL     1      -8.190   2.555 132.960  0.00  0.00    +0.000 A 
ATOM      4  C   UNL     1      -8.991   3.665 133.219  0.00  0.00    +0.000 A 
ATOM      5  C   UNL     1      -9.682   4.345 132.233  0.00  0.00    +0.000 A 
ATOM      6  N   UNL     1     -10.056   5.571 132.584  0.00  0.00    +0.000 NA
ATOM      7  C   UNL     1     -10.567   6.347 131.610  0.00  0.00    +0.000 A 
ATOM      8  C   UNL     1     -11.139   5.868 130.460  0.00  0.00    +0.000 A 
ATOM      9  N   UNL     1     -10.720   4.609 130.060  0.00  0.00    +0.000 NA
ATOM     10  C   UNL     1      -9.826   3.856 130.916  0.00  0.00    +0.000 A 
ATOM     11  C   UNL     1      -8.946   2.688 130.679  0.00  0.00    +0.000 A 
BRANCH   8  12
ATOM     12  C   UNL     1     -12.004   6.814 129.685  0.00  0.00    +0.000 A 
ATOM     13  C   UNL     1     -11.854   8.186 129.557  0.00  0.00    +0.000 A 
ATOM     14  N   UNL     1     -12.945   8.656 128.859  0.00  0.00    +0.000 N 
ATOM     15  C   UNL     1     -13.468  10.005 128.885  0.00  0.00    +0.000 C 
ATOM     16  N   UNL     1     -13.628   7.678 128.243  0.00  0.00    +0.000 NA
ATOM     17  C   UNL     1     -13.039   6.566 128.705  0.00  0.00    +0.000 A 
ENDBRANCH   8  12
ENDBRANCH   1   2
BRANCH   1  20
ATOM     18  C   UNL     1      -7.915  -2.481 129.954  0.00  0.00    +0.000 A 
ATOM     19  C   UNL     1      -7.873  -1.097 130.135  0.00  0.00    +0.000 A 
ATOM     20  C   UNL     1      -7.439  -0.418 131.297  0.00  0.00    +0.000 A 
ATOM     21  C   UNL     1      -7.307  -1.279 132.390  0.00  0.00    +0.000 A 
ATOM     22  C   UNL     1      -7.369  -2.683 132.254  0.00  0.00    +0.000 A 
ATOM     23  C   UNL     1      -7.623  -3.283 131.019  0.00  0.00    +0.000 A 
BRANCH  18  25
ATOM     24  C   UNL     1      -7.750  -1.986 127.644  0.00  0.00    +0.000 C 
ATOM     25  O   UNL     1      -8.119  -2.901 128.667  0.00  0.00    +0.000 OA
ENDBRANCH  18  25
BRANCH  22  26
ATOM     26  O   UNL     1      -7.113  -3.386 133.403  0.00  0.00    +0.000 OA
ATOM     27  C   UNL     1      -8.256  -3.630 134.213  0.00  0.00    +0.000 C 
ENDBRANCH  22  26
ENDBRANCH   1  20
BRANCH   1  28
ATOM     28  C   UNL     1      -5.704   1.549 131.299  0.00  0.00    +0.000 C 
BRANCH  28  29
ATOM     29  C   UNL     1      -4.945   1.249 129.989  0.00  0.00    +0.000 C 
BRANCH  29  30
ATOM     30  N   UNL     1      -3.864   0.275 129.794  0.00  0.00    +0.000 NA
ATOM     31  H   UNL     1      -3.056   0.583 130.338  0.00  0.00    +0.000 HD
BRANCH  30  32
ATOM     32  C   UNL     1      -4.286  -1.056 130.340  0.00  0.00    +0.000 C 
ATOM     33  C   UNL     1      -4.173  -2.243 129.365  0.00  0.00    +0.000 C 
ATOM     34  C   UNL     1      -3.422  -1.350 131.564  0.00  0.00    +0.000 C 
ENDBRANCH  30  32
ENDBRANCH  29  30
ENDBRANCH  28  29
ENDBRANCH   1  28
TORSDOF 9
ENDMDL
