MODEL 1
REMARK VINA RESULT:      -5.3      0.000      0.000
REMARK  Name = Erdosteine
REMARK  6 active torsions:
REMARK  status: ('A' for Active; 'I' for Inactive)
REMARK    1  A    between atoms: O_1  and  C_2
REMARK    2  A    between atoms: C_2  and  C_4
REMARK    3  A    between atoms: C_4  and  S_5
REMARK    4  A    between atoms: S_5  and  C_6
REMARK    5  A    between atoms: C_6  and  C_7
REMARK    6  A    between atoms: N_9  and  C_10
REMARK                            x       y       z     vdW  Elec       q    Type
REMARK                         _______ _______ _______ _____ _____    ______ ____
ROOT
ATOM      1  C   UNL     1     -11.421   6.435 131.445  0.00  0.00    +0.000 C 
ATOM      2  O   UNL     1     -10.755   6.476 132.478  0.00  0.00    +0.000 OA
ATOM      3  N   UNL     1     -11.049   5.579 130.415  0.00  0.00    +0.000 N 
ATOM      4  H   UNL     1     -11.759   5.277 129.761  0.00  0.00    +0.000 HD
ENDROOT
BRANCH   3   5
ATOM      5  C   UNL     1      -9.835   4.757 130.589  0.00  0.00    +0.000 C 
ATOM      6  C   UNL     1     -10.183   3.294 130.894  0.00  0.00    +0.000 C 
ATOM      7  C   UNL     1      -8.945   2.436 130.669  0.00  0.00    +0.000 C 
ATOM      8  S   UNL     1      -8.145   3.110 129.206  0.00  0.00    +0.000 S 
ATOM      9  C   UNL     1      -8.990   4.656 129.297  0.00  0.00    +0.000 C 
ATOM     10  O   UNL     1      -8.892   5.461 128.396  0.00  0.00    +0.000 OA
ENDBRANCH   3   5
BRANCH   1  11
ATOM     11  C   UNL     1     -12.698   7.290 131.225  0.00  0.00    +0.000 C 
BRANCH  11  12
ATOM     12  S   UNL     1     -13.026   7.335 129.416  0.00  0.00    +0.000 S 
BRANCH  12  13
ATOM     13  C   UNL     1     -12.203   8.837 128.770  0.00  0.00    +0.000 C 
BRANCH  13  14
ATOM     14  C   UNL     1     -10.925   8.398 128.024  0.00  0.00    +0.000 C 
ATOM     15  O   UNL     1     -10.807   8.269 126.814  0.00  0.00    +0.000 OA
BRANCH  14  16
ATOM     16  O   UNL     1      -9.864   8.140 128.828  0.00  0.00    +0.000 OA
ATOM     17  H   UNL     1      -9.071   8.692 128.715  0.00  0.00    +0.000 HD
ENDBRANCH  14  16
ENDBRANCH  13  14
ENDBRANCH  12  13
ENDBRANCH  11  12
ENDBRANCH   1  11
TORSDOF 6
ENDMDL
MODEL 2
REMARK VINA RESULT:      -5.0      2.722      5.722
REMARK  Name = Erdosteine
REMARK  6 active torsions:
REMARK  status: ('A' for Active; 'I' for Inactive)
REMARK    1  A    between atoms: O_1  and  C_2
REMARK    2  A    between atoms: C_2  and  C_4
REMARK    3  A    between atoms: C_4  and  S_5
REMARK    4  A    between atoms: S_5  and  C_6
REMARK    5  A    between atoms: C_6  and  C_7
REMARK    6  A    between atoms: N_9  and  C_10
REMARK                            x       y       z     vdW  Elec       q    Type
REMARK                         _______ _______ _______ _____ _____    ______ ____
ROOT
ATOM      1  C   UNL     1      -9.385   6.441 131.477  0.00  0.00    +0.000 C 
ATOM      2  O   UNL     1     -10.220   6.477 132.378  0.00  0.00    +0.000 OA
ATOM      3  N   UNL     1      -9.716   6.898 130.207  0.00  0.00    +0.000 N 
ATOM      4  H   UNL     1      -8.970   7.210 129.598  0.00  0.00    +0.000 HD
ENDROOT
BRANCH   3   5
ATOM      5  C   UNL     1     -11.087   7.394 129.974  0.00  0.00    +0.000 C 
ATOM      6  C   UNL     1     -11.120   8.471 128.881  0.00  0.00    +0.000 C 
ATOM      7  C   UNL     1     -12.557   8.651 128.410  0.00  0.00    +0.000 C 
ATOM      8  S   UNL     1     -13.266   6.998 128.369  0.00  0.00    +0.000 S 
ATOM      9  C   UNL     1     -12.033   6.302 129.420  0.00  0.00    +0.000 C 
ATOM     10  O   UNL     1     -11.986   5.104 129.599  0.00  0.00    +0.000 OA
ENDBRANCH   3   5
BRANCH   1  11
ATOM     11  C   UNL     1      -7.937   5.920 131.683  0.00  0.00    +0.000 C 
BRANCH  11  12
ATOM     12  S   UNL     1      -7.707   5.628 133.483  0.00  0.00    +0.000 S 
BRANCH  12  13
ATOM     13  C   UNL     1      -7.657   3.813 133.720  0.00  0.00    +0.000 C 
BRANCH  13  14
ATOM     14  C   UNL     1      -9.072   3.257 133.453  0.00  0.00    +0.000 C 
ATOM     15  O   UNL     1      -9.341   2.251 132.814  0.00  0.00    +0.000 OA
BRANCH  14  16
ATOM     16  O   UNL     1     -10.076   3.990 133.996  0.00  0.00    +0.000 OA
ATOM     17  H   UNL     1     -10.207   3.929 134.957  0.00  0.00    +0.000 HD
ENDBRANCH  14  16
ENDBRANCH  13  14
ENDBRANCH  12  13
ENDBRANCH  11  12
ENDBRANCH   1  11
TORSDOF 6
ENDMDL
MODEL 3
REMARK VINA RESULT:      -4.9      2.250      2.904
REMARK  Name = Erdosteine
REMARK  6 active torsions:
REMARK  status: ('A' for Active; 'I' for Inactive)
REMARK    1  A    between atoms: O_1  and  C_2
REMARK    2  A    between atoms: C_2  and  C_4
REMARK    3  A    between atoms: C_4  and  S_5
REMARK    4  A    between atoms: S_5  and  C_6
REMARK    5  A    between atoms: C_6  and  C_7
REMARK    6  A    between atoms: N_9  and  C_10
REMARK                            x       y       z     vdW  Elec       q    Type
REMARK                         _______ _______ _______ _____ _____    ______ ____
ROOT
ATOM      1  C   UNL     1     -11.317   6.120 130.234  0.00  0.00    +0.000 C 
ATOM      2  O   UNL     1     -11.081   5.070 129.640  0.00  0.00    +0.000 OA
ATOM      3  N   UNL     1     -10.320   6.727 130.989  0.00  0.00    +0.000 N 
ATOM      4  H   UNL     1     -10.383   7.723 131.157  0.00  0.00    +0.000 HD
ENDROOT
BRANCH   3   5
ATOM      5  C   UNL     1      -9.002   6.065 131.074  0.00  0.00    +0.000 C 
ATOM      6  C   UNL     1      -7.854   7.070 130.903  0.00  0.00    +0.000 C 
ATOM      7  C   UNL     1      -6.562   6.428 131.388  0.00  0.00    +0.000 C 
ATOM      8  S   UNL     1      -7.007   5.482 132.852  0.00  0.00    +0.000 S 
ATOM      9  C   UNL     1      -8.728   5.452 132.468  0.00  0.00    +0.000 C 
ATOM     10  O   UNL     1      -9.527   5.021 133.271  0.00  0.00    +0.000 OA
ENDBRANCH   3   5
BRANCH   1  11
ATOM     11  C   UNL     1     -12.691   6.839 130.174  0.00  0.00    +0.000 C 
BRANCH  11  12
ATOM     12  S   UNL     1     -12.997   7.298 128.420  0.00  0.00    +0.000 S 
BRANCH  12  13
ATOM     13  C   UNL     1     -11.570   8.314 127.885  0.00  0.00    +0.000 C 
BRANCH  13  14
ATOM     14  C   UNL     1     -10.821   7.540 126.780  0.00  0.00    +0.000 C 
ATOM     15  O   UNL     1     -10.960   7.690 125.576  0.00  0.00    +0.000 OA
BRANCH  14  16
ATOM     16  O   UNL     1      -9.939   6.616 127.238  0.00  0.00    +0.000 OA
ATOM     17  H   UNL     1      -9.005   6.879 127.299  0.00  0.00    +0.000 HD
ENDBRANCH  14  16
ENDBRANCH  13  14
ENDBRANCH  12  13
ENDBRANCH  11  12
ENDBRANCH   1  11
TORSDOF 6
ENDMDL
MODEL 4
REMARK VINA RESULT:      -4.8      2.302      4.704
REMARK  Name = Erdosteine
REMARK  6 active torsions:
REMARK  status: ('A' for Active; 'I' for Inactive)
REMARK    1  A    between atoms: O_1  and  C_2
REMARK    2  A    between atoms: C_2  and  C_4
REMARK    3  A    between atoms: C_4  and  S_5
REMARK    4  A    between atoms: S_5  and  C_6
REMARK    5  A    between atoms: C_6  and  C_7
REMARK    6  A    between atoms: N_9  and  C_10
REMARK                            x       y       z     vdW  Elec       q    Type
REMARK                         _______ _______ _______ _____ _____    ______ ____
ROOT
ATOM      1  C   UNL     1     -10.429   4.457 130.825  0.00  0.00    +0.000 C 
ATOM      2  O   UNL     1     -11.058   3.726 130.063  0.00  0.00    +0.000 OA
ATOM      3  N   UNL     1     -10.612   5.834 130.770  0.00  0.00    +0.000 N 
ATOM      4  H   UNL     1     -10.401   6.380 131.596  0.00  0.00    +0.000 HD
ENDROOT
BRANCH   3   5
ATOM      5  C   UNL     1     -11.548   6.380 129.767  0.00  0.00    +0.000 C 
ATOM      6  C   UNL     1     -12.251   7.644 130.281  0.00  0.00    +0.000 C 
ATOM      7  C   UNL     1     -12.878   8.372 129.100  0.00  0.00    +0.000 C 
ATOM      8  S   UNL     1     -11.696   8.224 127.752  0.00  0.00    +0.000 S 
ATOM      9  C   UNL     1     -10.833   6.871 128.486  0.00  0.00    +0.000 C 
ATOM     10  O   UNL     1      -9.799   6.468 127.998  0.00  0.00    +0.000 OA
ENDBRANCH   3   5
BRANCH   1  11
ATOM     11  C   UNL     1      -9.432   3.920 131.886  0.00  0.00    +0.000 C 
BRANCH  11  12
ATOM     12  S   UNL     1      -7.736   4.327 131.305  0.00  0.00    +0.000 S 
BRANCH  12  13
ATOM     13  C   UNL     1      -7.267   5.901 132.114  0.00  0.00    +0.000 C 
BRANCH  13  14
ATOM     14  C   UNL     1      -7.046   6.958 131.011  0.00  0.00    +0.000 C 
ATOM     15  O   UNL     1      -5.966   7.383 130.628  0.00  0.00    +0.000 OA
BRANCH  14  16
ATOM     16  O   UNL     1      -8.185   7.432 130.448  0.00  0.00    +0.000 OA
ATOM     17  H   UNL     1      -8.787   7.943 131.016  0.00  0.00    +0.000 HD
ENDBRANCH  14  16
ENDBRANCH  13  14
ENDBRANCH  12  13
ENDBRANCH  11  12
ENDBRANCH   1  11
TORSDOF 6
ENDMDL
MODEL 5
REMARK VINA RESULT:      -4.6      2.236      4.805
REMARK  Name = Erdosteine
REMARK  6 active torsions:
REMARK  status: ('A' for Active; 'I' for Inactive)
REMARK    1  A    between atoms: O_1  and  C_2
REMARK    2  A    between atoms: C_2  and  C_4
REMARK    3  A    between atoms: C_4  and  S_5
REMARK    4  A    between atoms: S_5  and  C_6
REMARK    5  A    between atoms: C_6  and  C_7
REMARK    6  A    between atoms: N_9  and  C_10
REMARK                            x       y       z     vdW  Elec       q    Type
REMARK                         _______ _______ _______ _____ _____    ______ ____
ROOT
ATOM      1  C   UNL     1      -9.344   6.337 131.773  0.00  0.00    +0.000 C 
ATOM      2  O   UNL     1     -10.274   6.508 132.559  0.00  0.00    +0.000 OA
ATOM      3  N   UNL     1      -9.481   6.723 130.445  0.00  0.00    +0.000 N 
ATOM      4  H   UNL     1      -8.643   6.927 129.914  0.00  0.00    +0.000 HD
ENDROOT
BRANCH   3   5
ATOM      5  C   UNL     1     -10.765   7.310 130.012  0.00  0.00    +0.000 C 
ATOM      6  C   UNL     1     -10.572   8.301 128.857  0.00  0.00    +0.000 C 
ATOM      7  C   UNL     1     -11.921   8.561 128.200  0.00  0.00    +0.000 C 
ATOM      8  S   UNL     1     -12.766   6.973 128.177  0.00  0.00    +0.000 S 
ATOM      9  C   UNL     1     -11.733   6.259 129.416  0.00  0.00    +0.000 C 
ATOM     10  O   UNL     1     -11.815   5.078 129.676  0.00  0.00    +0.000 OA
ENDBRANCH   3   5
BRANCH   1  11
ATOM     11  C   UNL     1      -7.984   5.717 132.190  0.00  0.00    +0.000 C 
BRANCH  11  12
ATOM     12  S   UNL     1      -6.937   5.617 130.682  0.00  0.00    +0.000 S 
BRANCH  12  13
ATOM     13  C   UNL     1      -7.178   3.941 129.985  0.00  0.00    +0.000 C 
BRANCH  13  14
ATOM     14  C   UNL     1      -8.346   4.005 128.978  0.00  0.00    +0.000 C 
ATOM     15  O   UNL     1      -8.558   4.905 128.179  0.00  0.00    +0.000 OA
BRANCH  14  16
ATOM     16  O   UNL     1      -9.190   2.945 129.026  0.00  0.00    +0.000 OA
ATOM     17  H   UNL     1     -10.065   3.086 129.427  0.00  0.00    +0.000 HD
ENDBRANCH  14  16
ENDBRANCH  13  14
ENDBRANCH  12  13
ENDBRANCH  11  12
ENDBRANCH   1  11
TORSDOF 6
ENDMDL
MODEL 6
REMARK VINA RESULT:      -4.6      2.227      5.262
REMARK  Name = Erdosteine
REMARK  6 active torsions:
REMARK  status: ('A' for Active; 'I' for Inactive)
REMARK    1  A    between atoms: O_1  and  C_2
REMARK    2  A    between atoms: C_2  and  C_4
REMARK    3  A    between atoms: C_4  and  S_5
REMARK    4  A    between atoms: S_5  and  C_6
REMARK    5  A    between atoms: C_6  and  C_7
REMARK    6  A    between atoms: N_9  and  C_10
REMARK                            x       y       z     vdW  Elec       q    Type
REMARK                         _______ _______ _______ _____ _____    ______ ____
ROOT
ATOM      1  C   UNL     1     -10.268   4.056 130.492  0.00  0.00    +0.000 C 
ATOM      2  O   UNL     1     -11.350   3.554 130.196  0.00  0.00    +0.000 OA
ATOM      3  N   UNL     1     -10.048   5.410 130.266  0.00  0.00    +0.000 N 
ATOM      4  H   UNL     1      -9.346   5.883 130.822  0.00  0.00    +0.000 HD
ENDROOT
BRANCH   3   5
ATOM      5  C   UNL     1     -11.128   6.204 129.646  0.00  0.00    +0.000 C 
ATOM      6  C   UNL     1     -11.558   7.371 130.545  0.00  0.00    +0.000 C 
ATOM      7  C   UNL     1     -12.360   8.363 129.713  0.00  0.00    +0.000 C 
ATOM      8  S   UNL     1     -11.542   8.431 128.113  0.00  0.00    +0.000 S 
ATOM      9  C   UNL     1     -10.680   6.909 128.343  0.00  0.00    +0.000 C 
ATOM     10  O   UNL     1      -9.834   6.558 127.549  0.00  0.00    +0.000 OA
ENDBRANCH   3   5
BRANCH   1  11
ATOM     11  C   UNL     1      -9.108   3.252 131.138  0.00  0.00    +0.000 C 
BRANCH  11  12
ATOM     12  S   UNL     1      -7.623   4.336 131.147  0.00  0.00    +0.000 S 
BRANCH  12  13
ATOM     13  C   UNL     1      -7.270   4.728 132.901  0.00  0.00    +0.000 C 
BRANCH  13  14
ATOM     14  C   UNL     1      -8.567   5.267 133.541  0.00  0.00    +0.000 C 
ATOM     15  O   UNL     1      -9.214   6.229 133.155  0.00  0.00    +0.000 OA
BRANCH  14  16
ATOM     16  O   UNL     1      -8.985   4.578 134.632  0.00  0.00    +0.000 OA
ATOM     17  H   UNL     1      -9.420   5.082 135.340  0.00  0.00    +0.000 HD
ENDBRANCH  14  16
ENDBRANCH  13  14
ENDBRANCH  12  13
ENDBRANCH  11  12
ENDBRANCH   1  11
TORSDOF 6
ENDMDL
MODEL 7
REMARK VINA RESULT:      -4.4      2.002      4.929
REMARK  Name = Erdosteine
REMARK  6 active torsions:
REMARK  status: ('A' for Active; 'I' for Inactive)
REMARK    1  A    between atoms: O_1  and  C_2
REMARK    2  A    between atoms: C_2  and  C_4
REMARK    3  A    between atoms: C_4  and  S_5
REMARK    4  A    between atoms: S_5  and  C_6
REMARK    5  A    between atoms: C_6  and  C_7
REMARK    6  A    between atoms: N_9  and  C_10
REMARK                            x       y       z     vdW  Elec       q    Type
REMARK                         _______ _______ _______ _____ _____    ______ ____
ROOT
ATOM      1  C   UNL     1     -10.351   3.991 130.401  0.00  0.00    +0.000 C 
ATOM      2  O   UNL     1     -11.477   3.529 130.226  0.00  0.00    +0.000 OA
ATOM      3  N   UNL     1     -10.105   5.333 130.136  0.00  0.00    +0.000 N 
ATOM      4  H   UNL     1      -9.332   5.782 130.610  0.00  0.00    +0.000 HD
ENDROOT
BRANCH   3   5
ATOM      5  C   UNL     1     -11.212   6.163 129.621  0.00  0.00    +0.000 C 
ATOM      6  C   UNL     1     -11.623   7.244 130.630  0.00  0.00    +0.000 C 
ATOM      7  C   UNL     1     -12.462   8.293 129.913  0.00  0.00    +0.000 C 
ATOM      8  S   UNL     1     -11.699   8.507 128.298  0.00  0.00    +0.000 S 
ATOM      9  C   UNL     1     -10.815   6.982 128.370  0.00  0.00    +0.000 C 
ATOM     10  O   UNL     1      -9.993   6.710 127.521  0.00  0.00    +0.000 OA
ENDBRANCH   3   5
BRANCH   1  11
ATOM     11  C   UNL     1      -9.162   3.147 130.934  0.00  0.00    +0.000 C 
BRANCH  11  12
ATOM     12  S   UNL     1      -7.623   4.101 130.615  0.00  0.00    +0.000 S 
BRANCH  12  13
ATOM     13  C   UNL     1      -6.807   3.316 129.175  0.00  0.00    +0.000 C 
BRANCH  13  14
ATOM     14  C   UNL     1      -6.960   4.262 127.965  0.00  0.00    +0.000 C 
ATOM     15  O   UNL     1      -6.051   4.703 127.278  0.00  0.00    +0.000 OA
BRANCH  14  16
ATOM     16  O   UNL     1      -8.239   4.610 127.680  0.00  0.00    +0.000 OA
ATOM     17  H   UNL     1      -8.873   4.630 128.417  0.00  0.00    +0.000 HD
ENDBRANCH  14  16
ENDBRANCH  13  14
ENDBRANCH  12  13
ENDBRANCH  11  12
ENDBRANCH   1  11
TORSDOF 6
ENDMDL
MODEL 8
REMARK VINA RESULT:      -4.2      2.304      2.898
REMARK  Name = Erdosteine
REMARK  6 active torsions:
REMARK  status: ('A' for Active; 'I' for Inactive)
REMARK    1  A    between atoms: O_1  and  C_2
REMARK    2  A    between atoms: C_2  and  C_4
REMARK    3  A    between atoms: C_4  and  S_5
REMARK    4  A    between atoms: S_5  and  C_6
REMARK    5  A    between atoms: C_6  and  C_7
REMARK    6  A    between atoms: N_9  and  C_10
REMARK                            x       y       z     vdW  Elec       q    Type
REMARK                         _______ _______ _______ _____ _____    ______ ____
ROOT
ATOM      1  C   UNL     1     -10.683   4.988 130.572  0.00  0.00    +0.000 C 
ATOM      2  O   UNL     1     -11.557   4.349 129.989  0.00  0.00    +0.000 OA
ATOM      3  N   UNL     1      -9.616   4.321 131.162  0.00  0.00    +0.000 N 
ATOM      4  H   UNL     1      -8.751   4.827 131.302  0.00  0.00    +0.000 HD
ENDROOT
BRANCH   3   5
ATOM      5  C   UNL     1      -9.582   2.847 131.089  0.00  0.00    +0.000 C 
ATOM      6  C   UNL     1      -8.613   2.357 130.004  0.00  0.00    +0.000 C 
ATOM      7  C   UNL     1      -8.318   0.881 130.237  0.00  0.00    +0.000 C 
ATOM      8  S   UNL     1      -8.186   0.686 132.020  0.00  0.00    +0.000 S 
ATOM      9  C   UNL     1      -9.025   2.196 132.378  0.00  0.00    +0.000 C 
ATOM     10  O   UNL     1      -9.076   2.613 133.515  0.00  0.00    +0.000 OA
ENDBRANCH   3   5
BRANCH   1  11
ATOM     11  C   UNL     1     -10.690   6.536 130.674  0.00  0.00    +0.000 C 
BRANCH  11  12
ATOM     12  S   UNL     1     -12.435   7.067 130.900  0.00  0.00    +0.000 S 
BRANCH  12  13
ATOM     13  C   UNL     1     -13.080   7.477 129.236  0.00  0.00    +0.000 C 
BRANCH  13  14
ATOM     14  C   UNL     1     -12.638   8.915 128.893  0.00  0.00    +0.000 C 
ATOM     15  O   UNL     1     -13.245   9.939 129.168  0.00  0.00    +0.000 OA
BRANCH  14  16
ATOM     16  O   UNL     1     -11.462   8.999 128.222  0.00  0.00    +0.000 OA
ATOM     17  H   UNL     1     -10.952   9.822 128.311  0.00  0.00    +0.000 HD
ENDBRANCH  14  16
ENDBRANCH  13  14
ENDBRANCH  12  13
ENDBRANCH  11  12
ENDBRANCH   1  11
TORSDOF 6
ENDMDL
MODEL 9
REMARK VINA RESULT:      -4.2      9.378      9.884
REMARK  Name = Erdosteine
REMARK  6 active torsions:
REMARK  status: ('A' for Active; 'I' for Inactive)
REMARK    1  A    between atoms: O_1  and  C_2
REMARK    2  A    between atoms: C_2  and  C_4
REMARK    3  A    between atoms: C_4  and  S_5
REMARK    4  A    between atoms: S_5  and  C_6
REMARK    5  A    between atoms: C_6  and  C_7
REMARK    6  A    between atoms: N_9  and  C_10
REMARK                            x       y       z     vdW  Elec       q    Type
REMARK                         _______ _______ _______ _____ _____    ______ ____
ROOT
ATOM      1  C   UNL     1      -9.039  -2.777 125.252  0.00  0.00    +0.000 C 
ATOM      2  O   UNL     1      -9.935  -2.072 125.710  0.00  0.00    +0.000 OA
ATOM      3  N   UNL     1      -7.943  -3.104 126.043  0.00  0.00    +0.000 N 
ATOM      4  H   UNL     1      -7.422  -3.942 125.820  0.00  0.00    +0.000 HD
ENDROOT
BRANCH   3   5
ATOM      5  C   UNL     1      -7.880  -2.562 127.415  0.00  0.00    +0.000 C 
ATOM      6  C   UNL     1      -8.391  -3.577 128.446  0.00  0.00    +0.000 C 
ATOM      7  C   UNL     1      -7.941  -3.138 129.833  0.00  0.00    +0.000 C 
ATOM      8  S   UNL     1      -6.271  -2.505 129.625  0.00  0.00    +0.000 S 
ATOM      9  C   UNL     1      -6.432  -2.283 127.883  0.00  0.00    +0.000 C 
ATOM     10  O   UNL     1      -5.468  -1.985 127.211  0.00  0.00    +0.000 OA
ENDBRANCH   3   5
BRANCH   1  11
ATOM     11  C   UNL     1      -9.067  -3.358 123.813  0.00  0.00    +0.000 C 
BRANCH  11  12
ATOM     12  S   UNL     1      -8.679  -1.984 122.655  0.00  0.00    +0.000 S 
BRANCH  12  13
ATOM     13  C   UNL     1      -6.908  -1.582 122.892  0.00  0.00    +0.000 C 
BRANCH  13  14
ATOM     14  C   UNL     1      -6.820  -0.248 123.663  0.00  0.00    +0.000 C 
ATOM     15  O   UNL     1      -7.027   0.865 123.202  0.00  0.00    +0.000 OA
BRANCH  14  16
ATOM     16  O   UNL     1      -6.472  -0.374 124.968  0.00  0.00    +0.000 OA
ATOM     17  H   UNL     1      -6.875   0.245 125.601  0.00  0.00    +0.000 HD
ENDBRANCH  14  16
ENDBRANCH  13  14
ENDBRANCH  12  13
ENDBRANCH  11  12
ENDBRANCH   1  11
TORSDOF 6
ENDMDL
