MODEL 1
REMARK VINA RESULT:     -10.0      0.000      0.000
REMARK  Name = Ergosterol
REMARK  11 active torsions:
REMARK  status: ('A' for Active; 'I' for Inactive)
REMARK    1  A    between atoms: C_1  and  C_2
REMARK    2  A    between atoms: C_2  and  C_3
REMARK    3  A    between atoms: C_2  and  C_4
REMARK    4  A    between atoms: C_4  and  C_5
REMARK    5  A    between atoms: C_4  and  C_6
REMARK    6  A    between atoms: C_7  and  C_8
REMARK    7  A    between atoms: C_8  and  C_9
REMARK    8  A    between atoms: C_8  and  C_10
REMARK    9  A    between atoms: C_19  and  O_20
REMARK   10  A    between atoms: C_23  and  C_24
REMARK   11  A    between atoms: C_28  and  C_29
REMARK                            x       y       z     vdW  Elec       q    Type
REMARK                         _______ _______ _______ _____ _____    ______ ____
ROOT
ATOM      1  C   UNL     1      -7.816  -0.757 123.852  0.00  0.00    +0.000 C 
ATOM      2  C   UNL     1      -8.810  -1.956 122.971  0.00  0.00    +0.000 C 
ATOM      3  C   UNL     1      -9.054  -2.836 124.166  0.00  0.00    +0.000 C 
ATOM      4  C   UNL     1      -7.585  -2.930 124.670  0.00  0.00    +0.000 C 
ATOM      5  C   UNL     1      -7.598  -2.833 126.176  0.00  0.00    +0.000 C 
ATOM      6  C   UNL     1      -8.681  -3.264 126.872  0.00  0.00    +0.000 C 
ATOM      7  C   UNL     1      -8.652  -3.527 128.252  0.00  0.00    +0.000 C 
ATOM      8  C   UNL     1      -7.657  -3.014 129.053  0.00  0.00    +0.000 C 
ATOM      9  C   UNL     1      -7.859  -3.146 130.541  0.00  0.00    +0.000 C 
ATOM     10  C   UNL     1      -6.808  -2.381 131.354  0.00  0.00    +0.000 C 
ATOM     11  C   UNL     1      -5.317  -2.367 131.305  0.00  0.00    +0.000 C 
ATOM     12  C   UNL     1      -5.072  -2.171 129.543  0.00  0.00    +0.000 C 
ATOM     13  C   UNL     1      -6.484  -2.214 128.476  0.00  0.00    +0.000 C 
ATOM     14  C   UNL     1      -7.120  -0.859 128.390  0.00  0.00    +0.000 C 
ATOM     15  C   UNL     1      -6.272  -2.527 126.898  0.00  0.00    +0.000 C 
ATOM     16  C   UNL     1      -5.361  -1.534 126.112  0.00  0.00    +0.000 C 
ATOM     17  C   UNL     1      -5.368  -1.770 124.610  0.00  0.00    +0.000 C 
ATOM     18  C   UNL     1      -6.727  -1.819 123.924  0.00  0.00    +0.000 C 
ATOM     19  C   UNL     1      -6.328  -1.970 122.361  0.00  0.00    +0.000 C 
ENDROOT
BRANCH   1  20
ATOM     20  C   UNL     1      -7.140   0.785 123.954  0.00  0.00    +0.000 C 
ATOM     21  C   UNL     1      -7.307   1.655 125.241  0.00  0.00    +0.000 C 
BRANCH  20  23
ATOM     22  C   UNL     1      -6.988   2.738 122.098  0.00  0.00    +0.000 C 
ATOM     23  C   UNL     1      -7.675   1.881 122.876  0.00  0.00    +0.000 C 
BRANCH  22  24
ATOM     24  C   UNL     1      -7.522   3.863 121.136  0.00  0.00    +0.000 C 
ATOM     25  C   UNL     1      -8.958   3.737 120.592  0.00  0.00    +0.000 C 
BRANCH  24  27
ATOM     26  C   UNL     1      -7.132   4.622 118.676  0.00  0.00    +0.000 C 
ATOM     27  C   UNL     1      -6.516   3.981 119.929  0.00  0.00    +0.000 C 
ATOM     28  C   UNL     1      -5.298   4.791 120.370  0.00  0.00    +0.000 C 
ENDBRANCH  24  27
ENDBRANCH  22  24
ENDBRANCH  20  23
ENDBRANCH   1  20
BRANCH  10  29
ATOM     29  O   UNL     1      -6.901  -0.969 131.177  0.00  0.00    +0.000 OA
ATOM     30  H   UNL     1      -7.728  -0.673 130.781  0.00  0.00    +0.000 HD
ENDBRANCH  10  29
TORSDOF 5
ENDMDL
MODEL 2
REMARK VINA RESULT:      -8.9      7.425     10.337
REMARK  Name = Ergosterol
REMARK  11 active torsions:
REMARK  status: ('A' for Active; 'I' for Inactive)
REMARK    1  A    between atoms: C_1  and  C_2
REMARK    2  A    between atoms: C_2  and  C_3
REMARK    3  A    between atoms: C_2  and  C_4
REMARK    4  A    between atoms: C_4  and  C_5
REMARK    5  A    between atoms: C_4  and  C_6
REMARK    6  A    between atoms: C_7  and  C_8
REMARK    7  A    between atoms: C_8  and  C_9
REMARK    8  A    between atoms: C_8  and  C_10
REMARK    9  A    between atoms: C_19  and  O_20
REMARK   10  A    between atoms: C_23  and  C_24
REMARK   11  A    between atoms: C_28  and  C_29
REMARK                            x       y       z     vdW  Elec       q    Type
REMARK                         _______ _______ _______ _____ _____    ______ ____
ROOT
ATOM      1  C   UNL     1      -6.756   3.937 132.278  0.00  0.00    +0.000 C 
ATOM      2  C   UNL     1      -6.846   3.928 134.065  0.00  0.00    +0.000 C 
ATOM      3  C   UNL     1      -8.145   4.681 134.140  0.00  0.00    +0.000 C 
ATOM      4  C   UNL     1      -7.785   5.835 133.162  0.00  0.00    +0.000 C 
ATOM      5  C   UNL     1      -8.993   6.117 132.302  0.00  0.00    +0.000 C 
ATOM      6  C   UNL     1     -10.238   5.878 132.787  0.00  0.00    +0.000 C 
ATOM      7  C   UNL     1     -11.402   6.414 132.210  0.00  0.00    +0.000 C 
ATOM      8  C   UNL     1     -11.401   6.894 130.921  0.00  0.00    +0.000 C 
ATOM      9  C   UNL     1     -12.748   7.211 130.322  0.00  0.00    +0.000 C 
ATOM     10  C   UNL     1     -12.669   7.551 128.828  0.00  0.00    +0.000 C 
ATOM     11  C   UNL     1     -11.824   8.510 128.061  0.00  0.00    +0.000 C 
ATOM     12  C   UNL     1     -10.217   8.111 128.741  0.00  0.00    +0.000 C 
ATOM     13  C   UNL     1     -10.121   6.958 130.080  0.00  0.00    +0.000 C 
ATOM     14  C   UNL     1     -10.088   5.551 129.562  0.00  0.00    +0.000 C 
ATOM     15  C   UNL     1      -8.796   6.944 131.017  0.00  0.00    +0.000 C 
ATOM     16  C   UNL     1      -7.443   6.648 130.299  0.00  0.00    +0.000 C 
ATOM     17  C   UNL     1      -6.281   6.452 131.259  0.00  0.00    +0.000 C 
ATOM     18  C   UNL     1      -6.466   5.429 132.371  0.00  0.00    +0.000 C 
ATOM     19  C   UNL     1      -5.017   5.426 133.094  0.00  0.00    +0.000 C 
ENDROOT
BRANCH   1  20
ATOM     20  C   UNL     1      -6.127   3.305 130.846  0.00  0.00    +0.000 C 
ATOM     21  C   UNL     1      -5.851   1.774 130.693  0.00  0.00    +0.000 C 
BRANCH  20  23
ATOM     22  C   UNL     1      -4.215   4.284 129.213  0.00  0.00    +0.000 C 
ATOM     23  C   UNL     1      -4.655   3.840 130.405  0.00  0.00    +0.000 C 
BRANCH  22  24
ATOM     24  C   UNL     1      -2.762   4.702 128.775  0.00  0.00    +0.000 C 
ATOM     25  C   UNL     1      -2.312   6.153 129.032  0.00  0.00    +0.000 C 
BRANCH  24  27
ATOM     26  C   UNL     1      -1.800   3.095 126.967  0.00  0.00    +0.000 C 
ATOM     27  C   UNL     1      -2.607   4.372 127.243  0.00  0.00    +0.000 C 
ATOM     28  C   UNL     1      -3.995   4.244 126.616  0.00  0.00    +0.000 C 
ENDBRANCH  24  27
ENDBRANCH  22  24
ENDBRANCH  20  23
ENDBRANCH   1  20
BRANCH  10  29
ATOM     29  O   UNL     1     -12.258   6.439 128.035  0.00  0.00    +0.000 OA
ATOM     30  H   UNL     1     -12.365   5.584 128.465  0.00  0.00    +0.000 HD
ENDBRANCH  10  29
TORSDOF 5
ENDMDL
MODEL 3
REMARK VINA RESULT:      -8.9      2.009      3.424
REMARK  Name = Ergosterol
REMARK  11 active torsions:
REMARK  status: ('A' for Active; 'I' for Inactive)
REMARK    1  A    between atoms: C_1  and  C_2
REMARK    2  A    between atoms: C_2  and  C_3
REMARK    3  A    between atoms: C_2  and  C_4
REMARK    4  A    between atoms: C_4  and  C_5
REMARK    5  A    between atoms: C_4  and  C_6
REMARK    6  A    between atoms: C_7  and  C_8
REMARK    7  A    between atoms: C_8  and  C_9
REMARK    8  A    between atoms: C_8  and  C_10
REMARK    9  A    between atoms: C_19  and  O_20
REMARK   10  A    between atoms: C_23  and  C_24
REMARK   11  A    between atoms: C_28  and  C_29
REMARK                            x       y       z     vdW  Elec       q    Type
REMARK                         _______ _______ _______ _____ _____    ______ ____
ROOT
ATOM      1  C   UNL     1      -8.502  -1.046 123.916  0.00  0.00    +0.000 C 
ATOM      2  C   UNL     1      -9.271  -2.468 123.148  0.00  0.00    +0.000 C 
ATOM      3  C   UNL     1      -9.256  -3.317 124.388  0.00  0.00    +0.000 C 
ATOM      4  C   UNL     1      -7.774  -3.080 124.797  0.00  0.00    +0.000 C 
ATOM      5  C   UNL     1      -7.722  -2.912 126.296  0.00  0.00    +0.000 C 
ATOM      6  C   UNL     1      -8.649  -3.523 127.077  0.00  0.00    +0.000 C 
ATOM      7  C   UNL     1      -8.487  -3.704 128.462  0.00  0.00    +0.000 C 
ATOM      8  C   UNL     1      -7.578  -2.956 129.175  0.00  0.00    +0.000 C 
ATOM      9  C   UNL     1      -7.664  -3.052 130.677  0.00  0.00    +0.000 C 
ATOM     10  C   UNL     1      -6.752  -2.046 131.390  0.00  0.00    +0.000 C 
ATOM     11  C   UNL     1      -5.303  -1.726 131.243  0.00  0.00    +0.000 C 
ATOM     12  C   UNL     1      -5.205  -1.572 129.463  0.00  0.00    +0.000 C 
ATOM     13  C   UNL     1      -6.634  -1.960 128.493  0.00  0.00    +0.000 C 
ATOM     14  C   UNL     1      -7.544  -0.773 128.398  0.00  0.00    +0.000 C 
ATOM     15  C   UNL     1      -6.451  -2.301 126.917  0.00  0.00    +0.000 C 
ATOM     16  C   UNL     1      -5.814  -1.183 126.036  0.00  0.00    +0.000 C 
ATOM     17  C   UNL     1      -5.857  -1.490 124.548  0.00  0.00    +0.000 C 
ATOM     18  C   UNL     1      -7.212  -1.854 123.955  0.00  0.00    +0.000 C 
ATOM     19  C   UNL     1      -6.879  -1.997 122.376  0.00  0.00    +0.000 C 
ENDROOT
BRANCH   1  20
ATOM     20  C   UNL     1      -8.160   0.606 123.915  0.00  0.00    +0.000 C 
ATOM     21  C   UNL     1      -6.860   1.159 123.246  0.00  0.00    +0.000 C 
BRANCH  20  23
ATOM     22  C   UNL     1      -7.006   2.126 125.823  0.00  0.00    +0.000 C 
ATOM     23  C   UNL     1      -7.975   1.307 125.371  0.00  0.00    +0.000 C 
BRANCH  22  24
ATOM     24  C   UNL     1      -6.786   2.714 127.265  0.00  0.00    +0.000 C 
ATOM     25  C   UNL     1      -7.395   4.091 127.593  0.00  0.00    +0.000 C 
BRANCH  24  27
ATOM     26  C   UNL     1      -4.809   1.953 128.779  0.00  0.00    +0.000 C 
ATOM     27  C   UNL     1      -5.235   2.751 127.538  0.00  0.00    +0.000 C 
ATOM     28  C   UNL     1      -4.498   2.219 126.310  0.00  0.00    +0.000 C 
ENDBRANCH  24  27
ENDBRANCH  22  24
ENDBRANCH  20  23
ENDBRANCH   1  20
BRANCH  10  29
ATOM     29  O   UNL     1      -7.150  -0.694 131.167  0.00  0.00    +0.000 OA
ATOM     30  H   UNL     1      -7.983  -0.599 130.694  0.00  0.00    +0.000 HD
ENDBRANCH  10  29
TORSDOF 5
ENDMDL
MODEL 4
REMARK VINA RESULT:      -8.5      4.148      7.140
REMARK  Name = Ergosterol
REMARK  11 active torsions:
REMARK  status: ('A' for Active; 'I' for Inactive)
REMARK    1  A    between atoms: C_1  and  C_2
REMARK    2  A    between atoms: C_2  and  C_3
REMARK    3  A    between atoms: C_2  and  C_4
REMARK    4  A    between atoms: C_4  and  C_5
REMARK    5  A    between atoms: C_4  and  C_6
REMARK    6  A    between atoms: C_7  and  C_8
REMARK    7  A    between atoms: C_8  and  C_9
REMARK    8  A    between atoms: C_8  and  C_10
REMARK    9  A    between atoms: C_19  and  O_20
REMARK   10  A    between atoms: C_23  and  C_24
REMARK   11  A    between atoms: C_28  and  C_29
REMARK                            x       y       z     vdW  Elec       q    Type
REMARK                         _______ _______ _______ _____ _____    ______ ____
ROOT
ATOM      1  C   UNL     1      -6.709   3.622 126.647  0.00  0.00    +0.000 C 
ATOM      2  C   UNL     1      -6.408   4.814 125.347  0.00  0.00    +0.000 C 
ATOM      3  C   UNL     1      -6.833   3.905 124.228  0.00  0.00    +0.000 C 
ATOM      4  C   UNL     1      -6.014   2.650 124.643  0.00  0.00    +0.000 C 
ATOM      5  C   UNL     1      -6.879   1.432 124.426  0.00  0.00    +0.000 C 
ATOM      6  C   UNL     1      -7.834   1.445 123.462  0.00  0.00    +0.000 C 
ATOM      7  C   UNL     1      -8.440   0.277 122.967  0.00  0.00    +0.000 C 
ATOM      8  C   UNL     1      -8.390  -0.904 123.671  0.00  0.00    +0.000 C 
ATOM      9  C   UNL     1      -9.277  -2.017 123.176  0.00  0.00    +0.000 C 
ATOM     10  C   UNL     1      -9.307  -3.221 124.126  0.00  0.00    +0.000 C 
ATOM     11  C   UNL     1      -8.223  -4.027 124.757  0.00  0.00    +0.000 C 
ATOM     12  C   UNL     1      -7.186  -2.709 125.380  0.00  0.00    +0.000 C 
ATOM     13  C   UNL     1      -7.600  -1.036 124.977  0.00  0.00    +0.000 C 
ATOM     14  C   UNL     1      -8.612  -0.497 125.942  0.00  0.00    +0.000 C 
ATOM     15  C   UNL     1      -6.458   0.111 125.098  0.00  0.00    +0.000 C 
ATOM     16  C   UNL     1      -5.827   0.314 126.509  0.00  0.00    +0.000 C 
ATOM     17  C   UNL     1      -4.917   1.529 126.593  0.00  0.00    +0.000 C 
ATOM     18  C   UNL     1      -5.496   2.860 126.132  0.00  0.00    +0.000 C 
ATOM     19  C   UNL     1      -4.301   3.900 126.470  0.00  0.00    +0.000 C 
ENDROOT
BRANCH   1  20
ATOM     20  C   UNL     1      -6.970   3.275 128.277  0.00  0.00    +0.000 C 
ATOM     21  C   UNL     1      -8.211   2.443 128.735  0.00  0.00    +0.000 C 
BRANCH  20  23
ATOM     22  C   UNL     1      -8.247   4.899 130.015  0.00  0.00    +0.000 C 
ATOM     23  C   UNL     1      -7.185   4.553 129.263  0.00  0.00    +0.000 C 
BRANCH  22  24
ATOM     24  C   UNL     1      -8.479   6.190 130.883  0.00  0.00    +0.000 C 
ATOM     25  C   UNL     1      -8.233   6.102 132.402  0.00  0.00    +0.000 C 
BRANCH  24  27
ATOM     26  C   UNL     1     -10.063   7.688 129.461  0.00  0.00    +0.000 C 
ATOM     27  C   UNL     1      -9.950   6.689 130.621  0.00  0.00    +0.000 C 
ATOM     28  C   UNL     1     -10.845   5.482 130.345  0.00  0.00    +0.000 C 
ENDBRANCH  24  27
ENDBRANCH  22  24
ENDBRANCH  20  23
ENDBRANCH   1  20
BRANCH  10  29
ATOM     29  O   UNL     1      -9.910  -2.912 125.381  0.00  0.00    +0.000 OA
ATOM     30  H   UNL     1      -9.284  -2.789 126.103  0.00  0.00    +0.000 HD
ENDBRANCH  10  29
TORSDOF 5
ENDMDL
MODEL 5
REMARK VINA RESULT:      -8.4      3.800      8.277
REMARK  Name = Ergosterol
REMARK  11 active torsions:
REMARK  status: ('A' for Active; 'I' for Inactive)
REMARK    1  A    between atoms: C_1  and  C_2
REMARK    2  A    between atoms: C_2  and  C_3
REMARK    3  A    between atoms: C_2  and  C_4
REMARK    4  A    between atoms: C_4  and  C_5
REMARK    5  A    between atoms: C_4  and  C_6
REMARK    6  A    between atoms: C_7  and  C_8
REMARK    7  A    between atoms: C_8  and  C_9
REMARK    8  A    between atoms: C_8  and  C_10
REMARK    9  A    between atoms: C_19  and  O_20
REMARK   10  A    between atoms: C_23  and  C_24
REMARK   11  A    between atoms: C_28  and  C_29
REMARK                            x       y       z     vdW  Elec       q    Type
REMARK                         _______ _______ _______ _____ _____    ______ ____
ROOT
ATOM      1  C   UNL     1      -6.524  -0.826 130.326  0.00  0.00    +0.000 C 
ATOM      2  C   UNL     1      -4.805  -1.166 130.690  0.00  0.00    +0.000 C 
ATOM      3  C   UNL     1      -4.459  -1.626 129.302  0.00  0.00    +0.000 C 
ATOM      4  C   UNL     1      -5.650  -2.604 129.094  0.00  0.00    +0.000 C 
ATOM      5  C   UNL     1      -6.149  -2.442 127.678  0.00  0.00    +0.000 C 
ATOM      6  C   UNL     1      -5.294  -2.050 126.701  0.00  0.00    +0.000 C 
ATOM      7  C   UNL     1      -5.574  -2.198 125.331  0.00  0.00    +0.000 C 
ATOM      8  C   UNL     1      -6.861  -2.393 124.885  0.00  0.00    +0.000 C 
ATOM      9  C   UNL     1      -7.078  -2.287 123.397  0.00  0.00    +0.000 C 
ATOM     10  C   UNL     1      -8.561  -2.323 123.008  0.00  0.00    +0.000 C 
ATOM     11  C   UNL     1      -9.667  -3.260 123.356  0.00  0.00    +0.000 C 
ATOM     12  C   UNL     1      -9.438  -3.357 125.128  0.00  0.00    +0.000 C 
ATOM     13  C   UNL     1      -8.039  -2.551 125.852  0.00  0.00    +0.000 C 
ATOM     14  C   UNL     1      -8.344  -1.107 126.119  0.00  0.00    +0.000 C 
ATOM     15  C   UNL     1      -7.538  -3.010 127.326  0.00  0.00    +0.000 C 
ATOM     16  C   UNL     1      -8.572  -2.865 128.485  0.00  0.00    +0.000 C 
ATOM     17  C   UNL     1      -7.976  -3.121 129.860  0.00  0.00    +0.000 C 
ATOM     18  C   UNL     1      -6.728  -2.332 130.231  0.00  0.00    +0.000 C 
ATOM     19  C   UNL     1      -6.467  -2.785 131.764  0.00  0.00    +0.000 C 
ENDROOT
BRANCH   1  20
ATOM     20  C   UNL     1      -7.975  -0.061 130.718  0.00  0.00    +0.000 C 
ATOM     21  C   UNL     1      -8.543   1.093 129.831  0.00  0.00    +0.000 C 
BRANCH  20  23
ATOM     22  C   UNL     1      -8.159   2.028 132.416  0.00  0.00    +0.000 C 
ATOM     23  C   UNL     1      -8.019   0.717 132.147  0.00  0.00    +0.000 C 
BRANCH  22  24
ATOM     24  C   UNL     1      -8.097   2.777 133.798  0.00  0.00    +0.000 C 
ATOM     25  C   UNL     1      -9.021   3.992 134.011  0.00  0.00    +0.000 C 
BRANCH  24  27
ATOM     26  C   UNL     1      -5.847   3.575 132.760  0.00  0.00    +0.000 C 
ATOM     27  C   UNL     1      -6.603   3.208 134.046  0.00  0.00    +0.000 C 
ATOM     28  C   UNL     1      -6.578   4.394 135.009  0.00  0.00    +0.000 C 
ENDBRANCH  24  27
ENDBRANCH  22  24
ENDBRANCH  20  23
ENDBRANCH   1  20
BRANCH  10  29
ATOM     29  O   UNL     1      -9.277  -1.183 123.482  0.00  0.00    +0.000 OA
ATOM     30  H   UNL     1      -9.051  -0.917 124.380  0.00  0.00    +0.000 HD
ENDBRANCH  10  29
TORSDOF 5
ENDMDL
MODEL 6
REMARK VINA RESULT:      -8.4      7.919     11.155
REMARK  Name = Ergosterol
REMARK  11 active torsions:
REMARK  status: ('A' for Active; 'I' for Inactive)
REMARK    1  A    between atoms: C_1  and  C_2
REMARK    2  A    between atoms: C_2  and  C_3
REMARK    3  A    between atoms: C_2  and  C_4
REMARK    4  A    between atoms: C_4  and  C_5
REMARK    5  A    between atoms: C_4  and  C_6
REMARK    6  A    between atoms: C_7  and  C_8
REMARK    7  A    between atoms: C_8  and  C_9
REMARK    8  A    between atoms: C_8  and  C_10
REMARK    9  A    between atoms: C_19  and  O_20
REMARK   10  A    between atoms: C_23  and  C_24
REMARK   11  A    between atoms: C_28  and  C_29
REMARK                            x       y       z     vdW  Elec       q    Type
REMARK                         _______ _______ _______ _____ _____    ______ ____
ROOT
ATOM      1  C   UNL     1      -7.347   3.975 132.691  0.00  0.00    +0.000 C 
ATOM      2  C   UNL     1      -7.888   3.834 134.391  0.00  0.00    +0.000 C 
ATOM      3  C   UNL     1      -9.209   4.516 134.171  0.00  0.00    +0.000 C 
ATOM      4  C   UNL     1      -8.687   5.754 133.387  0.00  0.00    +0.000 C 
ATOM      5  C   UNL     1      -9.653   6.039 132.262  0.00  0.00    +0.000 C 
ATOM      6  C   UNL     1     -10.962   5.707 132.395  0.00  0.00    +0.000 C 
ATOM      7  C   UNL     1     -11.973   6.227 131.568  0.00  0.00    +0.000 C 
ATOM      8  C   UNL     1     -11.675   6.798 130.352  0.00  0.00    +0.000 C 
ATOM      9  C   UNL     1     -12.842   7.092 129.445  0.00  0.00    +0.000 C 
ATOM     10  C   UNL     1     -12.408   7.542 128.045  0.00  0.00    +0.000 C 
ATOM     11  C   UNL     1     -11.459   8.593 127.578  0.00  0.00    +0.000 C 
ATOM     12  C   UNL     1     -10.056   8.223 128.625  0.00  0.00    +0.000 C 
ATOM     13  C   UNL     1     -10.230   6.982 129.876  0.00  0.00    +0.000 C 
ATOM     14  C   UNL     1      -9.975   5.620 129.304  0.00  0.00    +0.000 C 
ATOM     15  C   UNL     1      -9.188   6.964 131.120  0.00  0.00    +0.000 C 
ATOM     16  C   UNL     1      -7.681   6.785 130.760  0.00  0.00    +0.000 C 
ATOM     17  C   UNL     1      -6.792   6.577 131.975  0.00  0.00    +0.000 C 
ATOM     18  C   UNL     1      -7.188   5.469 132.941  0.00  0.00    +0.000 C 
ATOM     19  C   UNL     1      -5.973   5.484 134.012  0.00  0.00    +0.000 C 
ENDROOT
BRANCH   1  20
ATOM     20  C   UNL     1      -6.335   3.479 131.436  0.00  0.00    +0.000 C 
ATOM     21  C   UNL     1      -6.294   1.986 130.977  0.00  0.00    +0.000 C 
BRANCH  20  23
ATOM     22  C   UNL     1      -3.903   4.625 131.198  0.00  0.00    +0.000 C 
ATOM     23  C   UNL     1      -4.738   3.681 131.673  0.00  0.00    +0.000 C 
BRANCH  22  24
ATOM     24  C   UNL     1      -2.343   4.749 131.353  0.00  0.00    +0.000 C 
ATOM     25  C   UNL     1      -1.702   4.289 132.677  0.00  0.00    +0.000 C 
BRANCH  24  27
ATOM     26  C   UNL     1      -0.645   6.679 131.763  0.00  0.00    +0.000 C 
ATOM     27  C   UNL     1      -1.949   6.249 131.076  0.00  0.00    +0.000 C 
ATOM     28  C   UNL     1      -1.827   6.463 129.568  0.00  0.00    +0.000 C 
ENDBRANCH  24  27
ENDBRANCH  22  24
ENDBRANCH  20  23
ENDBRANCH   1  20
BRANCH  10  29
ATOM     29  O   UNL     1     -11.738   6.510 127.322  0.00  0.00    +0.000 OA
ATOM     30  H   UNL     1     -11.101   6.830 126.674  0.00  0.00    +0.000 HD
ENDBRANCH  10  29
TORSDOF 5
ENDMDL
MODEL 7
REMARK VINA RESULT:      -8.4      4.320      7.019
REMARK  Name = Ergosterol
REMARK  11 active torsions:
REMARK  status: ('A' for Active; 'I' for Inactive)
REMARK    1  A    between atoms: C_1  and  C_2
REMARK    2  A    between atoms: C_2  and  C_3
REMARK    3  A    between atoms: C_2  and  C_4
REMARK    4  A    between atoms: C_4  and  C_5
REMARK    5  A    between atoms: C_4  and  C_6
REMARK    6  A    between atoms: C_7  and  C_8
REMARK    7  A    between atoms: C_8  and  C_9
REMARK    8  A    between atoms: C_8  and  C_10
REMARK    9  A    between atoms: C_19  and  O_20
REMARK   10  A    between atoms: C_23  and  C_24
REMARK   11  A    between atoms: C_28  and  C_29
REMARK                            x       y       z     vdW  Elec       q    Type
REMARK                         _______ _______ _______ _____ _____    ______ ____
ROOT
ATOM      1  C   UNL     1      -6.366   3.525 126.765  0.00  0.00    +0.000 C 
ATOM      2  C   UNL     1      -6.241   4.801 125.517  0.00  0.00    +0.000 C 
ATOM      3  C   UNL     1      -6.820   3.966 124.409  0.00  0.00    +0.000 C 
ATOM      4  C   UNL     1      -5.958   2.689 124.625  0.00  0.00    +0.000 C 
ATOM      5  C   UNL     1      -6.851   1.485 124.449  0.00  0.00    +0.000 C 
ATOM      6  C   UNL     1      -7.929   1.558 123.628  0.00  0.00    +0.000 C 
ATOM      7  C   UNL     1      -8.604   0.423 123.145  0.00  0.00    +0.000 C 
ATOM      8  C   UNL     1      -8.464  -0.802 123.757  0.00  0.00    +0.000 C 
ATOM      9  C   UNL     1      -9.417  -1.884 123.316  0.00  0.00    +0.000 C 
ATOM     10  C   UNL     1      -9.322  -3.147 124.180  0.00  0.00    +0.000 C 
ATOM     11  C   UNL     1      -8.166  -3.989 124.602  0.00  0.00    +0.000 C 
ATOM     12  C   UNL     1      -7.046  -2.711 125.162  0.00  0.00    +0.000 C 
ATOM     13  C   UNL     1      -7.503  -1.017 124.931  0.00  0.00    +0.000 C 
ATOM     14  C   UNL     1      -8.370  -0.546 126.059  0.00  0.00    +0.000 C 
ATOM     15  C   UNL     1      -6.349   0.124 124.968  0.00  0.00    +0.000 C 
ATOM     16  C   UNL     1      -5.529   0.236 126.290  0.00  0.00    +0.000 C 
ATOM     17  C   UNL     1      -4.610   1.447 126.328  0.00  0.00    +0.000 C 
ATOM     18  C   UNL     1      -5.239   2.803 126.039  0.00  0.00    +0.000 C 
ATOM     19  C   UNL     1      -4.004   3.823 126.277  0.00  0.00    +0.000 C 
ENDROOT
BRANCH   1  20
ATOM     20  C   UNL     1      -6.403   3.071 128.389  0.00  0.00    +0.000 C 
ATOM     21  C   UNL     1      -7.754   2.978 129.169  0.00  0.00    +0.000 C 
BRANCH  20  23
ATOM     22  C   UNL     1      -5.047   5.247 129.231  0.00  0.00    +0.000 C 
ATOM     23  C   UNL     1      -5.614   4.042 129.429  0.00  0.00    +0.000 C 
BRANCH  22  24
ATOM     24  C   UNL     1      -4.199   6.128 130.220  0.00  0.00    +0.000 C 
ATOM     25  C   UNL     1      -4.473   7.644 130.265  0.00  0.00    +0.000 C 
BRANCH  24  27
ATOM     26  C   UNL     1      -2.233   6.458 128.545  0.00  0.00    +0.000 C 
ATOM     27  C   UNL     1      -2.676   5.883 129.898  0.00  0.00    +0.000 C 
ATOM     28  C   UNL     1      -1.825   6.489 131.014  0.00  0.00    +0.000 C 
ENDBRANCH  24  27
ENDBRANCH  22  24
ENDBRANCH  20  23
ENDBRANCH   1  20
BRANCH  10  29
ATOM     29  O   UNL     1      -9.746  -2.924 125.524  0.00  0.00    +0.000 OA
ATOM     30  H   UNL     1     -10.366  -2.194 125.628  0.00  0.00    +0.000 HD
ENDBRANCH  10  29
TORSDOF 5
ENDMDL
MODEL 8
REMARK VINA RESULT:      -8.3      6.842     10.894
REMARK  Name = Ergosterol
REMARK  11 active torsions:
REMARK  status: ('A' for Active; 'I' for Inactive)
REMARK    1  A    between atoms: C_1  and  C_2
REMARK    2  A    between atoms: C_2  and  C_3
REMARK    3  A    between atoms: C_2  and  C_4
REMARK    4  A    between atoms: C_4  and  C_5
REMARK    5  A    between atoms: C_4  and  C_6
REMARK    6  A    between atoms: C_7  and  C_8
REMARK    7  A    between atoms: C_8  and  C_9
REMARK    8  A    between atoms: C_8  and  C_10
REMARK    9  A    between atoms: C_19  and  O_20
REMARK   10  A    between atoms: C_23  and  C_24
REMARK   11  A    between atoms: C_28  and  C_29
REMARK                            x       y       z     vdW  Elec       q    Type
REMARK                         _______ _______ _______ _____ _____    ______ ____
ROOT
ATOM      1  C   UNL     1      -7.061   3.687 132.450  0.00  0.00    +0.000 C 
ATOM      2  C   UNL     1      -7.248   3.677 134.229  0.00  0.00    +0.000 C 
ATOM      3  C   UNL     1      -8.499   4.510 134.240  0.00  0.00    +0.000 C 
ATOM      4  C   UNL     1      -8.015   5.643 133.291  0.00  0.00    +0.000 C 
ATOM      5  C   UNL     1      -9.155   6.004 132.370  0.00  0.00    +0.000 C 
ATOM      6  C   UNL     1     -10.437   5.842 132.786  0.00  0.00    +0.000 C 
ATOM      7  C   UNL     1     -11.533   6.453 132.151  0.00  0.00    +0.000 C 
ATOM      8  C   UNL     1     -11.431   6.937 130.867  0.00  0.00    +0.000 C 
ATOM      9  C   UNL     1     -12.722   7.340 130.199  0.00  0.00    +0.000 C 
ATOM     10  C   UNL     1     -12.542   7.680 128.715  0.00  0.00    +0.000 C 
ATOM     11  C   UNL     1     -11.597   8.587 128.001  0.00  0.00    +0.000 C 
ATOM     12  C   UNL     1     -10.058   8.085 128.762  0.00  0.00    +0.000 C 
ATOM     13  C   UNL     1     -10.107   6.922 130.096  0.00  0.00    +0.000 C 
ATOM     14  C   UNL     1     -10.134   5.519 129.571  0.00  0.00    +0.000 C 
ATOM     15  C   UNL     1      -8.837   6.822 131.103  0.00  0.00    +0.000 C 
ATOM     16  C   UNL     1      -7.469   6.443 130.456  0.00  0.00    +0.000 C 
ATOM     17  C   UNL     1      -6.375   6.172 131.476  0.00  0.00    +0.000 C 
ATOM     18  C   UNL     1      -6.684   5.158 132.569  0.00  0.00    +0.000 C 
ATOM     19  C   UNL     1      -5.278   5.061 133.368  0.00  0.00    +0.000 C 
ENDROOT
BRANCH   1  20
ATOM     20  C   UNL     1      -6.397   3.023 131.049  0.00  0.00    +0.000 C 
ATOM     21  C   UNL     1      -7.210   2.976 129.715  0.00  0.00    +0.000 C 
BRANCH  20  23
ATOM     22  C   UNL     1      -6.415   0.412 130.367  0.00  0.00    +0.000 C 
ATOM     23  C   UNL     1      -5.994   1.448 131.117  0.00  0.00    +0.000 C 
BRANCH  22  24
ATOM     24  C   UNL     1      -6.094  -1.122 130.510  0.00  0.00    +0.000 C 
ATOM     25  C   UNL     1      -5.302  -1.810 129.381  0.00  0.00    +0.000 C 
BRANCH  24  27
ATOM     26  C   UNL     1      -7.912  -2.691 129.506  0.00  0.00    +0.000 C 
ATOM     27  C   UNL     1      -7.457  -1.881 130.728  0.00  0.00    +0.000 C 
ATOM     28  C   UNL     1      -7.325  -2.808 131.936  0.00  0.00    +0.000 C 
ENDBRANCH  24  27
ENDBRANCH  22  24
ENDBRANCH  20  23
ENDBRANCH   1  20
BRANCH  10  29
ATOM     29  O   UNL     1     -12.159   6.547 127.936  0.00  0.00    +0.000 OA
ATOM     30  H   UNL     1     -12.821   6.263 127.297  0.00  0.00    +0.000 HD
ENDBRANCH  10  29
TORSDOF 5
ENDMDL
MODEL 9
REMARK VINA RESULT:      -8.3      2.567      7.111
REMARK  Name = Ergosterol
REMARK  11 active torsions:
REMARK  status: ('A' for Active; 'I' for Inactive)
REMARK    1  A    between atoms: C_1  and  C_2
REMARK    2  A    between atoms: C_2  and  C_3
REMARK    3  A    between atoms: C_2  and  C_4
REMARK    4  A    between atoms: C_4  and  C_5
REMARK    5  A    between atoms: C_4  and  C_6
REMARK    6  A    between atoms: C_7  and  C_8
REMARK    7  A    between atoms: C_8  and  C_9
REMARK    8  A    between atoms: C_8  and  C_10
REMARK    9  A    between atoms: C_19  and  O_20
REMARK   10  A    between atoms: C_23  and  C_24
REMARK   11  A    between atoms: C_28  and  C_29
REMARK                            x       y       z     vdW  Elec       q    Type
REMARK                         _______ _______ _______ _____ _____    ______ ____
ROOT
ATOM      1  C   UNL     1      -6.555   3.526 126.688  0.00  0.00    +0.000 C 
ATOM      2  C   UNL     1      -6.379   4.771 125.416  0.00  0.00    +0.000 C 
ATOM      3  C   UNL     1      -6.906   3.907 124.305  0.00  0.00    +0.000 C 
ATOM      4  C   UNL     1      -6.051   2.640 124.590  0.00  0.00    +0.000 C 
ATOM      5  C   UNL     1      -6.931   1.427 124.405  0.00  0.00    +0.000 C 
ATOM      6  C   UNL     1      -7.973   1.475 123.536  0.00  0.00    +0.000 C 
ATOM      7  C   UNL     1      -8.622   0.325 123.053  0.00  0.00    +0.000 C 
ATOM      8  C   UNL     1      -8.505  -0.883 123.700  0.00  0.00    +0.000 C 
ATOM      9  C   UNL     1      -9.434  -1.980 123.246  0.00  0.00    +0.000 C 
ATOM     10  C   UNL     1      -9.373  -3.221 124.144  0.00  0.00    +0.000 C 
ATOM     11  C   UNL     1      -8.234  -4.048 124.637  0.00  0.00    +0.000 C 
ATOM     12  C   UNL     1      -7.144  -2.751 125.214  0.00  0.00    +0.000 C 
ATOM     13  C   UNL     1      -7.595  -1.065 124.920  0.00  0.00    +0.000 C 
ATOM     14  C   UNL     1      -8.513  -0.570 125.997  0.00  0.00    +0.000 C 
ATOM     15  C   UNL     1      -6.448   0.082 124.980  0.00  0.00    +0.000 C 
ATOM     16  C   UNL     1      -5.687   0.230 126.333  0.00  0.00    +0.000 C 
ATOM     17  C   UNL     1      -4.775   1.445 126.381  0.00  0.00    +0.000 C 
ATOM     18  C   UNL     1      -5.395   2.791 126.031  0.00  0.00    +0.000 C 
ATOM     19  C   UNL     1      -4.175   3.822 126.297  0.00  0.00    +0.000 C 
ENDROOT
BRANCH   1  20
ATOM     20  C   UNL     1      -6.662   3.112 128.320  0.00  0.00    +0.000 C 
ATOM     21  C   UNL     1      -5.377   2.856 129.172  0.00  0.00    +0.000 C 
BRANCH  20  23
ATOM     22  C   UNL     1      -7.250   0.855 129.678  0.00  0.00    +0.000 C 
ATOM     23  C   UNL     1      -7.435   1.722 128.665  0.00  0.00    +0.000 C 
BRANCH  22  24
ATOM     24  C   UNL     1      -7.936  -0.535 129.942  0.00  0.00    +0.000 C 
ATOM     25  C   UNL     1      -7.984  -1.063 131.389  0.00  0.00    +0.000 C 
BRANCH  24  27
ATOM     26  C   UNL     1      -5.786  -1.912 129.434  0.00  0.00    +0.000 C 
ATOM     27  C   UNL     1      -7.232  -1.602 129.021  0.00  0.00    +0.000 C 
ATOM     28  C   UNL     1      -8.053  -2.891 129.030  0.00  0.00    +0.000 C 
ENDBRANCH  24  27
ENDBRANCH  22  24
ENDBRANCH  20  23
ENDBRANCH   1  20
BRANCH  10  29
ATOM     29  O   UNL     1      -9.856  -2.966 125.462  0.00  0.00    +0.000 OA
ATOM     30  H   UNL     1      -9.669  -3.668 126.095  0.00  0.00    +0.000 HD
ENDBRANCH  10  29
TORSDOF 5
ENDMDL
