MODEL 1
REMARK VINA RESULT:      -7.9      0.000      0.000
REMARK  Name = Ergometrine
REMARK  6 active torsions:
REMARK  status: ('A' for Active; 'I' for Inactive)
REMARK    1  A    between atoms: C_15  and  C_19
REMARK    2  A    between atoms: N_17  and  C_18
REMARK    3  A    between atoms: N_21  and  CA_22
REMARK    4  A    between atoms: CA_22  and  CB_23
REMARK    5  A    between atoms: CA_22  and  C_24
REMARK    6  A    between atoms: C_24  and  O_25
REMARK                            x       y       z     vdW  Elec       q    Type
REMARK                         _______ _______ _______ _____ _____    ______ ____
ROOT
ATOM      1  C   UNK A   0      -7.367   5.227 132.764  0.00  0.00    +0.000 C 
ATOM      2  C   UNK A   0      -6.434   5.355 134.023  0.00  0.00    +0.000 C 
ATOM      3  C   UNK A   0      -5.049   5.702 133.614  0.00  0.00    +0.000 A 
ATOM      4  C   UNK A   0      -3.816   5.500 134.186  0.00  0.00    +0.000 A 
ATOM      5  N   UNK A   0      -2.879   6.083 133.358  0.00  0.00    +0.000 N 
ATOM      6  C   UNK A   0      -3.493   6.646 132.259  0.00  0.00    +0.000 A 
ATOM      7  C   UNK A   0      -2.998   7.349 131.158  0.00  0.00    +0.000 A 
ATOM      8  C   UNK A   0      -3.935   7.774 130.202  0.00  0.00    +0.000 A 
ATOM      9  C   UNK A   0      -5.301   7.497 130.331  0.00  0.00    +0.000 A 
ATOM     10  C   UNK A   0      -5.782   6.796 131.440  0.00  0.00    +0.000 A 
ATOM     11  C   UNK A   0      -4.846   6.391 132.401  0.00  0.00    +0.000 A 
ATOM     12  C   UNK A   0      -7.172   6.372 131.721  0.00  0.00    +0.000 C 
ATOM     13  C   UNK A   0      -8.212   6.939 131.077  0.00  0.00    +0.000 C 
ATOM     14  C   UNK A   0      -9.621   6.425 131.244  0.00  0.00    +0.000 C 
ATOM     15  C   UNK A   0      -9.639   5.063 131.969  0.00  0.00    +0.000 C 
ATOM     16  N   UNK A   0      -8.797   5.108 133.181  0.00  0.00    +0.000 NA
ATOM     17  C   UNK A   0      -9.033   3.918 133.995  0.00  0.00    +0.000 C 
ATOM     18  H   UNK A   0      -1.884   6.100 133.532  0.00  0.00    +0.000 HD
ENDROOT
BRANCH  14  19
ATOM     19  C   UNK A   0     -10.253   6.264 129.858  0.00  0.00    +0.000 C 
ATOM     20  O   UNK A   0     -10.080   5.265 129.159  0.00  0.00    +0.000 OA
ATOM     21  N   ALA A   1     -11.023   7.335 129.440  0.00  0.00    +0.000 N 
ATOM     22  H   ALA A   1     -11.089   8.153 130.035  0.00  0.00    +0.000 HD
BRANCH  21  23
ATOM     23  CA  ALA A   1     -11.747   7.310 128.167  0.00  0.00    +0.000 C 
ATOM     24  CB  ALA A   1     -12.924   8.291 128.182  0.00  0.00    +0.000 C 
BRANCH  23  25
ATOM     25  C   ALA A   1     -10.822   7.637 126.977  0.00  0.00    +0.000 C 
BRANCH  25  26
ATOM     26  O   ALA A   1     -10.427   6.470 126.262  0.00  0.00    +0.000 OA
ATOM     27  H   ALA A   1      -9.506   6.267 126.502  0.00  0.00    +0.000 HD
ENDBRANCH  25  26
ENDBRANCH  23  25
ENDBRANCH  21  23
ENDBRANCH  14  19
TORSDOF 4
ENDMDL
MODEL 2
REMARK VINA RESULT:      -7.4      7.977      9.357
REMARK  Name = Ergometrine
REMARK  6 active torsions:
REMARK  status: ('A' for Active; 'I' for Inactive)
REMARK    1  A    between atoms: C_15  and  C_19
REMARK    2  A    between atoms: N_17  and  C_18
REMARK    3  A    between atoms: N_21  and  CA_22
REMARK    4  A    between atoms: CA_22  and  CB_23
REMARK    5  A    between atoms: CA_22  and  C_24
REMARK    6  A    between atoms: C_24  and  O_25
REMARK                            x       y       z     vdW  Elec       q    Type
REMARK                         _______ _______ _______ _____ _____    ______ ____
ROOT
ATOM      1  C   UNK A   0      -8.579  -1.535 125.518  0.00  0.00    +0.000 C 
ATOM      2  C   UNK A   0      -8.912  -2.863 126.291  0.00  0.00    +0.000 C 
ATOM      3  C   UNK A   0      -8.246  -2.876 127.619  0.00  0.00    +0.000 A 
ATOM      4  C   UNK A   0      -7.829  -3.882 128.457  0.00  0.00    +0.000 A 
ATOM      5  N   UNK A   0      -7.308  -3.286 129.585  0.00  0.00    +0.000 N 
ATOM      6  C   UNK A   0      -7.374  -1.913 129.478  0.00  0.00    +0.000 A 
ATOM      7  C   UNK A   0      -6.995  -0.880 130.338  0.00  0.00    +0.000 A 
ATOM      8  C   UNK A   0      -7.205   0.433 129.885  0.00  0.00    +0.000 A 
ATOM      9  C   UNK A   0      -7.753   0.703 128.625  0.00  0.00    +0.000 A 
ATOM     10  C   UNK A   0      -8.131  -0.342 127.777  0.00  0.00    +0.000 A 
ATOM     11  C   UNK A   0      -7.937  -1.650 128.242  0.00  0.00    +0.000 A 
ATOM     12  C   UNK A   0      -8.676  -0.253 126.404  0.00  0.00    +0.000 C 
ATOM     13  C   UNK A   0      -9.205   0.898 125.943  0.00  0.00    +0.000 C 
ATOM     14  C   UNK A   0      -9.635   1.050 124.505  0.00  0.00    +0.000 C 
ATOM     15  C   UNK A   0      -9.128  -0.123 123.641  0.00  0.00    +0.000 C 
ATOM     16  N   UNK A   0      -9.424  -1.414 124.292  0.00  0.00    +0.000 NA
ATOM     17  C   UNK A   0      -9.189  -2.511 123.354  0.00  0.00    +0.000 C 
ATOM     18  H   UNK A   0      -6.932  -3.783 130.381  0.00  0.00    +0.000 HD
ENDROOT
BRANCH  14  19
ATOM     19  C   UNK A   0      -9.062   2.360 123.956  0.00  0.00    +0.000 C 
ATOM     20  O   UNK A   0      -8.931   3.372 124.647  0.00  0.00    +0.000 OA
ATOM     21  N   ALA A   1      -8.717   2.330 122.616  0.00  0.00    +0.000 N 
ATOM     22  H   ALA A   1      -8.895   1.487 122.084  0.00  0.00    +0.000 HD
BRANCH  21  23
ATOM     23  CA  ALA A   1      -8.097   3.482 121.956  0.00  0.00    +0.000 C 
ATOM     24  CB  ALA A   1      -6.598   3.250 121.736  0.00  0.00    +0.000 C 
BRANCH  23  25
ATOM     25  C   ALA A   1      -8.771   3.799 120.606  0.00  0.00    +0.000 C 
BRANCH  25  26
ATOM     26  O   ALA A   1      -7.831   4.198 119.613  0.00  0.00    +0.000 OA
ATOM     27  H   ALA A   1      -6.941   3.974 119.934  0.00  0.00    +0.000 HD
ENDBRANCH  25  26
ENDBRANCH  23  25
ENDBRANCH  21  23
ENDBRANCH  14  19
TORSDOF 4
ENDMDL
MODEL 3
REMARK VINA RESULT:      -7.1      8.726     11.000
REMARK  Name = Ergometrine
REMARK  6 active torsions:
REMARK  status: ('A' for Active; 'I' for Inactive)
REMARK    1  A    between atoms: C_15  and  C_19
REMARK    2  A    between atoms: N_17  and  C_18
REMARK    3  A    between atoms: N_21  and  CA_22
REMARK    4  A    between atoms: CA_22  and  CB_23
REMARK    5  A    between atoms: CA_22  and  C_24
REMARK    6  A    between atoms: C_24  and  O_25
REMARK                            x       y       z     vdW  Elec       q    Type
REMARK                         _______ _______ _______ _____ _____    ______ ____
ROOT
ATOM      1  C   UNK A   0      -7.943   0.455 127.165  0.00  0.00    +0.000 C 
ATOM      2  C   UNK A   0      -8.992   1.040 126.151  0.00  0.00    +0.000 C 
ATOM      3  C   UNK A   0      -9.071   0.192 124.934  0.00  0.00    +0.000 A 
ATOM      4  C   UNK A   0      -9.432   0.440 123.631  0.00  0.00    +0.000 A 
ATOM      5  N   UNK A   0      -9.350  -0.755 122.948  0.00  0.00    +0.000 N 
ATOM      6  C   UNK A   0      -8.931  -1.763 123.792  0.00  0.00    +0.000 A 
ATOM      7  C   UNK A   0      -8.706  -3.127 123.593  0.00  0.00    +0.000 A 
ATOM      8  C   UNK A   0      -8.261  -3.866 124.702  0.00  0.00    +0.000 A 
ATOM      9  C   UNK A   0      -8.037  -3.267 125.948  0.00  0.00    +0.000 A 
ATOM     10  C   UNK A   0      -8.271  -1.901 126.132  0.00  0.00    +0.000 A 
ATOM     11  C   UNK A   0      -8.733  -1.173 125.028  0.00  0.00    +0.000 A 
ATOM     12  C   UNK A   0      -8.046  -1.092 127.351  0.00  0.00    +0.000 C 
ATOM     13  C   UNK A   0      -7.912  -1.679 128.557  0.00  0.00    +0.000 C 
ATOM     14  C   UNK A   0      -7.542  -0.886 129.786  0.00  0.00    +0.000 C 
ATOM     15  C   UNK A   0      -7.077   0.537 129.416  0.00  0.00    +0.000 C 
ATOM     16  N   UNK A   0      -8.026   1.167 128.476  0.00  0.00    +0.000 NA
ATOM     17  C   UNK A   0      -7.728   2.592 128.346  0.00  0.00    +0.000 C 
ATOM     18  H   UNK A   0      -9.568  -0.878 121.970  0.00  0.00    +0.000 HD
ENDROOT
BRANCH  14  19
ATOM     19  C   UNK A   0      -6.407  -1.610 130.515  0.00  0.00    +0.000 C 
ATOM     20  O   UNK A   0      -6.024  -1.287 131.640  0.00  0.00    +0.000 OA
ATOM     21  N   ALA A   1      -5.827  -2.650 129.807  0.00  0.00    +0.000 N 
ATOM     22  H   ALA A   1      -6.148  -2.838 128.865  0.00  0.00    +0.000 HD
BRANCH  21  23
ATOM     23  CA  ALA A   1      -4.772  -3.481 130.390  0.00  0.00    +0.000 C 
ATOM     24  CB  ALA A   1      -5.300  -4.877 130.739  0.00  0.00    +0.000 C 
BRANCH  23  25
ATOM     25  C   ALA A   1      -3.560  -3.613 129.445  0.00  0.00    +0.000 C 
BRANCH  25  26
ATOM     26  O   ALA A   1      -2.636  -2.540 129.597  0.00  0.00    +0.000 OA
ATOM     27  H   ALA A   1      -3.054  -1.860 130.154  0.00  0.00    +0.000 HD
ENDBRANCH  25  26
ENDBRANCH  23  25
ENDBRANCH  21  23
ENDBRANCH  14  19
TORSDOF 4
ENDMDL
MODEL 4
REMARK VINA RESULT:      -7.0      8.124     10.454
REMARK  Name = Ergometrine
REMARK  6 active torsions:
REMARK  status: ('A' for Active; 'I' for Inactive)
REMARK    1  A    between atoms: C_15  and  C_19
REMARK    2  A    between atoms: N_17  and  C_18
REMARK    3  A    between atoms: N_21  and  CA_22
REMARK    4  A    between atoms: CA_22  and  CB_23
REMARK    5  A    between atoms: CA_22  and  C_24
REMARK    6  A    between atoms: C_24  and  O_25
REMARK                            x       y       z     vdW  Elec       q    Type
REMARK                         _______ _______ _______ _____ _____    ______ ____
ROOT
ATOM      1  C   UNK A   0      -7.279   0.687 124.370  0.00  0.00    +0.000 C 
ATOM      2  C   UNK A   0      -8.474   0.134 123.513  0.00  0.00    +0.000 C 
ATOM      3  C   UNK A   0      -8.829  -1.245 123.938  0.00  0.00    +0.000 A 
ATOM      4  C   UNK A   0      -9.422  -2.307 123.299  0.00  0.00    +0.000 A 
ATOM      5  N   UNK A   0      -9.531  -3.329 124.219  0.00  0.00    +0.000 N 
ATOM      6  C   UNK A   0      -9.006  -2.941 125.433  0.00  0.00    +0.000 A 
ATOM      7  C   UNK A   0      -8.889  -3.594 126.663  0.00  0.00    +0.000 A 
ATOM      8  C   UNK A   0      -8.274  -2.880 127.705  0.00  0.00    +0.000 A 
ATOM      9  C   UNK A   0      -7.785  -1.581 127.524  0.00  0.00    +0.000 A 
ATOM     10  C   UNK A   0      -7.913  -0.940 126.289  0.00  0.00    +0.000 A 
ATOM     11  C   UNK A   0      -8.544  -1.649 125.258  0.00  0.00    +0.000 A 
ATOM     12  C   UNK A   0      -7.418   0.399 125.899  0.00  0.00    +0.000 C 
ATOM     13  C   UNK A   0      -7.081   1.312 126.833  0.00  0.00    +0.000 C 
ATOM     14  C   UNK A   0      -6.443   2.627 126.459  0.00  0.00    +0.000 C 
ATOM     15  C   UNK A   0      -5.991   2.632 124.984  0.00  0.00    +0.000 C 
ATOM     16  N   UNK A   0      -7.073   2.143 124.107  0.00  0.00    +0.000 NA
ATOM     17  C   UNK A   0      -6.737   2.405 122.709  0.00  0.00    +0.000 C 
ATOM     18  H   UNK A   0      -9.940  -4.234 124.032  0.00  0.00    +0.000 HD
ENDROOT
BRANCH  14  19
ATOM     19  C   UNK A   0      -5.224   2.855 127.358  0.00  0.00    +0.000 C 
ATOM     20  O   UNK A   0      -5.279   2.786 128.586  0.00  0.00    +0.000 OA
ATOM     21  N   ALA A   1      -4.053   3.163 126.686  0.00  0.00    +0.000 N 
ATOM     22  H   ALA A   1      -4.079   3.257 125.678  0.00  0.00    +0.000 HD
BRANCH  21  23
ATOM     23  CA  ALA A   1      -2.786   3.347 127.397  0.00  0.00    +0.000 C 
ATOM     24  CB  ALA A   1      -1.595   2.986 126.502  0.00  0.00    +0.000 C 
BRANCH  23  25
ATOM     25  C   ALA A   1      -2.623   4.792 127.910  0.00  0.00    +0.000 C 
BRANCH  25  26
ATOM     26  O   ALA A   1      -3.143   4.961 129.225  0.00  0.00    +0.000 OA
ATOM     27  H   ALA A   1      -2.577   5.600 129.692  0.00  0.00    +0.000 HD
ENDBRANCH  25  26
ENDBRANCH  23  25
ENDBRANCH  21  23
ENDBRANCH  14  19
TORSDOF 4
ENDMDL
MODEL 5
REMARK VINA RESULT:      -6.8      8.874     11.372
REMARK  Name = Ergometrine
REMARK  6 active torsions:
REMARK  status: ('A' for Active; 'I' for Inactive)
REMARK    1  A    between atoms: C_15  and  C_19
REMARK    2  A    between atoms: N_17  and  C_18
REMARK    3  A    between atoms: N_21  and  CA_22
REMARK    4  A    between atoms: CA_22  and  CB_23
REMARK    5  A    between atoms: CA_22  and  C_24
REMARK    6  A    between atoms: C_24  and  O_25
REMARK                            x       y       z     vdW  Elec       q    Type
REMARK                         _______ _______ _______ _____ _____    ______ ____
ROOT
ATOM      1  C   UNK A   0      -7.502  -0.444 128.123  0.00  0.00    +0.000 C 
ATOM      2  C   UNK A   0      -8.351   0.621 127.339  0.00  0.00    +0.000 C 
ATOM      3  C   UNK A   0      -8.582   0.178 125.940  0.00  0.00    +0.000 A 
ATOM      4  C   UNK A   0      -8.830   0.848 124.766  0.00  0.00    +0.000 A 
ATOM      5  N   UNK A   0      -9.001  -0.101 123.780  0.00  0.00    +0.000 N 
ATOM      6  C   UNK A   0      -8.855  -1.369 124.303  0.00  0.00    +0.000 A 
ATOM      7  C   UNK A   0      -8.943  -2.641 123.733  0.00  0.00    +0.000 A 
ATOM      8  C   UNK A   0      -8.719  -3.736 124.585  0.00  0.00    +0.000 A 
ATOM      9  C   UNK A   0      -8.407  -3.568 125.939  0.00  0.00    +0.000 A 
ATOM     10  C   UNK A   0      -8.326  -2.288 126.496  0.00  0.00    +0.000 A 
ATOM     11  C   UNK A   0      -8.570  -1.200 125.647  0.00  0.00    +0.000 A 
ATOM     12  C   UNK A   0      -7.964  -1.916 127.882  0.00  0.00    +0.000 C 
ATOM     13  C   UNK A   0      -8.011  -2.824 128.877  0.00  0.00    +0.000 C 
ATOM     14  C   UNK A   0      -7.512  -2.504 130.264  0.00  0.00    +0.000 C 
ATOM     15  C   UNK A   0      -6.719  -1.180 130.283  0.00  0.00    +0.000 C 
ATOM     16  N   UNK A   0      -7.465  -0.117 129.580  0.00  0.00    +0.000 NA
ATOM     17  C   UNK A   0      -6.842   1.180 129.835  0.00  0.00    +0.000 C 
ATOM     18  H   UNK A   0      -9.207   0.101 122.812  0.00  0.00    +0.000 HD
ENDROOT
BRANCH  14  19
ATOM     19  C   UNK A   0      -6.599  -3.641 130.734  0.00  0.00    +0.000 C 
ATOM     20  O   UNK A   0      -6.091  -4.451 129.959  0.00  0.00    +0.000 OA
ATOM     21  N   ALA A   1      -6.400  -3.701 132.103  0.00  0.00    +0.000 N 
ATOM     22  H   ALA A   1      -6.885  -3.040 132.697  0.00  0.00    +0.000 HD
BRANCH  21  23
ATOM     23  CA  ALA A   1      -5.504  -4.691 132.705  0.00  0.00    +0.000 C 
ATOM     24  CB  ALA A   1      -4.118  -4.092 132.967  0.00  0.00    +0.000 C 
BRANCH  23  25
ATOM     25  C   ALA A   1      -6.077  -5.255 134.021  0.00  0.00    +0.000 C 
BRANCH  25  26
ATOM     26  O   ALA A   1      -7.177  -4.490 134.504  0.00  0.00    +0.000 OA
ATOM     27  H   ALA A   1      -6.965  -3.548 134.381  0.00  0.00    +0.000 HD
ENDBRANCH  25  26
ENDBRANCH  23  25
ENDBRANCH  21  23
ENDBRANCH  14  19
TORSDOF 4
ENDMDL
MODEL 6
REMARK VINA RESULT:      -6.7      7.966      9.472
REMARK  Name = Ergometrine
REMARK  6 active torsions:
REMARK  status: ('A' for Active; 'I' for Inactive)
REMARK    1  A    between atoms: C_15  and  C_19
REMARK    2  A    between atoms: N_17  and  C_18
REMARK    3  A    between atoms: N_21  and  CA_22
REMARK    4  A    between atoms: CA_22  and  CB_23
REMARK    5  A    between atoms: CA_22  and  C_24
REMARK    6  A    between atoms: C_24  and  O_25
REMARK                            x       y       z     vdW  Elec       q    Type
REMARK                         _______ _______ _______ _____ _____    ______ ____
ROOT
ATOM      1  C   UNK A   0      -7.261  -0.866 129.017  0.00  0.00    +0.000 C 
ATOM      2  C   UNK A   0      -7.964  -2.272 128.995  0.00  0.00    +0.000 C 
ATOM      3  C   UNK A   0      -8.109  -2.762 127.600  0.00  0.00    +0.000 A 
ATOM      4  C   UNK A   0      -8.985  -3.627 126.989  0.00  0.00    +0.000 A 
ATOM      5  N   UNK A   0      -8.604  -3.730 125.668  0.00  0.00    +0.000 N 
ATOM      6  C   UNK A   0      -7.504  -2.936 125.421  0.00  0.00    +0.000 A 
ATOM      7  C   UNK A   0      -6.747  -2.703 124.271  0.00  0.00    +0.000 A 
ATOM      8  C   UNK A   0      -5.677  -1.801 124.386  0.00  0.00    +0.000 A 
ATOM      9  C   UNK A   0      -5.386  -1.149 125.590  0.00  0.00    +0.000 A 
ATOM     10  C   UNK A   0      -6.150  -1.394 126.734  0.00  0.00    +0.000 A 
ATOM     11  C   UNK A   0      -7.205  -2.310 126.618  0.00  0.00    +0.000 A 
ATOM     12  C   UNK A   0      -6.024  -0.768 128.069  0.00  0.00    +0.000 C 
ATOM     13  C   UNK A   0      -4.897  -0.123 128.427  0.00  0.00    +0.000 C 
ATOM     14  C   UNK A   0      -4.801   0.641 129.725  0.00  0.00    +0.000 C 
ATOM     15  C   UNK A   0      -6.188   0.811 130.379  0.00  0.00    +0.000 C 
ATOM     16  N   UNK A   0      -6.907  -0.478 130.416  0.00  0.00    +0.000 NA
ATOM     17  C   UNK A   0      -8.088  -0.365 131.269  0.00  0.00    +0.000 C 
ATOM     18  H   UNK A   0      -9.063  -4.308 124.977  0.00  0.00    +0.000 HD
ENDROOT
BRANCH  14  19
ATOM     19  C   UNK A   0      -4.209   2.024 129.438  0.00  0.00    +0.000 C 
ATOM     20  O   UNK A   0      -4.140   2.910 130.292  0.00  0.00    +0.000 OA
ATOM     21  N   ALA A   1      -3.771   2.214 128.139  0.00  0.00    +0.000 N 
ATOM     22  H   ALA A   1      -3.901   1.469 127.465  0.00  0.00    +0.000 HD
BRANCH  21  23
ATOM     23  CA  ALA A   1      -3.123   3.460 127.721  0.00  0.00    +0.000 C 
ATOM     24  CB  ALA A   1      -1.880   3.176 126.871  0.00  0.00    +0.000 C 
BRANCH  23  25
ATOM     25  C   ALA A   1      -4.087   4.369 126.932  0.00  0.00    +0.000 C 
BRANCH  25  26
ATOM     26  O   ALA A   1      -4.791   5.274 127.778  0.00  0.00    +0.000 OA
ATOM     27  H   ALA A   1      -5.729   5.016 127.780  0.00  0.00    +0.000 HD
ENDBRANCH  25  26
ENDBRANCH  23  25
ENDBRANCH  21  23
ENDBRANCH  14  19
TORSDOF 4
ENDMDL
MODEL 7
REMARK VINA RESULT:      -6.7      4.067      5.402
REMARK  Name = Ergometrine
REMARK  6 active torsions:
REMARK  status: ('A' for Active; 'I' for Inactive)
REMARK    1  A    between atoms: C_15  and  C_19
REMARK    2  A    between atoms: N_17  and  C_18
REMARK    3  A    between atoms: N_21  and  CA_22
REMARK    4  A    between atoms: CA_22  and  CB_23
REMARK    5  A    between atoms: CA_22  and  C_24
REMARK    6  A    between atoms: C_24  and  O_25
REMARK                            x       y       z     vdW  Elec       q    Type
REMARK                         _______ _______ _______ _____ _____    ______ ____
ROOT
ATOM      1  C   UNK A   0      -8.938   2.673 131.627  0.00  0.00    +0.000 C 
ATOM      2  C   UNK A   0      -8.104   1.619 132.443  0.00  0.00    +0.000 C 
ATOM      3  C   UNK A   0      -7.941   0.366 131.662  0.00  0.00    +0.000 A 
ATOM      4  C   UNK A   0      -7.731  -0.946 132.014  0.00  0.00    +0.000 A 
ATOM      5  N   UNK A   0      -7.618  -1.671 130.847  0.00  0.00    +0.000 N 
ATOM      6  C   UNK A   0      -7.762  -0.845 129.752  0.00  0.00    +0.000 A 
ATOM      7  C   UNK A   0      -7.720  -1.084 128.377  0.00  0.00    +0.000 A 
ATOM      8  C   UNK A   0      -7.926   0.020 127.532  0.00  0.00    +0.000 A 
ATOM      9  C   UNK A   0      -8.177   1.301 128.038  0.00  0.00    +0.000 A 
ATOM     10  C   UNK A   0      -8.213   1.526 129.417  0.00  0.00    +0.000 A 
ATOM     11  C   UNK A   0      -7.988   0.425 130.255  0.00  0.00    +0.000 A 
ATOM     12  C   UNK A   0      -8.510   2.788 130.129  0.00  0.00    +0.000 C 
ATOM     13  C   UNK A   0      -8.436   3.975 129.495  0.00  0.00    +0.000 C 
ATOM     14  C   UNK A   0      -8.871   5.257 130.161  0.00  0.00    +0.000 C 
ATOM     15  C   UNK A   0      -9.641   4.976 131.469  0.00  0.00    +0.000 C 
ATOM     16  N   UNK A   0      -8.908   4.004 132.305  0.00  0.00    +0.000 NA
ATOM     17  C   UNK A   0      -9.498   3.953 133.641  0.00  0.00    +0.000 C 
ATOM     18  H   UNK A   0      -7.449  -2.666 130.797  0.00  0.00    +0.000 HD
ENDROOT
BRANCH  14  19
ATOM     19  C   UNK A   0      -9.782   6.027 129.200  0.00  0.00    +0.000 C 
ATOM     20  O   UNK A   0      -9.573   6.087 127.988  0.00  0.00    +0.000 OA
ATOM     21  N   ALA A   1     -10.853   6.668 129.799  0.00  0.00    +0.000 N 
ATOM     22  H   ALA A   1     -10.946   6.627 130.807  0.00  0.00    +0.000 HD
BRANCH  21  23
ATOM     23  CA  ALA A   1     -11.851   7.394 129.011  0.00  0.00    +0.000 C 
ATOM     24  CB  ALA A   1     -13.065   6.509 128.709  0.00  0.00    +0.000 C 
BRANCH  23  25
ATOM     25  C   ALA A   1     -12.318   8.679 129.724  0.00  0.00    +0.000 C 
BRANCH  25  26
ATOM     26  O   ALA A   1     -12.672   9.710 128.806  0.00  0.00    +0.000 OA
ATOM     27  H   ALA A   1     -12.908   9.291 127.960  0.00  0.00    +0.000 HD
ENDBRANCH  25  26
ENDBRANCH  23  25
ENDBRANCH  21  23
ENDBRANCH  14  19
TORSDOF 4
ENDMDL
MODEL 8
REMARK VINA RESULT:      -6.5      6.964      9.063
REMARK  Name = Ergometrine
REMARK  6 active torsions:
REMARK  status: ('A' for Active; 'I' for Inactive)
REMARK    1  A    between atoms: C_15  and  C_19
REMARK    2  A    between atoms: N_17  and  C_18
REMARK    3  A    between atoms: N_21  and  CA_22
REMARK    4  A    between atoms: CA_22  and  CB_23
REMARK    5  A    between atoms: CA_22  and  C_24
REMARK    6  A    between atoms: C_24  and  O_25
REMARK                            x       y       z     vdW  Elec       q    Type
REMARK                         _______ _______ _______ _____ _____    ______ ____
ROOT
ATOM      1  C   UNK A   0      -8.264   1.039 125.983  0.00  0.00    +0.000 C 
ATOM      2  C   UNK A   0      -9.272  -0.019 125.404  0.00  0.00    +0.000 C 
ATOM      3  C   UNK A   0      -8.975  -1.372 125.942  0.00  0.00    +0.000 A 
ATOM      4  C   UNK A   0      -9.201  -2.644 125.475  0.00  0.00    +0.000 A 
ATOM      5  N   UNK A   0      -8.739  -3.521 126.433  0.00  0.00    +0.000 N 
ATOM      6  C   UNK A   0      -8.211  -2.829 127.503  0.00  0.00    +0.000 A 
ATOM      7  C   UNK A   0      -7.638  -3.246 128.706  0.00  0.00    +0.000 A 
ATOM      8  C   UNK A   0      -7.186  -2.241 129.577  0.00  0.00    +0.000 A 
ATOM      9  C   UNK A   0      -7.288  -0.882 129.254  0.00  0.00    +0.000 A 
ATOM     10  C   UNK A   0      -7.867  -0.480 128.048  0.00  0.00    +0.000 A 
ATOM     11  C   UNK A   0      -8.334  -1.486 127.191  0.00  0.00    +0.000 A 
ATOM     12  C   UNK A   0      -8.016   0.894 127.518  0.00  0.00    +0.000 C 
ATOM     13  C   UNK A   0      -7.912   1.964 128.331  0.00  0.00    +0.000 C 
ATOM     14  C   UNK A   0      -7.919   3.372 127.790  0.00  0.00    +0.000 C 
ATOM     15  C   UNK A   0      -7.764   3.384 126.255  0.00  0.00    +0.000 C 
ATOM     16  N   UNK A   0      -8.698   2.425 125.631  0.00  0.00    +0.000 NA
ATOM     17  C   UNK A   0      -8.737   2.637 124.186  0.00  0.00    +0.000 C 
ATOM     18  H   UNK A   0      -8.783  -4.528 126.365  0.00  0.00    +0.000 HD
ENDROOT
BRANCH  14  19
ATOM     19  C   UNK A   0      -6.754   4.146 128.416  0.00  0.00    +0.000 C 
ATOM     20  O   UNK A   0      -6.919   5.054 129.231  0.00  0.00    +0.000 OA
ATOM     21  N   ALA A   1      -5.497   3.758 127.985  0.00  0.00    +0.000 N 
ATOM     22  H   ALA A   1      -5.424   3.040 127.274  0.00  0.00    +0.000 HD
BRANCH  21  23
ATOM     23  CA  ALA A   1      -4.278   4.356 128.534  0.00  0.00    +0.000 C 
ATOM     24  CB  ALA A   1      -3.761   3.551 129.731  0.00  0.00    +0.000 C 
BRANCH  23  25
ATOM     25  C   ALA A   1      -3.166   4.467 127.472  0.00  0.00    +0.000 C 
BRANCH  25  26
ATOM     26  O   ALA A   1      -2.168   5.417 127.831  0.00  0.00    +0.000 OA
ATOM     27  H   ALA A   1      -1.309   4.960 127.847  0.00  0.00    +0.000 HD
ENDBRANCH  25  26
ENDBRANCH  23  25
ENDBRANCH  21  23
ENDBRANCH  14  19
TORSDOF 4
ENDMDL
MODEL 9
REMARK VINA RESULT:      -6.5      7.146      8.353
REMARK  Name = Ergometrine
REMARK  6 active torsions:
REMARK  status: ('A' for Active; 'I' for Inactive)
REMARK    1  A    between atoms: C_15  and  C_19
REMARK    2  A    between atoms: N_17  and  C_18
REMARK    3  A    between atoms: N_21  and  CA_22
REMARK    4  A    between atoms: CA_22  and  CB_23
REMARK    5  A    between atoms: CA_22  and  C_24
REMARK    6  A    between atoms: C_24  and  O_25
REMARK                            x       y       z     vdW  Elec       q    Type
REMARK                         _______ _______ _______ _____ _____    ______ ____
ROOT
ATOM      1  C   UNK A   0      -5.751  -1.032 130.877  0.00  0.00    +0.000 C 
ATOM      2  C   UNK A   0      -5.055  -0.609 132.222  0.00  0.00    +0.000 C 
ATOM      3  C   UNK A   0      -5.708   0.597 132.791  0.00  0.00    +0.000 A 
ATOM      4  C   UNK A   0      -5.276   1.602 133.623  0.00  0.00    +0.000 A 
ATOM      5  N   UNK A   0      -6.348   2.440 133.845  0.00  0.00    +0.000 N 
ATOM      6  C   UNK A   0      -7.457   1.994 133.158  0.00  0.00    +0.000 A 
ATOM      7  C   UNK A   0      -8.765   2.475 133.064  0.00  0.00    +0.000 A 
ATOM      8  C   UNK A   0      -9.649   1.756 132.243  0.00  0.00    +0.000 A 
ATOM      9  C   UNK A   0      -9.242   0.618 131.536  0.00  0.00    +0.000 A 
ATOM     10  C   UNK A   0      -7.930   0.146 131.643  0.00  0.00    +0.000 A 
ATOM     11  C   UNK A   0      -7.058   0.857 132.479  0.00  0.00    +0.000 A 
ATOM     12  C   UNK A   0      -7.311  -0.999 130.941  0.00  0.00    +0.000 C 
ATOM     13  C   UNK A   0      -8.072  -1.951 130.364  0.00  0.00    +0.000 C 
ATOM     14  C   UNK A   0      -7.465  -3.048 129.525  0.00  0.00    +0.000 C 
ATOM     15  C   UNK A   0      -5.985  -2.753 129.202  0.00  0.00    +0.000 C 
ATOM     16  N   UNK A   0      -5.253  -2.367 130.425  0.00  0.00    +0.000 NA
ATOM     17  C   UNK A   0      -3.815  -2.355 130.163  0.00  0.00    +0.000 C 
ATOM     18  H   UNK A   0      -6.326   3.264 134.430  0.00  0.00    +0.000 HD
ENDROOT
BRANCH  14  19
ATOM     19  C   UNK A   0      -8.250  -3.157 128.214  0.00  0.00    +0.000 C 
ATOM     20  O   UNK A   0      -8.984  -4.111 127.954  0.00  0.00    +0.000 OA
ATOM     21  N   ALA A   1      -8.062  -2.106 127.332  0.00  0.00    +0.000 N 
ATOM     22  H   ALA A   1      -7.407  -1.373 127.577  0.00  0.00    +0.000 HD
BRANCH  21  23
ATOM     23  CA  ALA A   1      -8.789  -2.029 126.063  0.00  0.00    +0.000 C 
ATOM     24  CB  ALA A   1      -9.096  -0.575 125.692  0.00  0.00    +0.000 C 
BRANCH  23  25
ATOM     25  C   ALA A   1      -8.008  -2.698 124.914  0.00  0.00    +0.000 C 
BRANCH  25  26
ATOM     26  O   ALA A   1      -8.154  -4.116 124.914  0.00  0.00    +0.000 OA
ATOM     27  H   ALA A   1      -8.743  -4.357 124.179  0.00  0.00    +0.000 HD
ENDBRANCH  25  26
ENDBRANCH  23  25
ENDBRANCH  21  23
ENDBRANCH  14  19
TORSDOF 4
ENDMDL
