MODEL 1
REMARK VINA RESULT:     -11.5      0.000      0.000
REMARK  Name = Ergotamine
REMARK  7 active torsions:
REMARK  status: ('A' for Active; 'I' for Inactive)
REMARK    1  A    between atoms: C_9  and  C_10
REMARK    2  A    between atoms: C_10  and  C_11
REMARK    3  A    between atoms: C_20  and  C_21
REMARK    4  A    between atoms: C_20  and  N_22
REMARK    5  A    between atoms: C_23  and  C_25
REMARK    6  A    between atoms: N_27  and  C_28
REMARK    7  A    between atoms: C_44  and  O_45
REMARK                            x       y       z     vdW  Elec       q    Type
REMARK                         _______ _______ _______ _____ _____    ______ ____
ROOT
ATOM      1  C   UNL     1      -7.908   2.692 122.781  0.00  0.00    +0.000 C 
ATOM      2  C   UNL     1      -8.649   3.097 121.494  0.00  0.00    +0.000 C 
ATOM      3  C   UNL     1      -7.667   3.831 120.613  0.00  0.00    +0.000 C 
ATOM      4  C   UNL     1      -6.331   3.730 121.292  0.00  0.00    +0.000 C 
ATOM      5  N   UNL     1      -6.600   3.256 122.626  0.00  0.00    +0.000 N 
ATOM      6  C   UNL     1      -6.099   3.865 123.720  0.00  0.00    +0.000 C 
ATOM      7  O   UNL     1      -5.573   4.962 123.576  0.00  0.00    +0.000 OA
ATOM      8  C   UNL     1      -6.476   3.329 125.084  0.00  0.00    +0.000 C 
ATOM      9  N   UNL     1      -7.613   2.275 124.841  0.00  0.00    +0.000 N 
ATOM     10  C   UNL     1      -8.144   1.518 125.922  0.00  0.00    +0.000 C 
ATOM     11  O   UNL     1      -8.646   0.437 125.629  0.00  0.00    +0.000 OA
ATOM     12  C   UNL     1      -7.604   2.064 127.331  0.00  0.00    +0.000 C 
ATOM     13  C   UNL     1      -6.569   0.550 127.671  0.00  0.00    +0.000 C 
ATOM     14  O   UNL     1      -8.452   3.268 126.083  0.00  0.00    +0.000 OA
ATOM     15  C   UNL     1      -8.675   3.000 124.334  0.00  0.00    +0.000 C 
ENDROOT
BRANCH  12  16
ATOM     16  N   UNL     1      -6.961   1.964 129.193  0.00  0.00    +0.000 N 
ATOM     17  C   UNL     1      -7.137   3.175 130.650  0.00  0.00    +0.000 C 
ATOM     18  O   UNL     1      -8.081   3.691 129.967  0.00  0.00    +0.000 OA
ATOM     19  H   UNL     1      -5.961   1.496 128.915  0.00  0.00    +0.000 HD
BRANCH  17  20
ATOM     20  C   UNL     1      -6.669   4.040 132.603  0.00  0.00    +0.000 C 
ATOM     21  C   UNL     1      -5.864   5.950 132.873  0.00  0.00    +0.000 C 
ATOM     22  N   UNL     1      -5.125   5.651 134.067  0.00  0.00    +0.000 NA
ATOM     23  C   UNL     1      -4.167   4.660 134.258  0.00  0.00    +0.000 C 
ATOM     24  C   UNL     1      -6.551   5.695 134.835  0.00  0.00    +0.000 C 
ATOM     25  C   UNL     1      -6.786   5.332 136.308  0.00  0.00    +0.000 C 
ATOM     26  C   UNL     1      -6.209   7.146 136.877  0.00  0.00    +0.000 A 
ATOM     27  C   UNL     1      -7.549   7.349 137.297  0.00  0.00    +0.000 A 
ATOM     28  N   UNL     1      -6.988   8.532 137.620  0.00  0.00    +0.000 N 
ATOM     29  C   UNL     1      -6.638   8.570 138.856  0.00  0.00    +0.000 A 
ATOM     30  C   UNL     1      -7.278   9.367 139.812  0.00  0.00    +0.000 A 
ATOM     31  C   UNL     1      -6.981   8.702 140.862  0.00  0.00    +0.000 A 
ATOM     32  C   UNL     1      -6.557   7.011 140.134  0.00  0.00    +0.000 A 
ATOM     33  C   UNL     1      -6.251   5.902 138.513  0.00  0.00    +0.000 A 
ATOM     34  C   UNL     1      -5.865   7.269 138.375  0.00  0.00    +0.000 A 
ATOM     35  C   UNL     1      -6.431   5.219 136.343  0.00  0.00    +0.000 C 
ATOM     36  C   UNL     1      -6.731   4.229 134.766  0.00  0.00    +0.000 C 
ATOM     37  H   UNL     1      -6.326   9.116 137.173  0.00  0.00    +0.000 HD
ENDBRANCH  17  20
ENDBRANCH  12  16
BRANCH  15  38
ATOM     38  O   UNL     1      -9.948   2.354 124.041  0.00  0.00    +0.000 OA
ATOM     39  H   UNL     1     -10.139   2.221 123.076  0.00  0.00    +0.000 HD
ENDBRANCH  15  38
BRANCH   8  40
ATOM     40  C   UNL     1      -5.447   2.584 125.845  0.00  0.00    +0.000 C 
BRANCH  40  41
ATOM     41  C   UNL     1      -4.408   3.393 126.455  0.00  0.00    +0.000 A 
ATOM     42  C   UNL     1      -3.080   3.043 126.462  0.00  0.00    +0.000 A 
ATOM     43  C   UNL     1      -2.216   3.680 127.304  0.00  0.00    +0.000 A 
ATOM     44  C   UNL     1      -2.577   4.883 127.848  0.00  0.00    +0.000 A 
ATOM     45  C   UNL     1      -3.884   5.307 127.746  0.00  0.00    +0.000 A 
ATOM     46  C   UNL     1      -4.802   4.565 127.047  0.00  0.00    +0.000 A 
ENDBRANCH  40  41
ENDBRANCH   8  40
TORSDOF 5
ENDMDL
MODEL 2
REMARK VINA RESULT:     -11.0      2.857      3.630
REMARK  Name = Ergotamine
REMARK  7 active torsions:
REMARK  status: ('A' for Active; 'I' for Inactive)
REMARK    1  A    between atoms: C_9  and  C_10
REMARK    2  A    between atoms: C_10  and  C_11
REMARK    3  A    between atoms: C_20  and  C_21
REMARK    4  A    between atoms: C_20  and  N_22
REMARK    5  A    between atoms: C_23  and  C_25
REMARK    6  A    between atoms: N_27  and  C_28
REMARK    7  A    between atoms: C_44  and  O_45
REMARK                            x       y       z     vdW  Elec       q    Type
REMARK                         _______ _______ _______ _____ _____    ______ ____
ROOT
ATOM      1  C   UNL     1      -8.008   2.706 122.869  0.00  0.00    +0.000 C 
ATOM      2  C   UNL     1      -8.868   3.061 121.644  0.00  0.00    +0.000 C 
ATOM      3  C   UNL     1      -7.964   3.711 120.625  0.00  0.00    +0.000 C 
ATOM      4  C   UNL     1      -6.567   3.606 121.168  0.00  0.00    +0.000 C 
ATOM      5  N   UNL     1      -6.708   3.217 122.548  0.00  0.00    +0.000 N 
ATOM      6  C   UNL     1      -6.081   3.871 123.547  0.00  0.00    +0.000 C 
ATOM      7  O   UNL     1      -5.543   4.940 123.284  0.00  0.00    +0.000 OA
ATOM      8  C   UNL     1      -6.327   3.425 124.972  0.00  0.00    +0.000 C 
ATOM      9  N   UNL     1      -7.510   2.397 124.910  0.00  0.00    +0.000 N 
ATOM     10  C   UNL     1      -7.946   1.720 126.083  0.00  0.00    +0.000 C 
ATOM     11  O   UNL     1      -8.503   0.641 125.908  0.00  0.00    +0.000 OA
ATOM     12  C   UNL     1      -7.247   2.327 127.394  0.00  0.00    +0.000 C 
ATOM     13  C   UNL     1      -6.223   0.803 127.716  0.00  0.00    +0.000 C 
ATOM     14  O   UNL     1      -8.189   3.486 126.170  0.00  0.00    +0.000 OA
ATOM     15  C   UNL     1      -8.600   3.126 124.472  0.00  0.00    +0.000 C 
ENDROOT
BRANCH  12  16
ATOM     16  N   UNL     1      -6.416   2.313 129.183  0.00  0.00    +0.000 N 
ATOM     17  C   UNL     1      -5.810   3.730 130.298  0.00  0.00    +0.000 C 
ATOM     18  O   UNL     1      -6.535   4.475 129.563  0.00  0.00    +0.000 OA
ATOM     19  H   UNL     1      -5.779   1.393 128.975  0.00  0.00    +0.000 HD
BRANCH  17  20
ATOM     20  C   UNL     1      -4.702   4.649 131.945  0.00  0.00    +0.000 C 
ATOM     21  C   UNL     1      -2.723   4.179 132.427  0.00  0.00    +0.000 C 
ATOM     22  N   UNL     1      -2.836   4.420 133.837  0.00  0.00    +0.000 NA
ATOM     23  C   UNL     1      -3.731   3.849 134.737  0.00  0.00    +0.000 C 
ATOM     24  C   UNL     1      -2.804   5.996 133.465  0.00  0.00    +0.000 C 
ATOM     25  C   UNL     1      -3.014   7.153 134.452  0.00  0.00    +0.000 C 
ATOM     26  C   UNL     1      -1.113   7.055 135.019  0.00  0.00    +0.000 A 
ATOM     27  C   UNL     1      -0.956   8.333 134.424  0.00  0.00    +0.000 A 
ATOM     28  N   UNL     1       0.291   8.099 134.879  0.00  0.00    +0.000 N 
ATOM     29  C   UNL     1       0.491   8.651 136.022  0.00  0.00    +0.000 A 
ATOM     30  C   UNL     1       1.345   9.745 136.209  0.00  0.00    +0.000 A 
ATOM     31  C   UNL     1       0.824  10.231 137.269  0.00  0.00    +0.000 A 
ATOM     32  C   UNL     1      -0.905   9.470 137.226  0.00  0.00    +0.000 A 
ATOM     33  C   UNL     1      -2.165   8.195 136.367  0.00  0.00    +0.000 A 
ATOM     34  C   UNL     1      -0.799   7.783 136.342  0.00  0.00    +0.000 A 
ATOM     35  C   UNL     1      -3.098   6.912 134.725  0.00  0.00    +0.000 C 
ATOM     36  C   UNL     1      -4.277   6.119 133.485  0.00  0.00    +0.000 C 
ATOM     37  H   UNL     1       0.866   7.294 134.907  0.00  0.00    +0.000 HD
ENDBRANCH  17  20
ENDBRANCH  12  16
BRANCH  15  38
ATOM     38  O   UNL     1      -9.914   2.506 124.350  0.00  0.00    +0.000 OA
ATOM     39  H   UNL     1      -9.965   1.756 123.703  0.00  0.00    +0.000 HD
ENDBRANCH  15  38
BRANCH   8  40
ATOM     40  C   UNL     1      -5.244   2.692 125.666  0.00  0.00    +0.000 C 
BRANCH  40  41
ATOM     41  C   UNL     1      -4.272   3.515 126.362  0.00  0.00    +0.000 A 
ATOM     42  C   UNL     1      -2.991   3.108 126.637  0.00  0.00    +0.000 A 
ATOM     43  C   UNL     1      -2.241   3.795 127.547  0.00  0.00    +0.000 A 
ATOM     44  C   UNL     1      -2.611   5.067 127.893  0.00  0.00    +0.000 A 
ATOM     45  C   UNL     1      -3.851   5.537 127.520  0.00  0.00    +0.000 A 
ATOM     46  C   UNL     1      -4.684   4.764 126.752  0.00  0.00    +0.000 A 
ENDBRANCH  40  41
ENDBRANCH   8  40
TORSDOF 5
ENDMDL
MODEL 3
REMARK VINA RESULT:     -10.8      4.433      6.015
REMARK  Name = Ergotamine
REMARK  7 active torsions:
REMARK  status: ('A' for Active; 'I' for Inactive)
REMARK    1  A    between atoms: C_9  and  C_10
REMARK    2  A    between atoms: C_10  and  C_11
REMARK    3  A    between atoms: C_20  and  C_21
REMARK    4  A    between atoms: C_20  and  N_22
REMARK    5  A    between atoms: C_23  and  C_25
REMARK    6  A    between atoms: N_27  and  C_28
REMARK    7  A    between atoms: C_44  and  O_45
REMARK                            x       y       z     vdW  Elec       q    Type
REMARK                         _______ _______ _______ _____ _____    ______ ____
ROOT
ATOM      1  C   UNL     1      -8.607  -0.833 124.534  0.00  0.00    +0.000 C 
ATOM      2  C   UNL     1      -8.955  -1.139 123.066  0.00  0.00    +0.000 C 
ATOM      3  C   UNL     1      -8.791  -2.624 122.858  0.00  0.00    +0.000 C 
ATOM      4  C   UNL     1      -8.502  -3.213 124.210  0.00  0.00    +0.000 C 
ATOM      5  N   UNL     1      -8.199  -2.098 125.070  0.00  0.00    +0.000 N 
ATOM      6  C   UNL     1      -7.096  -2.067 125.847  0.00  0.00    +0.000 C 
ATOM      7  O   UNL     1      -6.238  -2.922 125.658  0.00  0.00    +0.000 OA
ATOM      8  C   UNL     1      -6.830  -0.833 126.680  0.00  0.00    +0.000 C 
ATOM      9  N   UNL     1      -7.863   0.247 126.203  0.00  0.00    +0.000 N 
ATOM     10  C   UNL     1      -7.936   1.515 126.844  0.00  0.00    +0.000 C 
ATOM     11  O   UNL     1      -9.012   2.099 126.766  0.00  0.00    +0.000 OA
ATOM     12  C   UNL     1      -6.720   1.714 127.873  0.00  0.00    +0.000 C 
ATOM     13  C   UNL     1      -7.812   1.647 129.383  0.00  0.00    +0.000 C 
ATOM     14  O   UNL     1      -6.371   1.236 126.035  0.00  0.00    +0.000 OA
ATOM     15  C   UNL     1      -7.529   0.512 124.888  0.00  0.00    +0.000 C 
ENDROOT
BRANCH  12  16
ATOM     16  N   UNL     1      -5.809   2.312 129.517  0.00  0.00    +0.000 N 
ATOM     17  C   UNL     1      -5.112   4.009 130.021  0.00  0.00    +0.000 C 
ATOM     18  O   UNL     1      -5.849   4.468 129.088  0.00  0.00    +0.000 OA
ATOM     19  H   UNL     1      -5.208   1.353 129.637  0.00  0.00    +0.000 HD
BRANCH  17  20
ATOM     20  C   UNL     1      -3.904   5.413 131.184  0.00  0.00    +0.000 C 
ATOM     21  C   UNL     1      -2.247   6.436 130.424  0.00  0.00    +0.000 C 
ATOM     22  N   UNL     1      -1.519   6.509 131.659  0.00  0.00    +0.000 NA
ATOM     23  C   UNL     1      -1.136   5.464 132.494  0.00  0.00    +0.000 C 
ATOM     24  C   UNL     1      -2.561   7.675 132.084  0.00  0.00    +0.000 C 
ATOM     25  C   UNL     1      -2.638   8.348 133.461  0.00  0.00    +0.000 C 
ATOM     26  C   UNL     1      -1.161   9.584 132.973  0.00  0.00    +0.000 A 
ATOM     27  C   UNL     1      -2.124  10.625 133.033  0.00  0.00    +0.000 A 
ATOM     28  N   UNL     1      -1.013  11.312 132.698  0.00  0.00    +0.000 N 
ATOM     29  C   UNL     1      -0.447  11.830 133.729  0.00  0.00    +0.000 A 
ATOM     30  C   UNL     1      -0.419  13.207 133.978  0.00  0.00    +0.000 A 
ATOM     31  C   UNL     1      -0.272  13.180 135.247  0.00  0.00    +0.000 A 
ATOM     32  C   UNL     1      -0.867  11.436 135.662  0.00  0.00    +0.000 A 
ATOM     33  C   UNL     1      -1.463   9.657 135.003  0.00  0.00    +0.000 A 
ATOM     34  C   UNL     1      -0.506  10.306 134.167  0.00  0.00    +0.000 A 
ATOM     35  C   UNL     1      -2.382   8.112 133.597  0.00  0.00    +0.000 C 
ATOM     36  C   UNL     1      -3.431   6.744 132.833  0.00  0.00    +0.000 C 
ATOM     37  H   UNL     1      -0.258  11.128 132.086  0.00  0.00    +0.000 HD
ENDBRANCH  17  20
ENDBRANCH  12  16
BRANCH  15  38
ATOM     38  O   UNL     1      -8.245   1.526 124.125  0.00  0.00    +0.000 OA
ATOM     39  H   UNL     1      -8.662   2.244 124.668  0.00  0.00    +0.000 HD
ENDBRANCH  15  38
BRANCH   8  40
ATOM     40  C   UNL     1      -7.047  -0.923 128.142  0.00  0.00    +0.000 C 
BRANCH  40  41
ATOM     41  C   UNL     1      -6.271  -1.937 128.832  0.00  0.00    +0.000 A 
ATOM     42  C   UNL     1      -4.899  -1.978 128.825  0.00  0.00    +0.000 A 
ATOM     43  C   UNL     1      -4.253  -3.111 129.227  0.00  0.00    +0.000 A 
ATOM     44  C   UNL     1      -4.931  -4.038 129.972  0.00  0.00    +0.000 A 
ATOM     45  C   UNL     1      -6.300  -3.941 130.090  0.00  0.00    +0.000 A 
ATOM     46  C   UNL     1      -6.973  -2.890 129.523  0.00  0.00    +0.000 A 
ENDBRANCH  40  41
ENDBRANCH   8  40
TORSDOF 5
ENDMDL
MODEL 4
REMARK VINA RESULT:     -10.5      3.966      5.660
REMARK  Name = Ergotamine
REMARK  7 active torsions:
REMARK  status: ('A' for Active; 'I' for Inactive)
REMARK    1  A    between atoms: C_9  and  C_10
REMARK    2  A    between atoms: C_10  and  C_11
REMARK    3  A    between atoms: C_20  and  C_21
REMARK    4  A    between atoms: C_20  and  N_22
REMARK    5  A    between atoms: C_23  and  C_25
REMARK    6  A    between atoms: N_27  and  C_28
REMARK    7  A    between atoms: C_44  and  O_45
REMARK                            x       y       z     vdW  Elec       q    Type
REMARK                         _______ _______ _______ _____ _____    ______ ____
ROOT
ATOM      1  C   UNL     1      -8.422  -1.270 124.317  0.00  0.00    +0.000 C 
ATOM      2  C   UNL     1      -8.440  -2.614 123.568  0.00  0.00    +0.000 C 
ATOM      3  C   UNL     1      -9.057  -3.640 124.487  0.00  0.00    +0.000 C 
ATOM      4  C   UNL     1      -9.537  -2.892 125.698  0.00  0.00    +0.000 C 
ATOM      5  N   UNL     1      -8.940  -1.584 125.616  0.00  0.00    +0.000 N 
ATOM      6  C   UNL     1      -8.277  -1.030 126.652  0.00  0.00    +0.000 C 
ATOM      7  O   UNL     1      -8.008  -1.746 127.610  0.00  0.00    +0.000 OA
ATOM      8  C   UNL     1      -7.637   0.328 126.461  0.00  0.00    +0.000 C 
ATOM      9  N   UNL     1      -7.729   0.642 124.926  0.00  0.00    +0.000 N 
ATOM     10  C   UNL     1      -7.283   1.892 124.413  0.00  0.00    +0.000 C 
ATOM     11  O   UNL     1      -7.794   2.255 123.358  0.00  0.00    +0.000 OA
ATOM     12  C   UNL     1      -6.511   2.737 125.539  0.00  0.00    +0.000 C 
ATOM     13  C   UNL     1      -7.844   4.035 125.666  0.00  0.00    +0.000 C 
ATOM     14  O   UNL     1      -5.966   0.929 125.136  0.00  0.00    +0.000 OA
ATOM     15  C   UNL     1      -6.943  -0.316 124.313  0.00  0.00    +0.000 C 
ENDROOT
BRANCH  12  16
ATOM     16  N   UNL     1      -5.941   4.340 126.536  0.00  0.00    +0.000 N 
ATOM     17  C   UNL     1      -4.794   4.542 128.040  0.00  0.00    +0.000 C 
ATOM     18  O   UNL     1      -4.378   3.375 127.745  0.00  0.00    +0.000 OA
ATOM     19  H   UNL     1      -6.960   4.843 126.482  0.00  0.00    +0.000 HD
BRANCH  17  20
ATOM     20  C   UNL     1      -3.912   5.559 129.764  0.00  0.00    +0.000 C 
ATOM     21  C   UNL     1      -1.950   6.277 129.818  0.00  0.00    +0.000 C 
ATOM     22  N   UNL     1      -1.745   6.091 131.227  0.00  0.00    +0.000 NA
ATOM     23  C   UNL     1      -1.882   4.920 131.967  0.00  0.00    +0.000 C 
ATOM     24  C   UNL     1      -2.668   7.406 131.429  0.00  0.00    +0.000 C 
ATOM     25  C   UNL     1      -3.155   7.960 132.776  0.00  0.00    +0.000 C 
ATOM     26  C   UNL     1      -1.426   8.899 133.048  0.00  0.00    +0.000 A 
ATOM     27  C   UNL     1      -2.159  10.108 132.924  0.00  0.00    +0.000 A 
ATOM     28  N   UNL     1      -0.909  10.575 133.120  0.00  0.00    +0.000 N 
ATOM     29  C   UNL     1      -0.703  10.874 134.354  0.00  0.00    +0.000 A 
ATOM     30  C   UNL     1      -0.552  12.188 134.811  0.00  0.00    +0.000 A 
ATOM     31  C   UNL     1      -0.906  12.022 136.027  0.00  0.00    +0.000 A 
ATOM     32  C   UNL     1      -1.885  10.410 135.921  0.00  0.00    +0.000 A 
ATOM     33  C   UNL     1      -2.463   8.858 134.822  0.00  0.00    +0.000 A 
ATOM     34  C   UNL     1      -1.169   9.363 134.496  0.00  0.00    +0.000 A 
ATOM     35  C   UNL     1      -3.012   7.665 132.955  0.00  0.00    +0.000 C 
ATOM     36  C   UNL     1      -3.896   6.615 131.661  0.00  0.00    +0.000 C 
ATOM     37  H   UNL     1      -0.018  10.292 132.798  0.00  0.00    +0.000 HD
ENDBRANCH  17  20
ENDBRANCH  12  16
BRANCH  15  38
ATOM     38  O   UNL     1      -6.739  -0.302 122.870  0.00  0.00    +0.000 OA
ATOM     39  H   UNL     1      -7.224  -1.009 122.371  0.00  0.00    +0.000 HD
ENDBRANCH  15  38
BRANCH   8  40
ATOM     40  C   UNL     1      -8.277   1.494 127.110  0.00  0.00    +0.000 C 
BRANCH  40  41
ATOM     41  C   UNL     1      -7.984   1.669 128.521  0.00  0.00    +0.000 A 
ATOM     42  C   UNL     1      -6.812   1.262 129.109  0.00  0.00    +0.000 A 
ATOM     43  C   UNL     1      -6.729   1.178 130.468  0.00  0.00    +0.000 A 
ATOM     44  C   UNL     1      -7.651   1.838 131.236  0.00  0.00    +0.000 A 
ATOM     45  C   UNL     1      -8.778   2.359 130.641  0.00  0.00    +0.000 A 
ATOM     46  C   UNL     1      -8.947   2.279 129.282  0.00  0.00    +0.000 A 
ENDBRANCH  40  41
ENDBRANCH   8  40
TORSDOF 5
ENDMDL
MODEL 5
REMARK VINA RESULT:     -10.3      2.806      3.960
REMARK  Name = Ergotamine
REMARK  7 active torsions:
REMARK  status: ('A' for Active; 'I' for Inactive)
REMARK    1  A    between atoms: C_9  and  C_10
REMARK    2  A    between atoms: C_10  and  C_11
REMARK    3  A    between atoms: C_20  and  C_21
REMARK    4  A    between atoms: C_20  and  N_22
REMARK    5  A    between atoms: C_23  and  C_25
REMARK    6  A    between atoms: N_27  and  C_28
REMARK    7  A    between atoms: C_44  and  O_45
REMARK                            x       y       z     vdW  Elec       q    Type
REMARK                         _______ _______ _______ _____ _____    ______ ____
ROOT
ATOM      1  C   UNL     1      -7.656  -2.826 126.113  0.00  0.00    +0.000 C 
ATOM      2  C   UNL     1      -8.644  -3.655 125.273  0.00  0.00    +0.000 C 
ATOM      3  C   UNL     1      -8.757  -2.995 123.920  0.00  0.00    +0.000 C 
ATOM      4  C   UNL     1      -7.743  -1.887 123.902  0.00  0.00    +0.000 C 
ATOM      5  N   UNL     1      -7.314  -1.722 125.267  0.00  0.00    +0.000 N 
ATOM      6  C   UNL     1      -7.289  -0.516 125.872  0.00  0.00    +0.000 C 
ATOM      7  O   UNL     1      -7.836   0.422 125.304  0.00  0.00    +0.000 OA
ATOM      8  C   UNL     1      -6.873  -0.442 127.325  0.00  0.00    +0.000 C 
ATOM      9  N   UNL     1      -6.801  -1.924 127.834  0.00  0.00    +0.000 N 
ATOM     10  C   UNL     1      -6.358  -2.217 129.154  0.00  0.00    +0.000 C 
ATOM     11  O   UNL     1      -5.884  -3.335 129.329  0.00  0.00    +0.000 OA
ATOM     12  C   UNL     1      -6.206  -0.877 130.024  0.00  0.00    +0.000 C 
ATOM     13  C   UNL     1      -4.346  -0.984 130.107  0.00  0.00    +0.000 C 
ATOM     14  O   UNL     1      -7.869  -1.267 129.123  0.00  0.00    +0.000 OA
ATOM     15  C   UNL     1      -8.098  -2.395 127.762  0.00  0.00    +0.000 C 
ENDROOT
BRANCH  12  16
ATOM     16  N   UNL     1      -5.416   0.347 131.354  0.00  0.00    +0.000 N 
ATOM     17  C   UNL     1      -6.211   1.637 132.503  0.00  0.00    +0.000 C 
ATOM     18  O   UNL     1      -7.299   1.016 132.270  0.00  0.00    +0.000 OA
ATOM     19  H   UNL     1      -4.501   0.586 130.719  0.00  0.00    +0.000 HD
BRANCH  17  20
ATOM     20  C   UNL     1      -6.264   3.370 133.837  0.00  0.00    +0.000 C 
ATOM     21  C   UNL     1      -6.968   5.256 133.276  0.00  0.00    +0.000 C 
ATOM     22  N   UNL     1      -6.106   6.016 134.135  0.00  0.00    +0.000 NA
ATOM     23  C   UNL     1      -4.716   5.987 134.201  0.00  0.00    +0.000 C 
ATOM     24  C   UNL     1      -7.081   5.558 135.345  0.00  0.00    +0.000 C 
ATOM     25  C   UNL     1      -6.847   5.833 136.837  0.00  0.00    +0.000 C 
ATOM     26  C   UNL     1      -7.617   7.654 136.653  0.00  0.00    +0.000 A 
ATOM     27  C   UNL     1      -8.677   7.198 137.479  0.00  0.00    +0.000 A 
ATOM     28  N   UNL     1      -9.053   8.473 137.247  0.00  0.00    +0.000 N 
ATOM     29  C   UNL     1      -8.697   9.254 138.203  0.00  0.00    +0.000 A 
ATOM     30  C   UNL     1      -9.604   9.850 139.087  0.00  0.00    +0.000 A 
ATOM     31  C   UNL     1      -8.825  10.040 140.081  0.00  0.00    +0.000 A 
ATOM     32  C   UNL     1      -7.435   8.814 139.714  0.00  0.00    +0.000 A 
ATOM     33  C   UNL     1      -6.623   7.516 138.446  0.00  0.00    +0.000 A 
ATOM     34  C   UNL     1      -7.298   8.607 137.822  0.00  0.00    +0.000 A 
ATOM     35  C   UNL     1      -6.510   5.978 136.763  0.00  0.00    +0.000 C 
ATOM     36  C   UNL     1      -6.212   4.427 135.733  0.00  0.00    +0.000 C 
ATOM     37  H   UNL     1      -9.024   9.056 136.448  0.00  0.00    +0.000 HD
ENDBRANCH  17  20
ENDBRANCH  12  16
BRANCH  15  38
ATOM     38  O   UNL     1      -8.432  -3.739 128.218  0.00  0.00    +0.000 OA
ATOM     39  H   UNL     1      -9.376  -3.865 128.496  0.00  0.00    +0.000 HD
ENDBRANCH  15  38
BRANCH   8  40
ATOM     40  C   UNL     1      -5.538   0.115 127.636  0.00  0.00    +0.000 C 
BRANCH  40  41
ATOM     41  C   UNL     1      -5.346   1.515 127.302  0.00  0.00    +0.000 A 
ATOM     42  C   UNL     1      -4.456   1.953 126.354  0.00  0.00    +0.000 A 
ATOM     43  C   UNL     1      -4.109   3.272 126.308  0.00  0.00    +0.000 A 
ATOM     44  C   UNL     1      -4.903   4.194 126.934  0.00  0.00    +0.000 A 
ATOM     45  C   UNL     1      -5.885   3.765 127.801  0.00  0.00    +0.000 A 
ATOM     46  C   UNL     1      -6.110   2.425 127.985  0.00  0.00    +0.000 A 
ENDBRANCH  40  41
ENDBRANCH   8  40
TORSDOF 5
ENDMDL
MODEL 6
REMARK VINA RESULT:     -10.0      3.960      5.674
REMARK  Name = Ergotamine
REMARK  7 active torsions:
REMARK  status: ('A' for Active; 'I' for Inactive)
REMARK    1  A    between atoms: C_9  and  C_10
REMARK    2  A    between atoms: C_10  and  C_11
REMARK    3  A    between atoms: C_20  and  C_21
REMARK    4  A    between atoms: C_20  and  N_22
REMARK    5  A    between atoms: C_23  and  C_25
REMARK    6  A    between atoms: N_27  and  C_28
REMARK    7  A    between atoms: C_44  and  O_45
REMARK                            x       y       z     vdW  Elec       q    Type
REMARK                         _______ _______ _______ _____ _____    ______ ____
ROOT
ATOM      1  C   UNL     1      -7.893  -2.813 125.635  0.00  0.00    +0.000 C 
ATOM      2  C   UNL     1      -8.945  -3.586 124.821  0.00  0.00    +0.000 C 
ATOM      3  C   UNL     1      -9.067  -2.912 123.476  0.00  0.00    +0.000 C 
ATOM      4  C   UNL     1      -8.001  -1.855 123.433  0.00  0.00    +0.000 C 
ATOM      5  N   UNL     1      -7.522  -1.721 124.785  0.00  0.00    +0.000 N 
ATOM      6  C   UNL     1      -7.419  -0.522 125.396  0.00  0.00    +0.000 C 
ATOM      7  O   UNL     1      -7.937   0.446 124.851  0.00  0.00    +0.000 OA
ATOM      8  C   UNL     1      -6.956  -0.480 126.836  0.00  0.00    +0.000 C 
ATOM      9  N   UNL     1      -6.942  -1.968 127.334  0.00  0.00    +0.000 N 
ATOM     10  C   UNL     1      -6.474  -2.292 128.638  0.00  0.00    +0.000 C 
ATOM     11  O   UNL     1      -6.050  -3.433 128.791  0.00  0.00    +0.000 OA
ATOM     12  C   UNL     1      -6.229  -0.967 129.511  0.00  0.00    +0.000 C 
ATOM     13  C   UNL     1      -4.375  -1.166 129.535  0.00  0.00    +0.000 C 
ATOM     14  O   UNL     1      -7.936  -1.268 128.660  0.00  0.00    +0.000 OA
ATOM     15  C   UNL     1      -8.262  -2.374 127.299  0.00  0.00    +0.000 C 
ENDROOT
BRANCH  12  16
ATOM     16  N   UNL     1      -5.339   0.207 130.823  0.00  0.00    +0.000 N 
ATOM     17  C   UNL     1      -5.331   2.099 131.014  0.00  0.00    +0.000 C 
ATOM     18  O   UNL     1      -6.365   2.071 130.270  0.00  0.00    +0.000 OA
ATOM     19  H   UNL     1      -4.380  -0.407 130.852  0.00  0.00    +0.000 HD
BRANCH  17  20
ATOM     20  C   UNL     1      -4.614   4.037 131.730  0.00  0.00    +0.000 C 
ATOM     21  C   UNL     1      -3.608   4.314 133.541  0.00  0.00    +0.000 C 
ATOM     22  N   UNL     1      -4.083   5.645 133.792  0.00  0.00    +0.000 NA
ATOM     23  C   UNL     1      -5.401   6.088 133.865  0.00  0.00    +0.000 C 
ATOM     24  C   UNL     1      -3.027   6.123 132.659  0.00  0.00    +0.000 C 
ATOM     25  C   UNL     1      -2.896   7.547 132.101  0.00  0.00    +0.000 C 
ATOM     26  C   UNL     1      -1.769   8.081 133.648  0.00  0.00    +0.000 A 
ATOM     27  C   UNL     1      -0.707   8.221 132.718  0.00  0.00    +0.000 A 
ATOM     28  N   UNL     1      -0.095   8.558 133.871  0.00  0.00    +0.000 N 
ATOM     29  C   UNL     1      -0.064   9.832 134.039  0.00  0.00    +0.000 A 
ATOM     30  C   UNL     1       1.113  10.587 133.969  0.00  0.00    +0.000 A 
ATOM     31  C   UNL     1       0.608  11.720 133.663  0.00  0.00    +0.000 A 
ATOM     32  C   UNL     1      -1.076  11.213 132.972  0.00  0.00    +0.000 A 
ATOM     33  C   UNL     1      -2.401   9.765 132.655  0.00  0.00    +0.000 A 
ATOM     34  C   UNL     1      -1.622   9.604 133.839  0.00  0.00    +0.000 A 
ATOM     35  C   UNL     1      -3.197   7.657 132.295  0.00  0.00    +0.000 C 
ATOM     36  C   UNL     1      -4.047   6.129 131.588  0.00  0.00    +0.000 C 
ATOM     37  H   UNL     1      -0.140   8.204 134.794  0.00  0.00    +0.000 HD
ENDBRANCH  17  20
ENDBRANCH  12  16
BRANCH  15  38
ATOM     38  O   UNL     1      -8.648  -3.702 127.758  0.00  0.00    +0.000 OA
ATOM     39  H   UNL     1      -8.939  -3.752 128.705  0.00  0.00    +0.000 HD
ENDBRANCH  15  38
BRANCH   8  40
ATOM     40  C   UNL     1      -5.586   0.009 127.110  0.00  0.00    +0.000 C 
BRANCH  40  41
ATOM     41  C   UNL     1      -5.381   1.436 126.942  0.00  0.00    +0.000 A 
ATOM     42  C   UNL     1      -6.372   2.370 127.113  0.00  0.00    +0.000 A 
ATOM     43  C   UNL     1      -6.194   3.641 126.648  0.00  0.00    +0.000 A 
ATOM     44  C   UNL     1      -4.928   4.076 126.362  0.00  0.00    +0.000 A 
ATOM     45  C   UNL     1      -3.896   3.165 126.304  0.00  0.00    +0.000 A 
ATOM     46  C   UNL     1      -4.119   1.844 126.597  0.00  0.00    +0.000 A 
ENDBRANCH  40  41
ENDBRANCH   8  40
TORSDOF 5
ENDMDL
MODEL 7
REMARK VINA RESULT:      -9.9      6.501     13.653
REMARK  Name = Ergotamine
REMARK  7 active torsions:
REMARK  status: ('A' for Active; 'I' for Inactive)
REMARK    1  A    between atoms: C_9  and  C_10
REMARK    2  A    between atoms: C_10  and  C_11
REMARK    3  A    between atoms: C_20  and  C_21
REMARK    4  A    between atoms: C_20  and  N_22
REMARK    5  A    between atoms: C_23  and  C_25
REMARK    6  A    between atoms: N_27  and  C_28
REMARK    7  A    between atoms: C_44  and  O_45
REMARK                            x       y       z     vdW  Elec       q    Type
REMARK                         _______ _______ _______ _____ _____    ______ ____
ROOT
ATOM      1  C   UNL     1       1.569   9.018 137.702  0.00  0.00    +0.000 C 
ATOM      2  C   UNL     1       2.632   8.769 138.787  0.00  0.00    +0.000 C 
ATOM      3  C   UNL     1       3.357  10.071 139.022  0.00  0.00    +0.000 C 
ATOM      4  C   UNL     1       2.640  11.110 138.208  0.00  0.00    +0.000 C 
ATOM      5  N   UNL     1       1.771  10.384 137.318  0.00  0.00    +0.000 N 
ATOM      6  C   UNL     1       1.740  10.622 135.990  0.00  0.00    +0.000 C 
ATOM      7  O   UNL     1       2.618  11.331 135.514  0.00  0.00    +0.000 OA
ATOM      8  C   UNL     1       0.833   9.775 135.123  0.00  0.00    +0.000 C 
ATOM      9  N   UNL     1       0.311   8.614 136.040  0.00  0.00    +0.000 N 
ATOM     10  C   UNL     1      -0.636   7.672 135.551  0.00  0.00    +0.000 C 
ATOM     11  O   UNL     1      -1.334   7.120 136.395  0.00  0.00    +0.000 OA
ATOM     12  C   UNL     1      -0.857   7.844 133.970  0.00  0.00    +0.000 C 
ATOM     13  C   UNL     1      -2.601   8.481 134.149  0.00  0.00    +0.000 C 
ATOM     14  O   UNL     1       0.922   7.606 134.682  0.00  0.00    +0.000 OA
ATOM     15  C   UNL     1       1.435   7.879 136.368  0.00  0.00    +0.000 C 
ENDROOT
BRANCH  12  16
ATOM     16  N   UNL     1      -1.852   7.876 132.267  0.00  0.00    +0.000 N 
ATOM     17  C   UNL     1      -2.524   6.468 131.178  0.00  0.00    +0.000 C 
ATOM     18  O   UNL     1      -2.386   5.743 132.216  0.00  0.00    +0.000 OA
ATOM     19  H   UNL     1      -1.254   8.741 131.833  0.00  0.00    +0.000 HD
BRANCH  17  20
ATOM     20  C   UNL     1      -3.311   5.545 129.358  0.00  0.00    +0.000 C 
ATOM     21  C   UNL     1      -3.989   3.571 129.249  0.00  0.00    +0.000 C 
ATOM     22  N   UNL     1      -3.630   3.349 127.877  0.00  0.00    +0.000 NA
ATOM     23  C   UNL     1      -2.380   3.494 127.282  0.00  0.00    +0.000 C 
ATOM     24  C   UNL     1      -4.924   4.248 127.501  0.00  0.00    +0.000 C 
ATOM     25  C   UNL     1      -5.316   4.706 126.089  0.00  0.00    +0.000 C 
ATOM     26  C   UNL     1      -6.191   2.959 125.733  0.00  0.00    +0.000 A 
ATOM     27  C   UNL     1      -7.416   3.674 125.698  0.00  0.00    +0.000 A 
ATOM     28  N   UNL     1      -7.838   2.414 125.466  0.00  0.00    +0.000 N 
ATOM     29  C   UNL     1      -7.982   2.185 124.209  0.00  0.00    +0.000 A 
ATOM     30  C   UNL     1      -9.228   2.006 123.598  0.00  0.00    +0.000 A 
ATOM     31  C   UNL     1      -8.920   2.345 122.406  0.00  0.00    +0.000 A 
ATOM     32  C   UNL     1      -7.347   3.352 122.691  0.00  0.00    +0.000 A 
ATOM     33  C   UNL     1      -5.948   3.970 123.961  0.00  0.00    +0.000 A 
ATOM     34  C   UNL     1      -6.471   2.673 124.244  0.00  0.00    +0.000 A 
ATOM     35  C   UNL     1      -4.999   4.565 125.950  0.00  0.00    +0.000 C 
ATOM     36  C   UNL     1      -4.128   5.484 127.347  0.00  0.00    +0.000 C 
ATOM     37  H   UNL     1      -7.584   1.532 125.835  0.00  0.00    +0.000 HD
ENDBRANCH  17  20
ENDBRANCH  12  16
BRANCH  15  38
ATOM     38  O   UNL     1       1.327   6.668 137.172  0.00  0.00    +0.000 OA
ATOM     39  H   UNL     1       0.417   6.275 137.220  0.00  0.00    +0.000 HD
ENDBRANCH  15  38
BRANCH   8  40
ATOM     40  C   UNL     1      -0.398  10.400 134.591  0.00  0.00    +0.000 C 
BRANCH  40  41
ATOM     41  C   UNL     1      -0.233  11.189 133.384  0.00  0.00    +0.000 A 
ATOM     42  C   UNL     1       0.969  11.351 132.742  0.00  0.00    +0.000 A 
ATOM     43  C   UNL     1       1.113  12.336 131.809  0.00  0.00    +0.000 A 
ATOM     44  C   UNL     1      -0.005  12.898 131.254  0.00  0.00    +0.000 A 
ATOM     45  C   UNL     1      -1.239  12.649 131.816  0.00  0.00    +0.000 A 
ATOM     46  C   UNL     1      -1.356  11.792 132.880  0.00  0.00    +0.000 A 
ENDBRANCH  40  41
ENDBRANCH   8  40
TORSDOF 5
ENDMDL
MODEL 8
REMARK VINA RESULT:      -9.8      4.562     11.912
REMARK  Name = Ergotamine
REMARK  7 active torsions:
REMARK  status: ('A' for Active; 'I' for Inactive)
REMARK    1  A    between atoms: C_9  and  C_10
REMARK    2  A    between atoms: C_10  and  C_11
REMARK    3  A    between atoms: C_20  and  C_21
REMARK    4  A    between atoms: C_20  and  N_22
REMARK    5  A    between atoms: C_23  and  C_25
REMARK    6  A    between atoms: N_27  and  C_28
REMARK    7  A    between atoms: C_44  and  O_45
REMARK                            x       y       z     vdW  Elec       q    Type
REMARK                         _______ _______ _______ _____ _____    ______ ____
ROOT
ATOM      1  C   UNL     1      -1.738   8.887 135.068  0.00  0.00    +0.000 C 
ATOM      2  C   UNL     1      -0.632   9.709 135.754  0.00  0.00    +0.000 C 
ATOM      3  C   UNL     1       0.266  10.258 134.673  0.00  0.00    +0.000 C 
ATOM      4  C   UNL     1      -0.378   9.900 133.363  0.00  0.00    +0.000 C 
ATOM      5  N   UNL     1      -1.398   8.932 133.677  0.00  0.00    +0.000 N 
ATOM      6  C   UNL     1      -1.503   7.759 133.018  0.00  0.00    +0.000 C 
ATOM      7  O   UNL     1      -0.584   7.433 132.276  0.00  0.00    +0.000 OA
ATOM      8  C   UNL     1      -2.573   6.779 133.448  0.00  0.00    +0.000 C 
ATOM      9  N   UNL     1      -3.162   7.337 134.791  0.00  0.00    +0.000 N 
ATOM     10  C   UNL     1      -4.254   6.688 135.431  0.00  0.00    +0.000 C 
ATOM     11  O   UNL     1      -4.947   7.389 136.161  0.00  0.00    +0.000 OA
ATOM     12  C   UNL     1      -4.576   5.277 134.734  0.00  0.00    +0.000 C 
ATOM     13  C   UNL     1      -6.208   5.846 134.032  0.00  0.00    +0.000 C 
ATOM     14  O   UNL     1      -2.790   5.670 135.354  0.00  0.00    +0.000 OA
ATOM     15  C   UNL     1      -2.116   7.286 135.694  0.00  0.00    +0.000 C 
ENDROOT
BRANCH  12  16
ATOM     16  N   UNL     1      -5.690   3.797 134.058  0.00  0.00    +0.000 N 
ATOM     17  C   UNL     1      -5.487   2.662 132.544  0.00  0.00    +0.000 C 
ATOM     18  O   UNL     1      -4.273   3.048 132.551  0.00  0.00    +0.000 OA
ATOM     19  H   UNL     1      -6.676   4.313 134.297  0.00  0.00    +0.000 HD
BRANCH  17  20
ATOM     20  C   UNL     1      -6.119   1.236 131.011  0.00  0.00    +0.000 C 
ATOM     21  C   UNL     1      -8.104   0.957 130.422  0.00  0.00    +0.000 C 
ATOM     22  N   UNL     1      -7.984  -0.434 130.089  0.00  0.00    +0.000 NA
ATOM     23  C   UNL     1      -7.539  -1.476 130.897  0.00  0.00    +0.000 C 
ATOM     24  C   UNL     1      -7.224   0.061 128.746  0.00  0.00    +0.000 C 
ATOM     25  C   UNL     1      -6.546  -0.850 127.714  0.00  0.00    +0.000 C 
ATOM     26  C   UNL     1      -8.290  -1.194 126.827  0.00  0.00    +0.000 A 
ATOM     27  C   UNL     1      -7.768  -0.485 125.714  0.00  0.00    +0.000 A 
ATOM     28  N   UNL     1      -9.001  -0.806 125.269  0.00  0.00    +0.000 N 
ATOM     29  C   UNL     1      -8.984  -1.871 124.550  0.00  0.00    +0.000 A 
ATOM     30  C   UNL     1      -9.212  -1.869 123.169  0.00  0.00    +0.000 A 
ATOM     31  C   UNL     1      -8.593  -2.942 122.859  0.00  0.00    +0.000 A 
ATOM     32  C   UNL     1      -7.449  -3.164 124.346  0.00  0.00    +0.000 A 
ATOM     33  C   UNL     1      -6.910  -2.563 126.163  0.00  0.00    +0.000 A 
ATOM     34  C   UNL     1      -8.299  -2.408 125.878  0.00  0.00    +0.000 A 
ATOM     35  C   UNL     1      -6.608  -1.150 127.929  0.00  0.00    +0.000 C 
ATOM     36  C   UNL     1      -5.880  -0.124 129.335  0.00  0.00    +0.000 C 
ATOM     37  H   UNL     1      -9.894  -0.829 125.695  0.00  0.00    +0.000 HD
ENDBRANCH  17  20
ENDBRANCH  12  16
BRANCH  15  38
ATOM     38  O   UNL     1      -2.310   7.674 137.085  0.00  0.00    +0.000 OA
ATOM     39  H   UNL     1      -1.948   8.566 137.326  0.00  0.00    +0.000 HD
ENDBRANCH  15  38
BRANCH   8  40
ATOM     40  C   UNL     1      -3.756   6.615 132.573  0.00  0.00    +0.000 C 
BRANCH  40  41
ATOM     41  C   UNL     1      -3.497   6.678 131.147  0.00  0.00    +0.000 A 
ATOM     42  C   UNL     1      -2.812   5.710 130.455  0.00  0.00    +0.000 A 
ATOM     43  C   UNL     1      -2.345   5.974 129.201  0.00  0.00    +0.000 A 
ATOM     44  C   UNL     1      -2.866   7.030 128.503  0.00  0.00    +0.000 A 
ATOM     45  C   UNL     1      -3.657   7.950 129.156  0.00  0.00    +0.000 A 
ATOM     46  C   UNL     1      -3.977   7.775 130.479  0.00  0.00    +0.000 A 
ENDBRANCH  40  41
ENDBRANCH   8  40
TORSDOF 5
ENDMDL
MODEL 9
REMARK VINA RESULT:      -9.7      7.575     11.865
REMARK  Name = Ergotamine
REMARK  7 active torsions:
REMARK  status: ('A' for Active; 'I' for Inactive)
REMARK    1  A    between atoms: C_9  and  C_10
REMARK    2  A    between atoms: C_10  and  C_11
REMARK    3  A    between atoms: C_20  and  C_21
REMARK    4  A    between atoms: C_20  and  N_22
REMARK    5  A    between atoms: C_23  and  C_25
REMARK    6  A    between atoms: N_27  and  C_28
REMARK    7  A    between atoms: C_44  and  O_45
REMARK                            x       y       z     vdW  Elec       q    Type
REMARK                         _______ _______ _______ _____ _____    ______ ____
ROOT
ATOM      1  C   UNL     1      -0.453  -3.638 136.880  0.00  0.00    +0.000 C 
ATOM      2  C   UNL     1       0.515  -3.834 138.060  0.00  0.00    +0.000 C 
ATOM      3  C   UNL     1       0.027  -5.018 138.858  0.00  0.00    +0.000 C 
ATOM      4  C   UNL     1      -1.117  -5.609 138.085  0.00  0.00    +0.000 C 
ATOM      5  N   UNL     1      -1.464  -4.633 137.084  0.00  0.00    +0.000 N 
ATOM      6  C   UNL     1      -2.733  -4.215 136.896  0.00  0.00    +0.000 C 
ATOM      7  O   UNL     1      -3.570  -4.529 137.734  0.00  0.00    +0.000 OA
ATOM      8  C   UNL     1      -2.999  -3.148 135.857  0.00  0.00    +0.000 C 
ATOM      9  N   UNL     1      -1.593  -2.614 135.410  0.00  0.00    +0.000 N 
ATOM     10  C   UNL     1      -1.480  -1.646 134.373  0.00  0.00    +0.000 C 
ATOM     11  O   UNL     1      -0.414  -1.627 133.766  0.00  0.00    +0.000 OA
ATOM     12  C   UNL     1      -2.920  -1.068 133.962  0.00  0.00    +0.000 C 
ATOM     13  C   UNL     1      -2.911  -1.874 132.281  0.00  0.00    +0.000 C 
ATOM     14  O   UNL     1      -2.348  -1.031 135.806  0.00  0.00    +0.000 OA
ATOM     15  C   UNL     1      -1.056  -2.020 136.536  0.00  0.00    +0.000 C 
ENDROOT
BRANCH  12  16
ATOM     16  N   UNL     1      -4.329  -0.383 132.765  0.00  0.00    +0.000 N 
ATOM     17  C   UNL     1      -5.411   1.179 132.862  0.00  0.00    +0.000 C 
ATOM     18  O   UNL     1      -4.538   1.602 133.687  0.00  0.00    +0.000 OA
ATOM     19  H   UNL     1      -4.771  -1.411 132.552  0.00  0.00    +0.000 HD
BRANCH  17  20
ATOM     20  C   UNL     1      -7.107   2.474 132.382  0.00  0.00    +0.000 C 
ATOM     21  C   UNL     1      -7.183   4.514 132.830  0.00  0.00    +0.000 C 
ATOM     22  N   UNL     1      -8.604   4.589 133.016  0.00  0.00    +0.000 NA
ATOM     23  C   UNL     1      -9.397   3.844 133.884  0.00  0.00    +0.000 C 
ATOM     24  C   UNL     1      -8.714   4.520 131.401  0.00  0.00    +0.000 C 
ATOM     25  C   UNL     1     -10.016   4.411 130.596  0.00  0.00    +0.000 C 
ATOM     26  C   UNL     1     -10.292   6.375 130.720  0.00  0.00    +0.000 A 
ATOM     27  C   UNL     1     -10.086   6.408 129.317  0.00  0.00    +0.000 A 
ATOM     28  N   UNL     1     -10.295   7.713 129.585  0.00  0.00    +0.000 N 
ATOM     29  C   UNL     1     -11.518   8.051 129.373  0.00  0.00    +0.000 A 
ATOM     30  C   UNL     1     -11.913   8.888 128.323  0.00  0.00    +0.000 A 
ATOM     31  C   UNL     1     -13.125   8.503 128.202  0.00  0.00    +0.000 A 
ATOM     32  C   UNL     1     -13.071   6.809 129.037  0.00  0.00    +0.000 A 
ATOM     33  C   UNL     1     -12.034   5.483 130.095  0.00  0.00    +0.000 A 
ATOM     34  C   UNL     1     -11.722   6.845 130.385  0.00  0.00    +0.000 A 
ATOM     35  C   UNL     1     -10.214   4.374 130.911  0.00  0.00    +0.000 C 
ATOM     36  C   UNL     1      -8.949   3.061 131.393  0.00  0.00    +0.000 C 
ATOM     37  H   UNL     1     -10.014   8.311 130.321  0.00  0.00    +0.000 HD
ENDBRANCH  17  20
ENDBRANCH  12  16
BRANCH  15  38
ATOM     38  O   UNL     1       0.237  -1.350 136.484  0.00  0.00    +0.000 OA
ATOM     39  H   UNL     1       0.221  -0.386 136.718  0.00  0.00    +0.000 HD
ENDBRANCH  15  38
BRANCH   8  40
ATOM     40  C   UNL     1      -3.651  -3.558 134.593  0.00  0.00    +0.000 C 
BRANCH  40  41
ATOM     41  C   UNL     1      -5.063  -3.878 134.688  0.00  0.00    +0.000 A 
ATOM     42  C   UNL     1      -6.040  -2.941 134.918  0.00  0.00    +0.000 A 
ATOM     43  C   UNL     1      -7.288  -3.341 135.296  0.00  0.00    +0.000 A 
ATOM     44  C   UNL     1      -7.666  -4.640 135.085  0.00  0.00    +0.000 A 
ATOM     45  C   UNL     1      -6.715  -5.573 134.735  0.00  0.00    +0.000 A 
ATOM     46  C   UNL     1      -5.412  -5.195 134.533  0.00  0.00    +0.000 A 
ENDBRANCH  40  41
ENDBRANCH   8  40
TORSDOF 5
ENDMDL
