MODEL 1
REMARK VINA RESULT:      -8.8      0.000      0.000
REMARK  Name = Ergocalciferol
REMARK  11 active torsions:
REMARK  status: ('A' for Active; 'I' for Inactive)
REMARK    1  A    between atoms: C_1  and  C_2
REMARK    2  A    between atoms: C_2  and  C_3
REMARK    3  A    between atoms: C_2  and  C_4
REMARK    4  A    between atoms: C_4  and  C_5
REMARK    5  A    between atoms: C_4  and  C_6
REMARK    6  A    between atoms: C_7  and  C_8
REMARK    7  A    between atoms: C_8  and  C_9
REMARK    8  A    between atoms: C_8  and  C_10
REMARK    9  A    between atoms: C_20  and  C_21
REMARK   10  A    between atoms: C_22  and  C_23
REMARK   11  A    between atoms: C_26  and  O_27
REMARK                            x       y       z     vdW  Elec       q    Type
REMARK                         _______ _______ _______ _____ _____    ______ ____
ROOT
ATOM      1  C   UNL     1      -6.576  -1.802 125.010  0.00  0.00    +0.000 C 
ATOM      2  C   UNL     1      -5.494  -0.841 125.596  0.00  0.00    +0.000 C 
ATOM      3  C   UNL     1      -5.592  -0.895 127.114  0.00  0.00    +0.000 C 
ATOM      4  C   UNL     1      -6.487  -2.092 127.343  0.00  0.00    +0.000 C 
ATOM      5  C   UNL     1      -7.201  -2.268 128.636  0.00  0.00    +0.000 C 
ATOM      6  C   UNL     1      -8.116  -3.447 128.512  0.00  0.00    +0.000 C 
ATOM      7  C   UNL     1      -9.056  -3.672 127.369  0.00  0.00    +0.000 C 
ATOM      8  C   UNL     1      -8.280  -3.420 126.096  0.00  0.00    +0.000 C 
ATOM      9  C   UNL     1      -7.522  -2.068 126.188  0.00  0.00    +0.000 C 
ATOM     10  C   UNL     1      -8.554  -0.935 126.407  0.00  0.00    +0.000 C 
ATOM     11  C   UNL     1      -6.971  -1.616 129.788  0.00  0.00    +0.000 C 
ENDROOT
BRANCH  11  12
ATOM     12  C   UNL     1      -7.518  -2.063 131.058  0.00  0.00    +0.000 C 
ATOM     13  C   UNL     1      -7.026  -3.052 131.841  0.00  0.00    +0.000 C 
ATOM     14  C   UNL     1      -7.732  -3.445 133.114  0.00  0.00    +0.000 C 
ATOM     15  C   UNL     1      -6.734  -3.563 134.272  0.00  0.00    +0.000 C 
ATOM     16  C   UNL     1      -5.552  -4.465 133.913  0.00  0.00    +0.000 C 
ATOM     17  C   UNL     1      -4.787  -3.897 132.720  0.00  0.00    +0.000 C 
ATOM     18  C   UNL     1      -5.778  -3.820 131.602  0.00  0.00    +0.000 C 
ATOM     19  C   UNL     1      -5.592  -4.822 130.753  0.00  0.00    +0.000 C 
BRANCH  15  20
ATOM     20  O   UNL     1      -7.389  -4.076 135.428  0.00  0.00    +0.000 OA
ATOM     21  H   UNL     1      -7.903  -4.856 135.153  0.00  0.00    +0.000 HD
ENDBRANCH  15  20
ENDBRANCH  11  12
BRANCH   1  22
ATOM     22  C   UNL     1      -7.270  -1.243 123.761  0.00  0.00    +0.000 C 
ATOM     23  C   UNL     1      -6.808  -1.913 122.468  0.00  0.00    +0.000 C 
BRANCH  22  25
ATOM     24  C   UNL     1      -8.012   1.061 123.290  0.00  0.00    +0.000 C 
ATOM     25  C   UNL     1      -7.038   0.228 123.659  0.00  0.00    +0.000 C 
BRANCH  24  26
ATOM     26  C   UNL     1      -7.809   2.543 123.234  0.00  0.00    +0.000 C 
ATOM     27  C   UNL     1      -8.646   3.113 122.082  0.00  0.00    +0.000 C 
BRANCH  26  29
ATOM     28  C   UNL     1      -5.990   3.381 121.689  0.00  0.00    +0.000 C 
ATOM     29  C   UNL     1      -6.305   2.866 123.093  0.00  0.00    +0.000 C 
ATOM     30  C   UNL     1      -5.849   3.914 124.120  0.00  0.00    +0.000 C 
ENDBRANCH  26  29
ENDBRANCH  24  26
ENDBRANCH  22  25
ENDBRANCH   1  22
TORSDOF 6
ENDMDL
MODEL 2
REMARK VINA RESULT:      -8.5      4.007      6.674
REMARK  Name = Ergocalciferol
REMARK  11 active torsions:
REMARK  status: ('A' for Active; 'I' for Inactive)
REMARK    1  A    between atoms: C_1  and  C_2
REMARK    2  A    between atoms: C_2  and  C_3
REMARK    3  A    between atoms: C_2  and  C_4
REMARK    4  A    between atoms: C_4  and  C_5
REMARK    5  A    between atoms: C_4  and  C_6
REMARK    6  A    between atoms: C_7  and  C_8
REMARK    7  A    between atoms: C_8  and  C_9
REMARK    8  A    between atoms: C_8  and  C_10
REMARK    9  A    between atoms: C_20  and  C_21
REMARK   10  A    between atoms: C_22  and  C_23
REMARK   11  A    between atoms: C_26  and  O_27
REMARK                            x       y       z     vdW  Elec       q    Type
REMARK                         _______ _______ _______ _____ _____    ______ ____
ROOT
ATOM      1  C   UNL     1      -7.189  -2.377 127.976  0.00  0.00    +0.000 C 
ATOM      2  C   UNL     1      -6.121  -2.178 126.855  0.00  0.00    +0.000 C 
ATOM      3  C   UNL     1      -5.241  -1.000 127.248  0.00  0.00    +0.000 C 
ATOM      4  C   UNL     1      -5.625  -0.772 128.693  0.00  0.00    +0.000 C 
ATOM      5  C   UNL     1      -5.343   0.529 129.355  0.00  0.00    +0.000 C 
ATOM      6  C   UNL     1      -5.964   0.509 130.718  0.00  0.00    +0.000 C 
ATOM      7  C   UNL     1      -7.371   0.080 131.000  0.00  0.00    +0.000 C 
ATOM      8  C   UNL     1      -7.602  -1.213 130.251  0.00  0.00    +0.000 C 
ATOM      9  C   UNL     1      -7.145  -1.067 128.775  0.00  0.00    +0.000 C 
ATOM     10  C   UNL     1      -7.956   0.075 128.115  0.00  0.00    +0.000 C 
ATOM     11  C   UNL     1      -4.535   1.509 128.915  0.00  0.00    +0.000 C 
ENDROOT
BRANCH  11  12
ATOM     12  C   UNL     1      -4.102   2.604 129.767  0.00  0.00    +0.000 C 
ATOM     13  C   UNL     1      -3.446   3.720 129.370  0.00  0.00    +0.000 C 
ATOM     14  C   UNL     1      -3.011   4.754 130.378  0.00  0.00    +0.000 C 
ATOM     15  C   UNL     1      -3.389   6.163 129.904  0.00  0.00    +0.000 C 
ATOM     16  C   UNL     1      -2.895   6.435 128.483  0.00  0.00    +0.000 C 
ATOM     17  C   UNL     1      -3.524   5.451 127.500  0.00  0.00    +0.000 C 
ATOM     18  C   UNL     1      -3.116   4.090 127.970  0.00  0.00    +0.000 C 
ATOM     19  C   UNL     1      -2.132   3.619 127.217  0.00  0.00    +0.000 C 
BRANCH  15  20
ATOM     20  O   UNL     1      -2.843   7.135 130.790  0.00  0.00    +0.000 OA
ATOM     21  H   UNL     1      -2.217   6.678 131.379  0.00  0.00    +0.000 HD
ENDBRANCH  15  20
ENDBRANCH  11  12
BRANCH   1  22
ATOM     22  C   UNL     1      -8.578  -2.735 127.434  0.00  0.00    +0.000 C 
ATOM     23  C   UNL     1      -9.087  -4.086 127.934  0.00  0.00    +0.000 C 
BRANCH  22  25
ATOM     24  C   UNL     1      -8.987  -1.694 125.235  0.00  0.00    +0.000 C 
ATOM     25  C   UNL     1      -8.561  -2.743 125.941  0.00  0.00    +0.000 C 
BRANCH  24  26
ATOM     26  C   UNL     1      -8.927  -1.668 123.740  0.00  0.00    +0.000 C 
ATOM     27  C   UNL     1      -9.033  -3.105 123.216  0.00  0.00    +0.000 C 
BRANCH  26  29
ATOM     28  C   UNL     1      -7.239   0.145 124.255  0.00  0.00    +0.000 C 
ATOM     29  C   UNL     1      -7.636  -0.960 123.275  0.00  0.00    +0.000 C 
ATOM     30  C   UNL     1      -6.464  -1.945 123.138  0.00  0.00    +0.000 C 
ENDBRANCH  26  29
ENDBRANCH  24  26
ENDBRANCH  22  25
ENDBRANCH   1  22
TORSDOF 6
ENDMDL
MODEL 3
REMARK VINA RESULT:      -8.5      5.680      7.304
REMARK  Name = Ergocalciferol
REMARK  11 active torsions:
REMARK  status: ('A' for Active; 'I' for Inactive)
REMARK    1  A    between atoms: C_1  and  C_2
REMARK    2  A    between atoms: C_2  and  C_3
REMARK    3  A    between atoms: C_2  and  C_4
REMARK    4  A    between atoms: C_4  and  C_5
REMARK    5  A    between atoms: C_4  and  C_6
REMARK    6  A    between atoms: C_7  and  C_8
REMARK    7  A    between atoms: C_8  and  C_9
REMARK    8  A    between atoms: C_8  and  C_10
REMARK    9  A    between atoms: C_20  and  C_21
REMARK   10  A    between atoms: C_22  and  C_23
REMARK   11  A    between atoms: C_26  and  O_27
REMARK                            x       y       z     vdW  Elec       q    Type
REMARK                         _______ _______ _______ _____ _____    ______ ____
ROOT
ATOM      1  C   UNL     1      -8.901   4.372 131.443  0.00  0.00    +0.000 C 
ATOM      2  C   UNL     1     -10.198   3.642 130.972  0.00  0.00    +0.000 C 
ATOM      3  C   UNL     1     -10.047   2.162 131.296  0.00  0.00    +0.000 C 
ATOM      4  C   UNL     1      -8.839   2.146 132.204  0.00  0.00    +0.000 C 
ATOM      5  C   UNL     1      -8.070   0.891 132.420  0.00  0.00    +0.000 C 
ATOM      6  C   UNL     1      -6.856   1.216 133.236  0.00  0.00    +0.000 C 
ATOM      7  C   UNL     1      -5.922   2.351 132.948  0.00  0.00    +0.000 C 
ATOM      8  C   UNL     1      -6.773   3.573 132.683  0.00  0.00    +0.000 C 
ATOM      9  C   UNL     1      -7.886   3.240 131.654  0.00  0.00    +0.000 C 
ATOM     10  C   UNL     1      -7.220   2.768 130.338  0.00  0.00    +0.000 C 
ATOM     11  C   UNL     1      -8.447  -0.359 132.104  0.00  0.00    +0.000 C 
ENDROOT
BRANCH  11  12
ATOM     12  C   UNL     1      -7.760  -1.533 132.617  0.00  0.00    +0.000 C 
ATOM     13  C   UNL     1      -7.264  -2.558 131.883  0.00  0.00    +0.000 C 
ATOM     14  C   UNL     1      -6.618  -3.742 132.556  0.00  0.00    +0.000 C 
ATOM     15  C   UNL     1      -5.286  -4.089 131.880  0.00  0.00    +0.000 C 
ATOM     16  C   UNL     1      -5.444  -4.245 130.367  0.00  0.00    +0.000 C 
ATOM     17  C   UNL     1      -5.934  -2.941 129.741  0.00  0.00    +0.000 C 
ATOM     18  C   UNL     1      -7.244  -2.644 130.400  0.00  0.00    +0.000 C 
ATOM     19  C   UNL     1      -8.247  -2.959 129.593  0.00  0.00    +0.000 C 
BRANCH  15  20
ATOM     20  O   UNL     1      -4.763  -5.294 132.429  0.00  0.00    +0.000 OA
ATOM     21  H   UNL     1      -4.263  -5.061 133.230  0.00  0.00    +0.000 HD
ENDBRANCH  15  20
ENDBRANCH  11  12
BRANCH   1  22
ATOM     22  C   UNL     1      -8.431   5.462 130.472  0.00  0.00    +0.000 C 
ATOM     23  C   UNL     1      -7.938   6.723 131.180  0.00  0.00    +0.000 C 
BRANCH  22  25
ATOM     24  C   UNL     1     -10.285   6.913 129.736  0.00  0.00    +0.000 C 
ATOM     25  C   UNL     1      -9.536   5.827 129.537  0.00  0.00    +0.000 C 
BRANCH  24  26
ATOM     26  C   UNL     1     -11.362   7.320 128.778  0.00  0.00    +0.000 C 
ATOM     27  C   UNL     1     -10.815   8.422 127.862  0.00  0.00    +0.000 C 
BRANCH  26  29
ATOM     28  C   UNL     1     -12.569   7.268 131.000  0.00  0.00    +0.000 C 
ATOM     29  C   UNL     1     -12.620   7.763 129.555  0.00  0.00    +0.000 C 
ATOM     30  C   UNL     1     -12.778   9.292 129.560  0.00  0.00    +0.000 C 
ENDBRANCH  26  29
ENDBRANCH  24  26
ENDBRANCH  22  25
ENDBRANCH   1  22
TORSDOF 6
ENDMDL
MODEL 4
REMARK VINA RESULT:      -8.3      3.833      9.784
REMARK  Name = Ergocalciferol
REMARK  11 active torsions:
REMARK  status: ('A' for Active; 'I' for Inactive)
REMARK    1  A    between atoms: C_1  and  C_2
REMARK    2  A    between atoms: C_2  and  C_3
REMARK    3  A    between atoms: C_2  and  C_4
REMARK    4  A    between atoms: C_4  and  C_5
REMARK    5  A    between atoms: C_4  and  C_6
REMARK    6  A    between atoms: C_7  and  C_8
REMARK    7  A    between atoms: C_8  and  C_9
REMARK    8  A    between atoms: C_8  and  C_10
REMARK    9  A    between atoms: C_20  and  C_21
REMARK   10  A    between atoms: C_22  and  C_23
REMARK   11  A    between atoms: C_26  and  O_27
REMARK                            x       y       z     vdW  Elec       q    Type
REMARK                         _______ _______ _______ _____ _____    ______ ____
ROOT
ATOM      1  C   UNL     1      -8.623  -1.740 126.734  0.00  0.00    +0.000 C 
ATOM      2  C   UNL     1      -8.282  -0.457 127.556  0.00  0.00    +0.000 C 
ATOM      3  C   UNL     1      -8.323   0.732 126.607  0.00  0.00    +0.000 C 
ATOM      4  C   UNL     1      -8.981   0.149 125.377  0.00  0.00    +0.000 C 
ATOM      5  C   UNL     1      -8.842   0.816 124.056  0.00  0.00    +0.000 C 
ATOM      6  C   UNL     1      -9.466  -0.063 123.016  0.00  0.00    +0.000 C 
ATOM      7  C   UNL     1      -9.205  -1.532 122.882  0.00  0.00    +0.000 C 
ATOM      8  C   UNL     1      -9.305  -2.131 124.267  0.00  0.00    +0.000 C 
ATOM      9  C   UNL     1      -8.455  -1.307 125.271  0.00  0.00    +0.000 C 
ATOM     10  C   UNL     1      -6.981  -1.318 124.799  0.00  0.00    +0.000 C 
ATOM     11  C   UNL     1      -8.399   2.062 123.815  0.00  0.00    +0.000 C 
ENDROOT
BRANCH  11  12
ATOM     12  C   UNL     1      -8.576   2.717 122.530  0.00  0.00    +0.000 C 
ATOM     13  C   UNL     1      -7.652   3.457 121.871  0.00  0.00    +0.000 C 
ATOM     14  C   UNL     1      -7.995   4.124 120.563  0.00  0.00    +0.000 C 
ATOM     15  C   UNL     1      -6.896   3.872 119.523  0.00  0.00    +0.000 C 
ATOM     16  C   UNL     1      -5.512   4.235 120.062  0.00  0.00    +0.000 C 
ATOM     17  C   UNL     1      -5.172   3.385 121.284  0.00  0.00    +0.000 C 
ATOM     18  C   UNL     1      -6.243   3.672 122.288  0.00  0.00    +0.000 C 
ATOM     19  C   UNL     1      -5.791   4.501 123.219  0.00  0.00    +0.000 C 
BRANCH  15  20
ATOM     20  O   UNL     1      -7.160   4.629 118.346  0.00  0.00    +0.000 OA
ATOM     21  H   UNL     1      -8.117   4.803 118.315  0.00  0.00    +0.000 HD
ENDBRANCH  15  20
ENDBRANCH  11  12
BRANCH   1  22
ATOM     22  C   UNL     1      -7.777  -2.957 127.128  0.00  0.00    +0.000 C 
ATOM     23  C   UNL     1      -8.601  -4.084 127.749  0.00  0.00    +0.000 C 
BRANCH  22  25
ATOM     24  C   UNL     1      -6.382  -3.312 129.132  0.00  0.00    +0.000 C 
ATOM     25  C   UNL     1      -6.707  -2.549 128.087  0.00  0.00    +0.000 C 
BRANCH  24  26
ATOM     26  C   UNL     1      -5.277  -2.942 130.071  0.00  0.00    +0.000 C 
ATOM     27  C   UNL     1      -3.934  -3.157 129.361  0.00  0.00    +0.000 C 
BRANCH  26  29
ATOM     28  C   UNL     1      -6.632  -3.334 132.170  0.00  0.00    +0.000 C 
ATOM     29  C   UNL     1      -5.396  -3.757 131.376  0.00  0.00    +0.000 C 
ATOM     30  C   UNL     1      -5.478  -5.267 131.099  0.00  0.00    +0.000 C 
ENDBRANCH  26  29
ENDBRANCH  24  26
ENDBRANCH  22  25
ENDBRANCH   1  22
TORSDOF 6
ENDMDL
MODEL 5
REMARK VINA RESULT:      -8.2      5.481      8.826
REMARK  Name = Ergocalciferol
REMARK  11 active torsions:
REMARK  status: ('A' for Active; 'I' for Inactive)
REMARK    1  A    between atoms: C_1  and  C_2
REMARK    2  A    between atoms: C_2  and  C_3
REMARK    3  A    between atoms: C_2  and  C_4
REMARK    4  A    between atoms: C_4  and  C_5
REMARK    5  A    between atoms: C_4  and  C_6
REMARK    6  A    between atoms: C_7  and  C_8
REMARK    7  A    between atoms: C_8  and  C_9
REMARK    8  A    between atoms: C_8  and  C_10
REMARK    9  A    between atoms: C_20  and  C_21
REMARK   10  A    between atoms: C_22  and  C_23
REMARK   11  A    between atoms: C_26  and  O_27
REMARK                            x       y       z     vdW  Elec       q    Type
REMARK                         _______ _______ _______ _____ _____    ______ ____
ROOT
ATOM      1  C   UNL     1      -3.661   4.771 127.303  0.00  0.00    +0.000 C 
ATOM      2  C   UNL     1      -2.999   3.432 127.758  0.00  0.00    +0.000 C 
ATOM      3  C   UNL     1      -3.780   2.286 127.129  0.00  0.00    +0.000 C 
ATOM      4  C   UNL     1      -4.640   2.996 126.109  0.00  0.00    +0.000 C 
ATOM      5  C   UNL     1      -5.860   2.345 125.562  0.00  0.00    +0.000 C 
ATOM      6  C   UNL     1      -6.578   3.337 124.699  0.00  0.00    +0.000 C 
ATOM      7  C   UNL     1      -6.883   4.746 125.104  0.00  0.00    +0.000 C 
ATOM      8  C   UNL     1      -5.619   5.322 125.702  0.00  0.00    +0.000 C 
ATOM      9  C   UNL     1      -5.032   4.349 126.759  0.00  0.00    +0.000 C 
ATOM     10  C   UNL     1      -6.087   4.131 127.871  0.00  0.00    +0.000 C 
ATOM     11  C   UNL     1      -6.205   1.050 125.659  0.00  0.00    +0.000 C 
ENDROOT
BRANCH  11  12
ATOM     12  C   UNL     1      -7.258   0.461 124.848  0.00  0.00    +0.000 C 
ATOM     13  C   UNL     1      -7.355  -0.838 124.478  0.00  0.00    +0.000 C 
ATOM     14  C   UNL     1      -8.480  -1.300 123.587  0.00  0.00    +0.000 C 
ATOM     15  C   UNL     1      -9.123  -2.576 124.144  0.00  0.00    +0.000 C 
ATOM     16  C   UNL     1      -8.079  -3.655 124.436  0.00  0.00    +0.000 C 
ATOM     17  C   UNL     1      -7.080  -3.166 125.482  0.00  0.00    +0.000 C 
ATOM     18  C   UNL     1      -6.452  -1.939 124.900  0.00  0.00    +0.000 C 
ATOM     19  C   UNL     1      -5.242  -2.218 124.435  0.00  0.00    +0.000 C 
BRANCH  15  20
ATOM     20  O   UNL     1     -10.081  -3.080 123.219  0.00  0.00    +0.000 OA
ATOM     21  H   UNL     1     -10.608  -3.756 123.679  0.00  0.00    +0.000 HD
ENDBRANCH  15  20
ENDBRANCH  11  12
BRANCH   1  22
ATOM     22  C   UNL     1      -3.725   5.824 128.416  0.00  0.00    +0.000 C 
ATOM     23  C   UNL     1      -2.988   7.116 128.062  0.00  0.00    +0.000 C 
BRANCH  22  25
ATOM     24  C   UNL     1      -2.276   5.958 130.408  0.00  0.00    +0.000 C 
ATOM     25  C   UNL     1      -3.159   5.270 129.681  0.00  0.00    +0.000 C 
BRANCH  24  26
ATOM     26  C   UNL     1      -1.740   5.438 131.705  0.00  0.00    +0.000 C 
ATOM     27  C   UNL     1      -2.616   4.266 132.166  0.00  0.00    +0.000 C 
BRANCH  26  29
ATOM     28  C   UNL     1      -0.266   7.164 132.821  0.00  0.00    +0.000 C 
ATOM     29  C   UNL     1      -1.675   6.577 132.745  0.00  0.00    +0.000 C 
ATOM     30  C   UNL     1      -2.666   7.705 132.416  0.00  0.00    +0.000 C 
ENDBRANCH  26  29
ENDBRANCH  24  26
ENDBRANCH  22  25
ENDBRANCH   1  22
TORSDOF 6
ENDMDL
MODEL 6
REMARK VINA RESULT:      -8.2      4.805      7.068
REMARK  Name = Ergocalciferol
REMARK  11 active torsions:
REMARK  status: ('A' for Active; 'I' for Inactive)
REMARK    1  A    between atoms: C_1  and  C_2
REMARK    2  A    between atoms: C_2  and  C_3
REMARK    3  A    between atoms: C_2  and  C_4
REMARK    4  A    between atoms: C_4  and  C_5
REMARK    5  A    between atoms: C_4  and  C_6
REMARK    6  A    between atoms: C_7  and  C_8
REMARK    7  A    between atoms: C_8  and  C_9
REMARK    8  A    between atoms: C_8  and  C_10
REMARK    9  A    between atoms: C_20  and  C_21
REMARK   10  A    between atoms: C_22  and  C_23
REMARK   11  A    between atoms: C_26  and  O_27
REMARK                            x       y       z     vdW  Elec       q    Type
REMARK                         _______ _______ _______ _____ _____    ______ ____
ROOT
ATOM      1  C   UNL     1      -9.032   1.204 125.058  0.00  0.00    +0.000 C 
ATOM      2  C   UNL     1      -8.994   0.037 126.093  0.00  0.00    +0.000 C 
ATOM      3  C   UNL     1      -8.248   0.527 127.326  0.00  0.00    +0.000 C 
ATOM      4  C   UNL     1      -8.165   2.018 127.088  0.00  0.00    +0.000 C 
ATOM      5  C   UNL     1      -7.159   2.845 127.807  0.00  0.00    +0.000 C 
ATOM      6  C   UNL     1      -7.216   4.238 127.260  0.00  0.00    +0.000 C 
ATOM      7  C   UNL     1      -7.213   4.575 125.801  0.00  0.00    +0.000 C 
ATOM      8  C   UNL     1      -8.212   3.659 125.129  0.00  0.00    +0.000 C 
ATOM      9  C   UNL     1      -7.966   2.188 125.559  0.00  0.00    +0.000 C 
ATOM     10  C   UNL     1      -6.527   1.786 125.151  0.00  0.00    +0.000 C 
ATOM     11  C   UNL     1      -6.430   2.491 128.879  0.00  0.00    +0.000 C 
ENDROOT
BRANCH  11  12
ATOM     12  C   UNL     1      -5.698   3.459 129.678  0.00  0.00    +0.000 C 
ATOM     13  C   UNL     1      -4.497   4.008 129.374  0.00  0.00    +0.000 C 
ATOM     14  C   UNL     1      -3.828   4.965 130.327  0.00  0.00    +0.000 C 
ATOM     15  C   UNL     1      -3.323   6.207 129.582  0.00  0.00    +0.000 C 
ATOM     16  C   UNL     1      -2.465   5.832 128.373  0.00  0.00    +0.000 C 
ATOM     17  C   UNL     1      -3.276   5.011 127.373  0.00  0.00    +0.000 C 
ATOM     18  C   UNL     1      -3.730   3.797 128.120  0.00  0.00    +0.000 C 
ATOM     19  C   UNL     1      -2.987   2.749 127.791  0.00  0.00    +0.000 C 
BRANCH  15  20
ATOM     20  O   UNL     1      -2.567   7.028 130.465  0.00  0.00    +0.000 OA
ATOM     21  H   UNL     1      -2.307   6.482 131.227  0.00  0.00    +0.000 HD
ENDBRANCH  15  20
ENDBRANCH  11  12
BRANCH   1  22
ATOM     22  C   UNL     1      -8.824   0.739 123.611  0.00  0.00    +0.000 C 
ATOM     23  C   UNL     1      -9.987   1.106 122.690  0.00  0.00    +0.000 C 
BRANCH  22  25
ATOM     24  C   UNL     1      -7.398  -1.269 123.468  0.00  0.00    +0.000 C 
ATOM     25  C   UNL     1      -8.618  -0.739 123.571  0.00  0.00    +0.000 C 
BRANCH  24  26
ATOM     26  C   UNL     1      -7.173  -2.748 123.480  0.00  0.00    +0.000 C 
ATOM     27  C   UNL     1      -8.443  -3.437 123.994  0.00  0.00    +0.000 C 
BRANCH  26  29
ATOM     28  C   UNL     1      -4.703  -3.293 123.439  0.00  0.00    +0.000 C 
ATOM     29  C   UNL     1      -5.928  -3.087 124.329  0.00  0.00    +0.000 C 
ATOM     30  C   UNL     1      -5.619  -1.981 125.351  0.00  0.00    +0.000 C 
ENDBRANCH  26  29
ENDBRANCH  24  26
ENDBRANCH  22  25
ENDBRANCH   1  22
TORSDOF 6
ENDMDL
MODEL 7
REMARK VINA RESULT:      -8.1      6.251      9.911
REMARK  Name = Ergocalciferol
REMARK  11 active torsions:
REMARK  status: ('A' for Active; 'I' for Inactive)
REMARK    1  A    between atoms: C_1  and  C_2
REMARK    2  A    between atoms: C_2  and  C_3
REMARK    3  A    between atoms: C_2  and  C_4
REMARK    4  A    between atoms: C_4  and  C_5
REMARK    5  A    between atoms: C_4  and  C_6
REMARK    6  A    between atoms: C_7  and  C_8
REMARK    7  A    between atoms: C_8  and  C_9
REMARK    8  A    between atoms: C_8  and  C_10
REMARK    9  A    between atoms: C_20  and  C_21
REMARK   10  A    between atoms: C_22  and  C_23
REMARK   11  A    between atoms: C_26  and  O_27
REMARK                            x       y       z     vdW  Elec       q    Type
REMARK                         _______ _______ _______ _____ _____    ______ ____
ROOT
ATOM      1  C   UNL     1      -7.158   0.934 131.377  0.00  0.00    +0.000 C 
ATOM      2  C   UNL     1      -7.411   0.861 129.839  0.00  0.00    +0.000 C 
ATOM      3  C   UNL     1      -8.445   1.921 129.483  0.00  0.00    +0.000 C 
ATOM      4  C   UNL     1      -8.508   2.753 130.743  0.00  0.00    +0.000 C 
ATOM      5  C   UNL     1      -9.678   3.630 131.013  0.00  0.00    +0.000 C 
ATOM      6  C   UNL     1      -9.529   4.206 132.388  0.00  0.00    +0.000 C 
ATOM      7  C   UNL     1      -9.191   3.406 133.608  0.00  0.00    +0.000 C 
ATOM      8  C   UNL     1      -8.036   2.501 133.242  0.00  0.00    +0.000 C 
ATOM      9  C   UNL     1      -8.339   1.753 131.916  0.00  0.00    +0.000 C 
ATOM     10  C   UNL     1      -9.626   0.913 132.103  0.00  0.00    +0.000 C 
ATOM     11  C   UNL     1     -10.634   4.004 130.145  0.00  0.00    +0.000 C 
ENDROOT
BRANCH  11  12
ATOM     12  C   UNL     1     -11.562   5.086 130.426  0.00  0.00    +0.000 C 
ATOM     13  C   UNL     1     -11.354   6.404 130.191  0.00  0.00    +0.000 C 
ATOM     14  C   UNL     1     -12.390   7.426 130.584  0.00  0.00    +0.000 C 
ATOM     15  C   UNL     1     -12.642   8.410 129.434  0.00  0.00    +0.000 C 
ATOM     16  C   UNL     1     -11.340   9.016 128.911  0.00  0.00    +0.000 C 
ATOM     17  C   UNL     1     -10.421   7.924 128.369  0.00  0.00    +0.000 C 
ATOM     18  C   UNL     1     -10.171   6.997 129.517  0.00  0.00    +0.000 C 
ATOM     19  C   UNL     1      -8.969   7.217 130.033  0.00  0.00    +0.000 C 
BRANCH  15  20
ATOM     20  O   UNL     1     -13.509   9.453 129.870  0.00  0.00    +0.000 OA
ATOM     21  H   UNL     1     -14.285   9.456 129.283  0.00  0.00    +0.000 HD
ENDBRANCH  15  20
ENDBRANCH  11  12
BRANCH   1  22
ATOM     22  C   UNL     1      -6.999  -0.443 132.033  0.00  0.00    +0.000 C 
ATOM     23  C   UNL     1      -5.806  -0.521 132.985  0.00  0.00    +0.000 C 
BRANCH  22  25
ATOM     24  C   UNL     1      -5.941  -2.461 131.088  0.00  0.00    +0.000 C 
ATOM     25  C   UNL     1      -6.857  -1.497 130.985  0.00  0.00    +0.000 C 
BRANCH  24  26
ATOM     26  C   UNL     1      -5.822  -3.554 130.072  0.00  0.00    +0.000 C 
ATOM     27  C   UNL     1      -5.607  -4.886 130.802  0.00  0.00    +0.000 C 
BRANCH  26  29
ATOM     28  C   UNL     1      -5.194  -2.353 127.936  0.00  0.00    +0.000 C 
ATOM     29  C   UNL     1      -4.685  -3.231 129.079  0.00  0.00    +0.000 C 
ATOM     30  C   UNL     1      -3.512  -2.516 129.769  0.00  0.00    +0.000 C 
ENDBRANCH  26  29
ENDBRANCH  24  26
ENDBRANCH  22  25
ENDBRANCH   1  22
TORSDOF 6
ENDMDL
MODEL 8
REMARK VINA RESULT:      -8.0      3.659      9.914
REMARK  Name = Ergocalciferol
REMARK  11 active torsions:
REMARK  status: ('A' for Active; 'I' for Inactive)
REMARK    1  A    between atoms: C_1  and  C_2
REMARK    2  A    between atoms: C_2  and  C_3
REMARK    3  A    between atoms: C_2  and  C_4
REMARK    4  A    between atoms: C_4  and  C_5
REMARK    5  A    between atoms: C_4  and  C_6
REMARK    6  A    between atoms: C_7  and  C_8
REMARK    7  A    between atoms: C_8  and  C_9
REMARK    8  A    between atoms: C_8  and  C_10
REMARK    9  A    between atoms: C_20  and  C_21
REMARK   10  A    between atoms: C_22  and  C_23
REMARK   11  A    between atoms: C_26  and  O_27
REMARK                            x       y       z     vdW  Elec       q    Type
REMARK                         _______ _______ _______ _____ _____    ______ ____
ROOT
ATOM      1  C   UNL     1      -5.207  -2.198 132.716  0.00  0.00    +0.000 C 
ATOM      2  C   UNL     1      -4.616  -3.547 132.199  0.00  0.00    +0.000 C 
ATOM      3  C   UNL     1      -5.358  -3.925 130.924  0.00  0.00    +0.000 C 
ATOM      4  C   UNL     1      -6.107  -2.654 130.591  0.00  0.00    +0.000 C 
ATOM      5  C   UNL     1      -7.284  -2.685 129.682  0.00  0.00    +0.000 C 
ATOM      6  C   UNL     1      -7.900  -1.320 129.663  0.00  0.00    +0.000 C 
ATOM      7  C   UNL     1      -8.213  -0.515 130.886  0.00  0.00    +0.000 C 
ATOM      8  C   UNL     1      -6.999  -0.578 131.784  0.00  0.00    +0.000 C 
ATOM      9  C   UNL     1      -6.531  -2.048 131.954  0.00  0.00    +0.000 C 
ATOM     10  C   UNL     1      -7.687  -2.868 132.577  0.00  0.00    +0.000 C 
ATOM     11  C   UNL     1      -7.661  -3.688 128.872  0.00  0.00    +0.000 C 
ENDROOT
BRANCH  11  12
ATOM     12  C   UNL     1      -8.646  -3.511 127.818  0.00  0.00    +0.000 C 
ATOM     13  C   UNL     1      -8.416  -3.015 126.579  0.00  0.00    +0.000 C 
ATOM     14  C   UNL     1      -9.550  -2.837 125.602  0.00  0.00    +0.000 C 
ATOM     15  C   UNL     1      -9.171  -3.399 124.226  0.00  0.00    +0.000 C 
ATOM     16  C   UNL     1      -7.835  -2.841 123.734  0.00  0.00    +0.000 C 
ATOM     17  C   UNL     1      -6.710  -3.220 124.695  0.00  0.00    +0.000 C 
ATOM     18  C   UNL     1      -7.094  -2.637 126.018  0.00  0.00    +0.000 C 
ATOM     19  C   UNL     1      -6.401  -1.531 126.252  0.00  0.00    +0.000 C 
BRANCH  15  20
ATOM     20  O   UNL     1     -10.190  -3.092 123.279  0.00  0.00    +0.000 OA
ATOM     21  H   UNL     1     -10.295  -2.125 123.261  0.00  0.00    +0.000 HD
ENDBRANCH  15  20
ENDBRANCH  11  12
BRANCH   1  22
ATOM     22  C   UNL     1      -5.353  -2.145 134.242  0.00  0.00    +0.000 C 
ATOM     23  C   UNL     1      -4.354  -1.199 134.908  0.00  0.00    +0.000 C 
BRANCH  22  25
ATOM     24  C   UNL     1      -6.170  -4.091 135.518  0.00  0.00    +0.000 C 
ATOM     25  C   UNL     1      -5.191  -3.511 134.821  0.00  0.00    +0.000 C 
BRANCH  24  26
ATOM     26  C   UNL     1      -6.041  -5.481 136.059  0.00  0.00    +0.000 C 
ATOM     27  C   UNL     1      -5.064  -6.267 135.176  0.00  0.00    +0.000 C 
BRANCH  26  29
ATOM     28  C   UNL     1      -7.703  -6.662 137.557  0.00  0.00    +0.000 C 
ATOM     29  C   UNL     1      -7.432  -6.146 136.144  0.00  0.00    +0.000 C 
ATOM     30  C   UNL     1      -8.553  -5.172 135.749  0.00  0.00    +0.000 C 
ENDBRANCH  26  29
ENDBRANCH  24  26
ENDBRANCH  22  25
ENDBRANCH   1  22
TORSDOF 6
ENDMDL
MODEL 9
REMARK VINA RESULT:      -8.0      5.756      8.021
REMARK  Name = Ergocalciferol
REMARK  11 active torsions:
REMARK  status: ('A' for Active; 'I' for Inactive)
REMARK    1  A    between atoms: C_1  and  C_2
REMARK    2  A    between atoms: C_2  and  C_3
REMARK    3  A    between atoms: C_2  and  C_4
REMARK    4  A    between atoms: C_4  and  C_5
REMARK    5  A    between atoms: C_4  and  C_6
REMARK    6  A    between atoms: C_7  and  C_8
REMARK    7  A    between atoms: C_8  and  C_9
REMARK    8  A    between atoms: C_8  and  C_10
REMARK    9  A    between atoms: C_20  and  C_21
REMARK   10  A    between atoms: C_22  and  C_23
REMARK   11  A    between atoms: C_26  and  O_27
REMARK                            x       y       z     vdW  Elec       q    Type
REMARK                         _______ _______ _______ _____ _____    ______ ____
ROOT
ATOM      1  C   UNL     1      -7.960   4.229 130.405  0.00  0.00    +0.000 C 
ATOM      2  C   UNL     1      -9.294   3.450 130.175  0.00  0.00    +0.000 C 
ATOM      3  C   UNL     1      -8.980   2.220 129.336  0.00  0.00    +0.000 C 
ATOM      4  C   UNL     1      -7.470   2.167 129.382  0.00  0.00    +0.000 C 
ATOM      5  C   UNL     1      -6.707   1.396 128.365  0.00  0.00    +0.000 C 
ATOM      6  C   UNL     1      -5.246   1.652 128.577  0.00  0.00    +0.000 C 
ATOM      7  C   UNL     1      -4.642   3.010 128.755  0.00  0.00    +0.000 C 
ATOM      8  C   UNL     1      -5.500   3.753 129.754  0.00  0.00    +0.000 C 
ATOM      9  C   UNL     1      -6.998   3.645 129.362  0.00  0.00    +0.000 C 
ATOM     10  C   UNL     1      -7.186   4.255 127.951  0.00  0.00    +0.000 C 
ATOM     11  C   UNL     1      -7.190   0.487 127.502  0.00  0.00    +0.000 C 
ENDROOT
BRANCH  11  12
ATOM     12  C   UNL     1      -6.328  -0.415 126.757  0.00  0.00    +0.000 C 
ATOM     13  C   UNL     1      -6.655  -1.651 126.307  0.00  0.00    +0.000 C 
ATOM     14  C   UNL     1      -5.636  -2.500 125.591  0.00  0.00    +0.000 C 
ATOM     15  C   UNL     1      -6.237  -3.103 124.314  0.00  0.00    +0.000 C 
ATOM     16  C   UNL     1      -7.558  -3.820 124.594  0.00  0.00    +0.000 C 
ATOM     17  C   UNL     1      -8.590  -2.844 125.154  0.00  0.00    +0.000 C 
ATOM     18  C   UNL     1      -7.989  -2.295 126.410  0.00  0.00    +0.000 C 
ATOM     19  C   UNL     1      -8.529  -2.877 127.472  0.00  0.00    +0.000 C 
BRANCH  15  20
ATOM     20  O   UNL     1      -5.315  -4.017 123.730  0.00  0.00    +0.000 OA
ATOM     21  H   UNL     1      -5.821  -4.625 123.162  0.00  0.00    +0.000 HD
ENDBRANCH  15  20
ENDBRANCH  11  12
BRANCH   1  22
ATOM     22  C   UNL     1      -8.124   5.751 130.323  0.00  0.00    +0.000 C 
ATOM     23  C   UNL     1      -7.356   6.497 131.413  0.00  0.00    +0.000 C 
BRANCH  22  25
ATOM     24  C   UNL     1     -10.016   7.293 129.964  0.00  0.00    +0.000 C 
ATOM     25  C   UNL     1      -9.569   6.117 130.408  0.00  0.00    +0.000 C 
BRANCH  24  26
ATOM     26  C   UNL     1     -11.469   7.652 129.994  0.00  0.00    +0.000 C 
ATOM     27  C   UNL     1     -12.267   6.440 130.490  0.00  0.00    +0.000 C 
BRANCH  26  29
ATOM     28  C   UNL     1     -10.731   8.257 127.652  0.00  0.00    +0.000 C 
ATOM     29  C   UNL     1     -11.924   8.134 128.600  0.00  0.00    +0.000 C 
ATOM     30  C   UNL     1     -12.956   7.180 127.977  0.00  0.00    +0.000 C 
ENDBRANCH  26  29
ENDBRANCH  24  26
ENDBRANCH  22  25
ENDBRANCH   1  22
TORSDOF 6
ENDMDL
