MODEL 1
REMARK VINA RESULT:      -6.6      0.000      0.000
REMARK  Name = Erlotinib
REMARK  12 active torsions:
REMARK  status: ('A' for Active; 'I' for Inactive)
REMARK    1  A    between atoms: C_1  and  O_2
REMARK    2  A    between atoms: O_2  and  C_3
REMARK    3  A    between atoms: C_3  and  C_4
REMARK    4  A    between atoms: C_4  and  O_5
REMARK    5  A    between atoms: O_5  and  C_6
REMARK    6  A    between atoms: C_11  and  O_12
REMARK    7  A    between atoms: O_12  and  C_13
REMARK    8  A    between atoms: C_13  and  C_14
REMARK    9  A    between atoms: C_14  and  O_15
REMARK   10  A    between atoms: O_15  and  C_16
REMARK   11  A    between atoms: N_18  and  C_19
REMARK   12  A    between atoms: C_21  and  C_25
REMARK                            x       y       z     vdW  Elec       q    Type
REMARK                         _______ _______ _______ _____ _____    ______ ____
ROOT
ATOM      1  C   UNL     1      -8.884   2.641 129.362  0.00  0.00    +0.000 A 
ATOM      2  C   UNL     1      -8.647   2.011 130.615  0.00  0.00    +0.000 A 
ATOM      3  C   UNL     1      -8.163   0.698 130.766  0.00  0.00    +0.000 A 
ATOM      4  C   UNL     1      -7.905  -0.032 129.615  0.00  0.00    +0.000 A 
ATOM      5  C   UNL     1      -8.233   0.584 128.396  0.00  0.00    +0.000 A 
ATOM      6  C   UNL     1      -8.597   1.905 128.212  0.00  0.00    +0.000 A 
ATOM      7  C   UNL     1      -7.358  -1.333 129.753  0.00  0.00    +0.000 A 
ATOM      8  N   UNL     1      -6.969  -2.128 128.644  0.00  0.00    +0.000 N 
ATOM      9  N   UNL     1      -7.189  -1.880 130.972  0.00  0.00    +0.000 NA
ATOM     10  C   UNL     1      -7.525  -1.107 132.019  0.00  0.00    +0.000 A 
ATOM     11  N   UNL     1      -7.982   0.158 131.979  0.00  0.00    +0.000 NA
ATOM     12  H   UNL     1      -6.689  -3.068 128.897  0.00  0.00    +0.000 HD
ENDROOT
BRANCH   8  13
ATOM     13  C   UNL     1      -6.863  -1.787 127.278  0.00  0.00    +0.000 A 
ATOM     14  C   UNL     1      -7.848  -2.204 126.357  0.00  0.00    +0.000 A 
ATOM     15  C   UNL     1      -7.599  -2.190 124.980  0.00  0.00    +0.000 A 
ATOM     16  C   UNL     1      -6.382  -1.710 124.501  0.00  0.00    +0.000 A 
ATOM     17  C   UNL     1      -5.424  -1.224 125.396  0.00  0.00    +0.000 A 
ATOM     18  C   UNL     1      -5.666  -1.249 126.778  0.00  0.00    +0.000 A 
BRANCH  15  19
ATOM     19  C   UNL     1      -8.567  -2.728 124.065  0.00  0.00    +0.000 C 
ATOM     20  C   UNL     1      -9.348  -3.224 123.313  0.00  0.00    +0.000 C 
ENDBRANCH  15  19
ENDBRANCH   8  13
BRANCH   1  21
ATOM     21  O   UNL     1      -9.316   3.945 129.505  0.00  0.00    +0.000 OA
BRANCH  21  22
ATOM     22  C   UNL     1     -10.317   4.174 130.485  0.00  0.00    +0.000 C 
BRANCH  22  23
ATOM     23  C   UNL     1     -11.077   5.469 130.444  0.00  0.00    +0.000 C 
BRANCH  23  25
ATOM     24  C   UNL     1     -12.709   6.608 129.239  0.00  0.00    +0.000 C 
ATOM     25  O   UNL     1     -11.969   5.404 129.312  0.00  0.00    +0.000 OA
ENDBRANCH  23  25
ENDBRANCH  22  23
ENDBRANCH  21  22
ENDBRANCH   1  21
BRANCH   6  26
ATOM     26  O   UNL     1      -8.516   2.158 126.850  0.00  0.00    +0.000 OA
BRANCH  26  27
ATOM     27  C   UNL     1      -9.084   1.161 126.077  0.00  0.00    +0.000 C 
BRANCH  27  28
ATOM     28  C   UNL     1      -8.963   1.041 124.589  0.00  0.00    +0.000 C 
BRANCH  28  29
ATOM     29  O   UNL     1     -10.197   0.496 124.072  0.00  0.00    +0.000 OA
ATOM     30  C   UNL     1     -10.171   0.548 122.653  0.00  0.00    +0.000 C 
ENDBRANCH  28  29
ENDBRANCH  27  28
ENDBRANCH  26  27
ENDBRANCH   6  26
TORSDOF 10
ENDMDL
MODEL 2
REMARK VINA RESULT:      -6.6      2.984      4.905
REMARK  Name = Erlotinib
REMARK  12 active torsions:
REMARK  status: ('A' for Active; 'I' for Inactive)
REMARK    1  A    between atoms: C_1  and  O_2
REMARK    2  A    between atoms: O_2  and  C_3
REMARK    3  A    between atoms: C_3  and  C_4
REMARK    4  A    between atoms: C_4  and  O_5
REMARK    5  A    between atoms: O_5  and  C_6
REMARK    6  A    between atoms: C_11  and  O_12
REMARK    7  A    between atoms: O_12  and  C_13
REMARK    8  A    between atoms: C_13  and  C_14
REMARK    9  A    between atoms: C_14  and  O_15
REMARK   10  A    between atoms: O_15  and  C_16
REMARK   11  A    between atoms: N_18  and  C_19
REMARK   12  A    between atoms: C_21  and  C_25
REMARK                            x       y       z     vdW  Elec       q    Type
REMARK                         _______ _______ _______ _____ _____    ______ ____
ROOT
ATOM      1  C   UNL     1      -7.464   1.552 128.410  0.00  0.00    +0.000 A 
ATOM      2  C   UNL     1      -7.879   2.611 127.557  0.00  0.00    +0.000 A 
ATOM      3  C   UNL     1      -8.033   2.495 126.162  0.00  0.00    +0.000 A 
ATOM      4  C   UNL     1      -7.756   1.265 125.582  0.00  0.00    +0.000 A 
ATOM      5  C   UNL     1      -7.263   0.266 126.437  0.00  0.00    +0.000 A 
ATOM      6  C   UNL     1      -7.213   0.314 127.818  0.00  0.00    +0.000 A 
ATOM      7  C   UNL     1      -7.968   1.118 124.187  0.00  0.00    +0.000 A 
ATOM      8  N   UNL     1      -7.807  -0.119 123.509  0.00  0.00    +0.000 N 
ATOM      9  N   UNL     1      -8.331   2.172 123.434  0.00  0.00    +0.000 NA
ATOM     10  C   UNL     1      -8.517   3.332 124.089  0.00  0.00    +0.000 A 
ATOM     11  N   UNL     1      -8.407   3.540 125.413  0.00  0.00    +0.000 NA
ATOM     12  H   UNL     1      -7.897  -0.044 122.503  0.00  0.00    +0.000 HD
ENDROOT
BRANCH   8  13
ATOM     13  C   UNL     1      -7.603  -1.416 124.028  0.00  0.00    +0.000 A 
ATOM     14  C   UNL     1      -6.344  -2.045 123.909  0.00  0.00    +0.000 A 
ATOM     15  C   UNL     1      -6.209  -3.427 124.088  0.00  0.00    +0.000 A 
ATOM     16  C   UNL     1      -7.321  -4.192 124.438  0.00  0.00    +0.000 A 
ATOM     17  C   UNL     1      -8.559  -3.573 124.632  0.00  0.00    +0.000 A 
ATOM     18  C   UNL     1      -8.700  -2.189 124.442  0.00  0.00    +0.000 A 
BRANCH  15  19
ATOM     19  C   UNL     1      -4.947  -4.066 123.848  0.00  0.00    +0.000 C 
ATOM     20  C   UNL     1      -3.923  -4.646 123.654  0.00  0.00    +0.000 C 
ENDBRANCH  15  19
ENDBRANCH   8  13
BRANCH   1  21
ATOM     21  O   UNL     1      -7.440   1.929 129.739  0.00  0.00    +0.000 OA
BRANCH  21  22
ATOM     22  C   UNL     1      -8.676   1.860 130.435  0.00  0.00    +0.000 C 
BRANCH  22  23
ATOM     23  C   UNL     1      -9.308   3.141 130.900  0.00  0.00    +0.000 C 
BRANCH  23  25
ATOM     24  C   UNL     1     -11.037   4.621 130.418  0.00  0.00    +0.000 C 
ATOM     25  O   UNL     1     -10.422   3.409 130.025  0.00  0.00    +0.000 OA
ENDBRANCH  23  25
ENDBRANCH  22  23
ENDBRANCH  21  22
ENDBRANCH   1  21
BRANCH   6  26
ATOM     26  O   UNL     1      -6.965  -0.979 128.256  0.00  0.00    +0.000 OA
BRANCH  26  27
ATOM     27  C   UNL     1      -7.934  -1.883 127.860  0.00  0.00    +0.000 C 
BRANCH  27  28
ATOM     28  C   UNL     1      -8.110  -3.265 128.409  0.00  0.00    +0.000 C 
BRANCH  28  29
ATOM     29  O   UNL     1      -7.779  -3.245 129.815  0.00  0.00    +0.000 OA
ATOM     30  C   UNL     1      -6.542  -3.913 130.012  0.00  0.00    +0.000 C 
ENDBRANCH  28  29
ENDBRANCH  27  28
ENDBRANCH  26  27
ENDBRANCH   6  26
TORSDOF 10
ENDMDL
MODEL 3
REMARK VINA RESULT:      -6.6      4.537      5.788
REMARK  Name = Erlotinib
REMARK  12 active torsions:
REMARK  status: ('A' for Active; 'I' for Inactive)
REMARK    1  A    between atoms: C_1  and  O_2
REMARK    2  A    between atoms: O_2  and  C_3
REMARK    3  A    between atoms: C_3  and  C_4
REMARK    4  A    between atoms: C_4  and  O_5
REMARK    5  A    between atoms: O_5  and  C_6
REMARK    6  A    between atoms: C_11  and  O_12
REMARK    7  A    between atoms: O_12  and  C_13
REMARK    8  A    between atoms: C_13  and  C_14
REMARK    9  A    between atoms: C_14  and  O_15
REMARK   10  A    between atoms: O_15  and  C_16
REMARK   11  A    between atoms: N_18  and  C_19
REMARK   12  A    between atoms: C_21  and  C_25
REMARK                            x       y       z     vdW  Elec       q    Type
REMARK                         _______ _______ _______ _____ _____    ______ ____
ROOT
ATOM      1  C   UNL     1      -5.134   2.126 127.546  0.00  0.00    +0.000 A 
ATOM      2  C   UNL     1      -5.467   3.199 126.675  0.00  0.00    +0.000 A 
ATOM      3  C   UNL     1      -6.011   3.038 125.386  0.00  0.00    +0.000 A 
ATOM      4  C   UNL     1      -6.231   1.745 124.935  0.00  0.00    +0.000 A 
ATOM      5  C   UNL     1      -5.811   0.706 125.781  0.00  0.00    +0.000 A 
ATOM      6  C   UNL     1      -5.385   0.831 127.091  0.00  0.00    +0.000 A 
ATOM      7  C   UNL     1      -6.837   1.571 123.664  0.00  0.00    +0.000 A 
ATOM      8  N   UNL     1      -7.193   0.298 123.147  0.00  0.00    +0.000 N 
ATOM      9  N   UNL     1      -7.096   2.632 122.877  0.00  0.00    +0.000 NA
ATOM     10  C   UNL     1      -6.789   3.837 123.388  0.00  0.00    +0.000 A 
ATOM     11  N   UNL     1      -6.282   4.094 124.607  0.00  0.00    +0.000 NA
ATOM     12  H   UNL     1      -7.523   0.327 122.191  0.00  0.00    +0.000 HD
ENDROOT
BRANCH   8  13
ATOM     13  C   UNL     1      -7.208  -0.964 123.780  0.00  0.00    +0.000 A 
ATOM     14  C   UNL     1      -6.084  -1.815 123.705  0.00  0.00    +0.000 A 
ATOM     15  C   UNL     1      -6.191  -3.178 124.007  0.00  0.00    +0.000 A 
ATOM     16  C   UNL     1      -7.410  -3.699 124.438  0.00  0.00    +0.000 A 
ATOM     17  C   UNL     1      -8.514  -2.854 124.589  0.00  0.00    +0.000 A 
ATOM     18  C   UNL     1      -8.413  -1.489 124.275  0.00  0.00    +0.000 A 
BRANCH  15  19
ATOM     19  C   UNL     1      -5.068  -4.052 123.812  0.00  0.00    +0.000 C 
ATOM     20  C   UNL     1      -4.104  -4.734 123.646  0.00  0.00    +0.000 C 
ENDBRANCH  15  19
ENDBRANCH   8  13
BRANCH   1  21
ATOM     21  O   UNL     1      -4.661   2.569 128.766  0.00  0.00    +0.000 OA
BRANCH  21  22
ATOM     22  C   UNL     1      -3.980   3.815 128.761  0.00  0.00    +0.000 C 
BRANCH  22  23
ATOM     23  C   UNL     1      -4.411   4.870 129.740  0.00  0.00    +0.000 C 
BRANCH  23  25
ATOM     24  C   UNL     1      -3.691   6.225 127.992  0.00  0.00    +0.000 C 
ATOM     25  O   UNL     1      -4.687   6.066 128.984  0.00  0.00    +0.000 OA
ENDBRANCH  23  25
ENDBRANCH  22  23
ENDBRANCH  21  22
ENDBRANCH   1  21
BRANCH   6  26
ATOM     26  O   UNL     1      -5.379  -0.445 127.635  0.00  0.00    +0.000 OA
BRANCH  26  27
ATOM     27  C   UNL     1      -6.634  -1.027 127.671  0.00  0.00    +0.000 C 
BRANCH  27  28
ATOM     28  C   UNL     1      -6.912  -2.479 127.908  0.00  0.00    +0.000 C 
BRANCH  28  29
ATOM     29  O   UNL     1      -8.243  -2.608 128.454  0.00  0.00    +0.000 OA
ATOM     30  C   UNL     1      -8.766  -3.883 128.112  0.00  0.00    +0.000 C 
ENDBRANCH  28  29
ENDBRANCH  27  28
ENDBRANCH  26  27
ENDBRANCH   6  26
TORSDOF 10
ENDMDL
MODEL 4
REMARK VINA RESULT:      -6.6      3.949      5.468
REMARK  Name = Erlotinib
REMARK  12 active torsions:
REMARK  status: ('A' for Active; 'I' for Inactive)
REMARK    1  A    between atoms: C_1  and  O_2
REMARK    2  A    between atoms: O_2  and  C_3
REMARK    3  A    between atoms: C_3  and  C_4
REMARK    4  A    between atoms: C_4  and  O_5
REMARK    5  A    between atoms: O_5  and  C_6
REMARK    6  A    between atoms: C_11  and  O_12
REMARK    7  A    between atoms: O_12  and  C_13
REMARK    8  A    between atoms: C_13  and  C_14
REMARK    9  A    between atoms: C_14  and  O_15
REMARK   10  A    between atoms: O_15  and  C_16
REMARK   11  A    between atoms: N_18  and  C_19
REMARK   12  A    between atoms: C_21  and  C_25
REMARK                            x       y       z     vdW  Elec       q    Type
REMARK                         _______ _______ _______ _____ _____    ______ ____
ROOT
ATOM      1  C   UNL     1      -6.209   2.830 124.339  0.00  0.00    +0.000 A 
ATOM      2  C   UNL     1      -5.561   3.382 125.478  0.00  0.00    +0.000 A 
ATOM      3  C   UNL     1      -5.382   2.704 126.698  0.00  0.00    +0.000 A 
ATOM      4  C   UNL     1      -5.877   1.411 126.797  0.00  0.00    +0.000 A 
ATOM      5  C   UNL     1      -6.589   0.926 125.688  0.00  0.00    +0.000 A 
ATOM      6  C   UNL     1      -6.679   1.520 124.442  0.00  0.00    +0.000 A 
ATOM      7  C   UNL     1      -5.648   0.695 127.999  0.00  0.00    +0.000 A 
ATOM      8  N   UNL     1      -6.026  -0.663 128.172  0.00  0.00    +0.000 N 
ATOM      9  N   UNL     1      -5.055   1.291 129.051  0.00  0.00    +0.000 NA
ATOM     10  C   UNL     1      -4.667   2.565 128.867  0.00  0.00    +0.000 A 
ATOM     11  N   UNL     1      -4.781   3.292 127.741  0.00  0.00    +0.000 NA
ATOM     12  H   UNL     1      -5.887  -1.005 129.115  0.00  0.00    +0.000 HD
ENDROOT
BRANCH   8  13
ATOM     13  C   UNL     1      -6.502  -1.597 127.227  0.00  0.00    +0.000 A 
ATOM     14  C   UNL     1      -5.617  -2.195 126.303  0.00  0.00    +0.000 A 
ATOM     15  C   UNL     1      -6.099  -2.835 125.155  0.00  0.00    +0.000 A 
ATOM     16  C   UNL     1      -7.472  -2.931 124.941  0.00  0.00    +0.000 A 
ATOM     17  C   UNL     1      -8.363  -2.410 125.883  0.00  0.00    +0.000 A 
ATOM     18  C   UNL     1      -7.883  -1.757 127.030  0.00  0.00    +0.000 A 
BRANCH  15  19
ATOM     19  C   UNL     1      -5.183  -3.333 124.168  0.00  0.00    +0.000 C 
ATOM     20  C   UNL     1      -4.391  -3.766 123.388  0.00  0.00    +0.000 C 
ENDBRANCH  15  19
ENDBRANCH   8  13
BRANCH   1  21
ATOM     21  O   UNL     1      -6.205   3.697 123.263  0.00  0.00    +0.000 OA
BRANCH  21  22
ATOM     22  C   UNL     1      -6.299   3.104 121.976  0.00  0.00    +0.000 C 
BRANCH  22  23
ATOM     23  C   UNL     1      -5.323   3.531 120.918  0.00  0.00    +0.000 C 
BRANCH  23  25
ATOM     24  C   UNL     1      -5.355   5.421 119.562  0.00  0.00    +0.000 C 
ATOM     25  O   UNL     1      -5.314   4.973 120.903  0.00  0.00    +0.000 OA
ENDBRANCH  23  25
ENDBRANCH  22  23
ENDBRANCH  21  22
ENDBRANCH   1  21
BRANCH   6  26
ATOM     26  O   UNL     1      -7.194   0.566 123.578  0.00  0.00    +0.000 OA
BRANCH  26  27
ATOM     27  C   UNL     1      -8.576   0.493 123.608  0.00  0.00    +0.000 C 
BRANCH  27  28
ATOM     28  C   UNL     1      -9.414  -0.459 122.812  0.00  0.00    +0.000 C 
BRANCH  28  29
ATOM     29  O   UNL     1     -10.700   0.153 122.573  0.00  0.00    +0.000 OA
ATOM     30  C   UNL     1     -10.844   1.282 123.422  0.00  0.00    +0.000 C 
ENDBRANCH  28  29
ENDBRANCH  27  28
ENDBRANCH  26  27
ENDBRANCH   6  26
TORSDOF 10
ENDMDL
MODEL 5
REMARK VINA RESULT:      -6.5      3.328      5.088
REMARK  Name = Erlotinib
REMARK  12 active torsions:
REMARK  status: ('A' for Active; 'I' for Inactive)
REMARK    1  A    between atoms: C_1  and  O_2
REMARK    2  A    between atoms: O_2  and  C_3
REMARK    3  A    between atoms: C_3  and  C_4
REMARK    4  A    between atoms: C_4  and  O_5
REMARK    5  A    between atoms: O_5  and  C_6
REMARK    6  A    between atoms: C_11  and  O_12
REMARK    7  A    between atoms: O_12  and  C_13
REMARK    8  A    between atoms: C_13  and  C_14
REMARK    9  A    between atoms: C_14  and  O_15
REMARK   10  A    between atoms: O_15  and  C_16
REMARK   11  A    between atoms: N_18  and  C_19
REMARK   12  A    between atoms: C_21  and  C_25
REMARK                            x       y       z     vdW  Elec       q    Type
REMARK                         _______ _______ _______ _____ _____    ______ ____
ROOT
ATOM      1  C   UNL     1      -7.917   1.038 129.222  0.00  0.00    +0.000 A 
ATOM      2  C   UNL     1      -8.137   2.262 128.533  0.00  0.00    +0.000 A 
ATOM      3  C   UNL     1      -8.062   2.413 127.135  0.00  0.00    +0.000 A 
ATOM      4  C   UNL     1      -7.747   1.292 126.380  0.00  0.00    +0.000 A 
ATOM      5  C   UNL     1      -7.448   0.120 127.094  0.00  0.00    +0.000 A 
ATOM      6  C   UNL     1      -7.626  -0.088 128.449  0.00  0.00    +0.000 A 
ATOM      7  C   UNL     1      -7.731   1.417 124.967  0.00  0.00    +0.000 A 
ATOM      8  N   UNL     1      -7.515   0.315 124.098  0.00  0.00    +0.000 N 
ATOM      9  N   UNL     1      -7.917   2.615 124.382  0.00  0.00    +0.000 NA
ATOM     10  C   UNL     1      -8.157   3.647 125.211  0.00  0.00    +0.000 A 
ATOM     11  N   UNL     1      -8.260   3.602 126.551  0.00  0.00    +0.000 NA
ATOM     12  H   UNL     1      -7.433   0.578 123.124  0.00  0.00    +0.000 HD
ENDROOT
BRANCH   8  13
ATOM     13  C   UNL     1      -7.458  -1.066 124.385  0.00  0.00    +0.000 A 
ATOM     14  C   UNL     1      -6.253  -1.783 124.216  0.00  0.00    +0.000 A 
ATOM     15  C   UNL     1      -6.250  -3.181 124.149  0.00  0.00    +0.000 A 
ATOM     16  C   UNL     1      -7.443  -3.884 124.301  0.00  0.00    +0.000 A 
ATOM     17  C   UNL     1      -8.634  -3.192 124.543  0.00  0.00    +0.000 A 
ATOM     18  C   UNL     1      -8.642  -1.790 124.598  0.00  0.00    +0.000 A 
BRANCH  15  19
ATOM     19  C   UNL     1      -5.034  -3.888 123.859  0.00  0.00    +0.000 C 
ATOM     20  C   UNL     1      -4.053  -4.521 123.619  0.00  0.00    +0.000 C 
ENDBRANCH  15  19
ENDBRANCH   8  13
BRANCH   1  21
ATOM     21  O   UNL     1      -8.097   1.164 130.585  0.00  0.00    +0.000 OA
BRANCH  21  22
ATOM     22  C   UNL     1      -8.773   2.333 131.025  0.00  0.00    +0.000 C 
BRANCH  22  23
ATOM     23  C   UNL     1      -9.508   2.285 132.334  0.00  0.00    +0.000 C 
BRANCH  23  25
ATOM     24  C   UNL     1      -7.822   3.303 133.572  0.00  0.00    +0.000 C 
ATOM     25  O   UNL     1      -8.523   2.091 133.369  0.00  0.00    +0.000 OA
ENDBRANCH  23  25
ENDBRANCH  22  23
ENDBRANCH  21  22
ENDBRANCH   1  21
BRANCH   6  26
ATOM     26  O   UNL     1      -7.512  -1.453 128.665  0.00  0.00    +0.000 OA
BRANCH  26  27
ATOM     27  C   UNL     1      -6.521  -2.044 127.900  0.00  0.00    +0.000 C 
BRANCH  27  28
ATOM     28  C   UNL     1      -5.087  -2.194 128.301  0.00  0.00    +0.000 C 
BRANCH  28  29
ATOM     29  O   UNL     1      -5.038  -2.799 129.612  0.00  0.00    +0.000 OA
ATOM     30  C   UNL     1      -4.005  -3.773 129.637  0.00  0.00    +0.000 C 
ENDBRANCH  28  29
ENDBRANCH  27  28
ENDBRANCH  26  27
ENDBRANCH   6  26
TORSDOF 10
ENDMDL
MODEL 6
REMARK VINA RESULT:      -6.2      2.438      7.123
REMARK  Name = Erlotinib
REMARK  12 active torsions:
REMARK  status: ('A' for Active; 'I' for Inactive)
REMARK    1  A    between atoms: C_1  and  O_2
REMARK    2  A    between atoms: O_2  and  C_3
REMARK    3  A    between atoms: C_3  and  C_4
REMARK    4  A    between atoms: C_4  and  O_5
REMARK    5  A    between atoms: O_5  and  C_6
REMARK    6  A    between atoms: C_11  and  O_12
REMARK    7  A    between atoms: O_12  and  C_13
REMARK    8  A    between atoms: C_13  and  C_14
REMARK    9  A    between atoms: C_14  and  O_15
REMARK   10  A    between atoms: O_15  and  C_16
REMARK   11  A    between atoms: N_18  and  C_19
REMARK   12  A    between atoms: C_21  and  C_25
REMARK                            x       y       z     vdW  Elec       q    Type
REMARK                         _______ _______ _______ _____ _____    ______ ____
ROOT
ATOM      1  C   UNL     1      -7.771   2.363 127.762  0.00  0.00    +0.000 A 
ATOM      2  C   UNL     1      -7.994   1.339 128.722  0.00  0.00    +0.000 A 
ATOM      3  C   UNL     1      -8.553   1.551 129.997  0.00  0.00    +0.000 A 
ATOM      4  C   UNL     1      -8.904   2.849 130.340  0.00  0.00    +0.000 A 
ATOM      5  C   UNL     1      -8.590   3.850 129.407  0.00  0.00    +0.000 A 
ATOM      6  C   UNL     1      -8.152   3.660 128.110  0.00  0.00    +0.000 A 
ATOM      7  C   UNL     1      -9.526   3.066 131.596  0.00  0.00    +0.000 A 
ATOM      8  N   UNL     1     -10.010   4.336 132.008  0.00  0.00    +0.000 N 
ATOM      9  N   UNL     1      -9.677   2.054 132.471  0.00  0.00    +0.000 NA
ATOM     10  C   UNL     1      -9.249   0.847 132.059  0.00  0.00    +0.000 A 
ATOM     11  N   UNL     1      -8.716   0.542 130.863  0.00  0.00    +0.000 NA
ATOM     12  H   UNL     1     -10.337   4.353 132.966  0.00  0.00    +0.000 HD
ENDROOT
BRANCH   8  13
ATOM     13  C   UNL     1     -10.152   5.532 131.272  0.00  0.00    +0.000 A 
ATOM     14  C   UNL     1     -11.290   5.745 130.464  0.00  0.00    +0.000 A 
ATOM     15  C   UNL     1     -11.295   6.733 129.473  0.00  0.00    +0.000 A 
ATOM     16  C   UNL     1     -10.182   7.555 129.309  0.00  0.00    +0.000 A 
ATOM     17  C   UNL     1      -9.076   7.406 130.150  0.00  0.00    +0.000 A 
ATOM     18  C   UNL     1      -9.063   6.408 131.137  0.00  0.00    +0.000 A 
BRANCH  15  19
ATOM     19  C   UNL     1     -12.415   6.858 128.583  0.00  0.00    +0.000 C 
ATOM     20  C   UNL     1     -13.331   6.914 127.821  0.00  0.00    +0.000 C 
ENDBRANCH  15  19
ENDBRANCH   8  13
BRANCH   1  21
ATOM     21  O   UNL     1      -7.253   1.870 126.580  0.00  0.00    +0.000 OA
BRANCH  21  22
ATOM     22  C   UNL     1      -8.141   1.112 125.772  0.00  0.00    +0.000 C 
BRANCH  22  23
ATOM     23  C   UNL     1      -7.728  -0.272 125.358  0.00  0.00    +0.000 C 
BRANCH  23  25
ATOM     24  C   UNL     1      -9.092  -2.130 125.673  0.00  0.00    +0.000 C 
ATOM     25  O   UNL     1      -8.268  -1.187 126.333  0.00  0.00    +0.000 OA
ENDBRANCH  23  25
ENDBRANCH  22  23
ENDBRANCH  21  22
ENDBRANCH   1  21
BRANCH   6  26
ATOM     26  O   UNL     1      -8.275   4.880 127.461  0.00  0.00    +0.000 OA
BRANCH  26  27
ATOM     27  C   UNL     1      -8.147   4.781 126.087  0.00  0.00    +0.000 C 
BRANCH  27  28
ATOM     28  C   UNL     1      -6.880   4.984 125.314  0.00  0.00    +0.000 C 
BRANCH  28  29
ATOM     29  O   UNL     1      -5.866   5.473 126.219  0.00  0.00    +0.000 OA
ATOM     30  C   UNL     1      -4.849   4.491 126.353  0.00  0.00    +0.000 C 
ENDBRANCH  28  29
ENDBRANCH  27  28
ENDBRANCH  26  27
ENDBRANCH   6  26
TORSDOF 10
ENDMDL
MODEL 7
REMARK VINA RESULT:      -6.2      2.487      5.742
REMARK  Name = Erlotinib
REMARK  12 active torsions:
REMARK  status: ('A' for Active; 'I' for Inactive)
REMARK    1  A    between atoms: C_1  and  O_2
REMARK    2  A    between atoms: O_2  and  C_3
REMARK    3  A    between atoms: C_3  and  C_4
REMARK    4  A    between atoms: C_4  and  O_5
REMARK    5  A    between atoms: O_5  and  C_6
REMARK    6  A    between atoms: C_11  and  O_12
REMARK    7  A    between atoms: O_12  and  C_13
REMARK    8  A    between atoms: C_13  and  C_14
REMARK    9  A    between atoms: C_14  and  O_15
REMARK   10  A    between atoms: O_15  and  C_16
REMARK   11  A    between atoms: N_18  and  C_19
REMARK   12  A    between atoms: C_21  and  C_25
REMARK                            x       y       z     vdW  Elec       q    Type
REMARK                         _______ _______ _______ _____ _____    ______ ____
ROOT
ATOM      1  C   UNL     1      -8.808   1.534 125.292  0.00  0.00    +0.000 A 
ATOM      2  C   UNL     1      -9.272   0.644 124.285  0.00  0.00    +0.000 A 
ATOM      3  C   UNL     1      -9.113  -0.754 124.323  0.00  0.00    +0.000 A 
ATOM      4  C   UNL     1      -8.453  -1.299 125.415  0.00  0.00    +0.000 A 
ATOM      5  C   UNL     1      -7.928  -0.390 126.347  0.00  0.00    +0.000 A 
ATOM      6  C   UNL     1      -8.168   0.971 126.397  0.00  0.00    +0.000 A 
ATOM      7  C   UNL     1      -8.341  -2.711 125.495  0.00  0.00    +0.000 A 
ATOM      8  N   UNL     1      -7.771  -3.377 126.612  0.00  0.00    +0.000 N 
ATOM      9  N   UNL     1      -8.776  -3.492 124.489  0.00  0.00    +0.000 NA
ATOM     10  C   UNL     1      -9.348  -2.856 123.451  0.00  0.00    +0.000 A 
ATOM     11  N   UNL     1      -9.557  -1.533 123.327  0.00  0.00    +0.000 NA
ATOM     12  H   UNL     1      -7.671  -4.376 126.480  0.00  0.00    +0.000 HD
ENDROOT
BRANCH   8  13
ATOM     13  C   UNL     1      -7.386  -2.867 127.870  0.00  0.00    +0.000 A 
ATOM     14  C   UNL     1      -6.027  -2.608 128.152  0.00  0.00    +0.000 A 
ATOM     15  C   UNL     1      -5.583  -2.445 129.470  0.00  0.00    +0.000 A 
ATOM     16  C   UNL     1      -6.499  -2.488 130.520  0.00  0.00    +0.000 A 
ATOM     17  C   UNL     1      -7.859  -2.669 130.251  0.00  0.00    +0.000 A 
ATOM     18  C   UNL     1      -8.305  -2.845 128.931  0.00  0.00    +0.000 A 
BRANCH  15  19
ATOM     19  C   UNL     1      -4.182  -2.301 129.748  0.00  0.00    +0.000 C 
ATOM     20  C   UNL     1      -3.029  -2.134 130.002  0.00  0.00    +0.000 C 
ENDBRANCH  15  19
ENDBRANCH   8  13
BRANCH   1  21
ATOM     21  O   UNL     1      -9.137   2.848 125.023  0.00  0.00    +0.000 OA
BRANCH  21  22
ATOM     22  C   UNL     1      -8.056   3.764 124.937  0.00  0.00    +0.000 C 
BRANCH  22  23
ATOM     23  C   UNL     1      -8.044   4.946 125.863  0.00  0.00    +0.000 C 
BRANCH  23  25
ATOM     24  C   UNL     1      -5.914   4.030 126.050  0.00  0.00    +0.000 C 
ATOM     25  O   UNL     1      -6.890   4.808 126.716  0.00  0.00    +0.000 OA
ENDBRANCH  23  25
ENDBRANCH  22  23
ENDBRANCH  21  22
ENDBRANCH   1  21
BRANCH   6  26
ATOM     26  O   UNL     1      -7.726   1.412 127.636  0.00  0.00    +0.000 OA
BRANCH  26  27
ATOM     27  C   UNL     1      -8.736   1.950 128.414  0.00  0.00    +0.000 C 
BRANCH  27  28
ATOM     28  C   UNL     1      -8.590   3.116 129.342  0.00  0.00    +0.000 C 
BRANCH  28  29
ATOM     29  O   UNL     1      -9.907   3.610 129.668  0.00  0.00    +0.000 OA
ATOM     30  C   UNL     1      -9.804   4.955 130.111  0.00  0.00    +0.000 C 
ENDBRANCH  28  29
ENDBRANCH  27  28
ENDBRANCH  26  27
ENDBRANCH   6  26
TORSDOF 10
ENDMDL
MODEL 8
REMARK VINA RESULT:      -6.1      5.222      7.236
REMARK  Name = Erlotinib
REMARK  12 active torsions:
REMARK  status: ('A' for Active; 'I' for Inactive)
REMARK    1  A    between atoms: C_1  and  O_2
REMARK    2  A    between atoms: O_2  and  C_3
REMARK    3  A    between atoms: C_3  and  C_4
REMARK    4  A    between atoms: C_4  and  O_5
REMARK    5  A    between atoms: O_5  and  C_6
REMARK    6  A    between atoms: C_11  and  O_12
REMARK    7  A    between atoms: O_12  and  C_13
REMARK    8  A    between atoms: C_13  and  C_14
REMARK    9  A    between atoms: C_14  and  O_15
REMARK   10  A    between atoms: O_15  and  C_16
REMARK   11  A    between atoms: N_18  and  C_19
REMARK   12  A    between atoms: C_21  and  C_25
REMARK                            x       y       z     vdW  Elec       q    Type
REMARK                         _______ _______ _______ _____ _____    ______ ____
ROOT
ATOM      1  C   UNL     1      -8.807   5.505 132.114  0.00  0.00    +0.000 A 
ATOM      2  C   UNL     1      -8.375   5.616 133.465  0.00  0.00    +0.000 A 
ATOM      3  C   UNL     1      -7.034   5.782 133.860  0.00  0.00    +0.000 A 
ATOM      4  C   UNL     1      -6.069   5.835 132.864  0.00  0.00    +0.000 A 
ATOM      5  C   UNL     1      -6.515   5.633 131.549  0.00  0.00    +0.000 A 
ATOM      6  C   UNL     1      -7.829   5.585 131.121  0.00  0.00    +0.000 A 
ATOM      7  C   UNL     1      -4.723   6.064 133.246  0.00  0.00    +0.000 A 
ATOM      8  N   UNL     1      -3.672   6.230 132.306  0.00  0.00    +0.000 N 
ATOM      9  N   UNL     1      -4.380   6.128 134.547  0.00  0.00    +0.000 NA
ATOM     10  C   UNL     1      -5.386   6.006 135.431  0.00  0.00    +0.000 A 
ATOM     11  N   UNL     1      -6.694   5.859 135.153  0.00  0.00    +0.000 NA
ATOM     12  H   UNL     1      -2.754   6.287 132.731  0.00  0.00    +0.000 HD
ENDROOT
BRANCH   8  13
ATOM     13  C   UNL     1      -3.728   6.382 130.904  0.00  0.00    +0.000 A 
ATOM     14  C   UNL     1      -3.364   5.315 130.054  0.00  0.00    +0.000 A 
ATOM     15  C   UNL     1      -3.073   5.538 128.702  0.00  0.00    +0.000 A 
ATOM     16  C   UNL     1      -3.191   6.821 128.171  0.00  0.00    +0.000 A 
ATOM     17  C   UNL     1      -3.622   7.875 128.983  0.00  0.00    +0.000 A 
ATOM     18  C   UNL     1      -3.903   7.656 130.341  0.00  0.00    +0.000 A 
BRANCH  15  19
ATOM     19  C   UNL     1      -2.590   4.465 127.880  0.00  0.00    +0.000 C 
ATOM     20  C   UNL     1      -2.239   3.551 127.199  0.00  0.00    +0.000 C 
ENDBRANCH  15  19
ENDBRANCH   8  13
BRANCH   1  21
ATOM     21  O   UNL     1     -10.180   5.396 132.011  0.00  0.00    +0.000 OA
BRANCH  21  22
ATOM     22  C   UNL     1     -10.849   6.465 131.359  0.00  0.00    +0.000 C 
BRANCH  22  23
ATOM     23  C   UNL     1     -11.571   6.180 130.073  0.00  0.00    +0.000 C 
BRANCH  23  25
ATOM     24  C   UNL     1     -10.394   7.916 129.066  0.00  0.00    +0.000 C 
ATOM     25  O   UNL     1     -11.689   7.431 129.365  0.00  0.00    +0.000 OA
ENDBRANCH  23  25
ENDBRANCH  22  23
ENDBRANCH  21  22
ENDBRANCH   1  21
BRANCH   6  26
ATOM     26  O   UNL     1      -7.807   5.693 129.739  0.00  0.00    +0.000 OA
BRANCH  26  27
ATOM     27  C   UNL     1      -8.141   4.514 129.096  0.00  0.00    +0.000 C 
BRANCH  27  28
ATOM     28  C   UNL     1      -7.609   4.067 127.769  0.00  0.00    +0.000 C 
BRANCH  28  29
ATOM     29  O   UNL     1      -6.176   3.919 127.876  0.00  0.00    +0.000 OA
ATOM     30  C   UNL     1      -5.883   2.786 128.681  0.00  0.00    +0.000 C 
ENDBRANCH  28  29
ENDBRANCH  27  28
ENDBRANCH  26  27
ENDBRANCH   6  26
TORSDOF 10
ENDMDL
MODEL 9
REMARK VINA RESULT:      -6.0      2.125      5.898
REMARK  Name = Erlotinib
REMARK  12 active torsions:
REMARK  status: ('A' for Active; 'I' for Inactive)
REMARK    1  A    between atoms: C_1  and  O_2
REMARK    2  A    between atoms: O_2  and  C_3
REMARK    3  A    between atoms: C_3  and  C_4
REMARK    4  A    between atoms: C_4  and  O_5
REMARK    5  A    between atoms: O_5  and  C_6
REMARK    6  A    between atoms: C_11  and  O_12
REMARK    7  A    between atoms: O_12  and  C_13
REMARK    8  A    between atoms: C_13  and  C_14
REMARK    9  A    between atoms: C_14  and  O_15
REMARK   10  A    between atoms: O_15  and  C_16
REMARK   11  A    between atoms: N_18  and  C_19
REMARK   12  A    between atoms: C_21  and  C_25
REMARK                            x       y       z     vdW  Elec       q    Type
REMARK                         _______ _______ _______ _____ _____    ______ ____
ROOT
ATOM      1  C   UNL     1      -8.807   1.490 125.597  0.00  0.00    +0.000 A 
ATOM      2  C   UNL     1      -9.278   0.374 124.852  0.00  0.00    +0.000 A 
ATOM      3  C   UNL     1      -9.056  -0.970 125.207  0.00  0.00    +0.000 A 
ATOM      4  C   UNL     1      -8.324  -1.221 126.358  0.00  0.00    +0.000 A 
ATOM      5  C   UNL     1      -7.797  -0.102 127.022  0.00  0.00    +0.000 A 
ATOM      6  C   UNL     1      -8.094   1.224 126.766  0.00  0.00    +0.000 A 
ATOM      7  C   UNL     1      -8.147  -2.570 126.760  0.00  0.00    +0.000 A 
ATOM      8  N   UNL     1      -7.498  -2.936 127.968  0.00  0.00    +0.000 N 
ATOM      9  N   UNL     1      -8.592  -3.580 125.989  0.00  0.00    +0.000 NA
ATOM     10  C   UNL     1      -9.238  -3.224 124.864  0.00  0.00    +0.000 A 
ATOM     11  N   UNL     1      -9.510  -1.975 124.447  0.00  0.00    +0.000 NA
ATOM     12  H   UNL     1      -7.361  -3.934 128.068  0.00  0.00    +0.000 HD
ENDROOT
BRANCH   8  13
ATOM     13  C   UNL     1      -7.079  -2.132 129.050  0.00  0.00    +0.000 A 
ATOM     14  C   UNL     1      -8.028  -1.488 129.873  0.00  0.00    +0.000 A 
ATOM     15  C   UNL     1      -7.656  -0.428 130.709  0.00  0.00    +0.000 A 
ATOM     16  C   UNL     1      -6.322  -0.031 130.772  0.00  0.00    +0.000 A 
ATOM     17  C   UNL     1      -5.358  -0.707 130.019  0.00  0.00    +0.000 A 
ATOM     18  C   UNL     1      -5.729  -1.762 129.170  0.00  0.00    +0.000 A 
BRANCH  15  19
ATOM     19  C   UNL     1      -8.653   0.292 131.450  0.00  0.00    +0.000 C 
ATOM     20  C   UNL     1      -9.459   0.871 132.111  0.00  0.00    +0.000 C 
ENDBRANCH  15  19
ENDBRANCH   8  13
BRANCH   1  21
ATOM     21  O   UNL     1      -9.206   2.693 125.047  0.00  0.00    +0.000 OA
BRANCH  21  22
ATOM     22  C   UNL     1      -8.172   3.608 124.716  0.00  0.00    +0.000 C 
BRANCH  22  23
ATOM     23  C   UNL     1      -7.051   3.133 123.836  0.00  0.00    +0.000 C 
BRANCH  23  25
ATOM     24  C   UNL     1      -6.482   3.690 121.650  0.00  0.00    +0.000 C 
ATOM     25  O   UNL     1      -7.521   3.198 122.474  0.00  0.00    +0.000 OA
ENDBRANCH  23  25
ENDBRANCH  22  23
ENDBRANCH  21  22
ENDBRANCH   1  21
BRANCH   6  26
ATOM     26  O   UNL     1      -7.615   1.958 127.841  0.00  0.00    +0.000 OA
BRANCH  26  27
ATOM     27  C   UNL     1      -8.620   2.553 128.584  0.00  0.00    +0.000 C 
BRANCH  27  28
ATOM     28  C   UNL     1      -8.454   3.750 129.469  0.00  0.00    +0.000 C 
BRANCH  28  29
ATOM     29  O   UNL     1      -9.694   4.491 129.475  0.00  0.00    +0.000 OA
ATOM     30  C   UNL     1     -10.567   3.930 130.445  0.00  0.00    +0.000 C 
ENDBRANCH  28  29
ENDBRANCH  27  28
ENDBRANCH  26  27
ENDBRANCH   6  26
TORSDOF 10
ENDMDL
