MODEL 1
REMARK VINA RESULT:      -8.7      0.000      0.000
REMARK  Name = Ertapenem
REMARK  12 active torsions:
REMARK  status: ('A' for Active; 'I' for Inactive)
REMARK    1  A    between atoms: C_3  and  C_4
REMARK    2  A    between atoms: C_5  and  S_6
REMARK    3  A    between atoms: S_6  and  C_7
REMARK    4  A    between atoms: C_11  and  C_14
REMARK    5  A    between atoms: N_16  and  C_17
REMARK    6  A    between atoms: C_21  and  C_23
REMARK    7  A    between atoms: C_23  and  O_24
REMARK    8  A    between atoms: C_26  and  C_35
REMARK    9  A    between atoms: C_30  and  C_32
REMARK   10  A    between atoms: C_32  and  C_33
REMARK   11  A    between atoms: C_32  and  O_34
REMARK   12  A    between atoms: C_35  and  O_36
REMARK                            x       y       z     vdW  Elec       q    Type
REMARK                         _______ _______ _______ _____ _____    ______ ____
ROOT
ATOM      1  C   UNL     1      -7.872   3.236 132.810  0.00  0.00    +0.000 C 
ATOM      2  C   UNL     1      -9.365   3.347 132.961  0.00  0.00    +0.000 C 
ATOM      3  N   UNL     1      -9.640   4.728 133.325  0.00  0.00    +0.000 NA
ATOM      4  C   UNL     1      -8.546   5.576 132.777  0.00  0.00    +0.000 C 
ATOM      5  C   UNL     1      -7.402   4.629 132.402  0.00  0.00    +0.000 C 
ATOM      6  H   UNL     1      -9.695   4.814 134.336  0.00  0.00    +0.000 HD
ENDROOT
BRANCH   4   7
ATOM      7  C   UNL     1      -9.077   6.438 131.581  0.00  0.00    +0.000 C 
ATOM      8  O   UNL     1      -8.324   7.138 130.902  0.00  0.00    +0.000 OA
ATOM      9  N   UNL     1     -10.457   6.408 131.363  0.00  0.00    +0.000 N 
ATOM     10  H   UNL     1     -11.069   5.994 132.055  0.00  0.00    +0.000 HD
BRANCH   9  11
ATOM     11  C   UNL     1     -11.068   7.078 130.267  0.00  0.00    +0.000 A 
ATOM     12  C   UNL     1     -12.238   7.821 130.448  0.00  0.00    +0.000 A 
ATOM     13  C   UNL     1     -12.867   8.421 129.348  0.00  0.00    +0.000 A 
ATOM     14  C   UNL     1     -12.323   8.313 128.064  0.00  0.00    +0.000 A 
ATOM     15  C   UNL     1     -11.166   7.556 127.860  0.00  0.00    +0.000 A 
ATOM     16  C   UNL     1     -10.545   6.956 128.972  0.00  0.00    +0.000 A 
BRANCH  15  17
ATOM     17  C   UNL     1     -10.565   7.286 126.518  0.00  0.00    +0.000 C 
ATOM     18  O   UNL     1     -10.825   7.975 125.543  0.00  0.00    +0.000 OA
BRANCH  17  19
ATOM     19  O   UNL     1      -9.687   6.266 126.434  0.00  0.00    +0.000 OA
ATOM     20  H   UNL     1     -10.028   5.362 126.363  0.00  0.00    +0.000 HD
ENDBRANCH  17  19
ENDBRANCH  15  17
ENDBRANCH   9  11
ENDBRANCH   4   7
BRANCH   1  21
ATOM     21  S   UNL     1      -7.370   1.869 131.736  0.00  0.00    +0.000 S 
BRANCH  21  25
ATOM     22  C   UNL     1      -4.847   2.428 128.664  0.00  0.00    +0.000 C 
ATOM     23  C   UNL     1      -4.995   2.504 130.189  0.00  0.00    +0.000 C 
ATOM     24  C   UNL     1      -4.325   3.790 130.685  0.00  0.00    +0.000 C 
ATOM     25  C   UNL     1      -6.506   2.438 130.340  0.00  0.00    +0.000 C 
ATOM     26  C   UNL     1      -7.099   2.795 129.170  0.00  0.00    +0.000 C 
ATOM     27  N   UNL     1      -6.179   2.834 128.123  0.00  0.00    +0.000 N 
ATOM     28  C   UNL     1      -5.689   3.968 127.530  0.00  0.00    +0.000 C 
ATOM     29  O   UNL     1      -6.259   4.901 127.026  0.00  0.00    +0.000 OA
ATOM     30  C   UNL     1      -4.217   3.557 127.804  0.00  0.00    +0.000 C 
BRANCH  30  31
ATOM     31  C   UNL     1      -3.377   3.095 126.628  0.00  0.00    +0.000 C 
ATOM     32  C   UNL     1      -1.900   3.249 126.945  0.00  0.00    +0.000 C 
BRANCH  31  33
ATOM     33  O   UNL     1      -3.668   1.720 126.362  0.00  0.00    +0.000 OA
ATOM     34  H   UNL     1      -4.416   1.439 126.922  0.00  0.00    +0.000 HD
ENDBRANCH  31  33
ENDBRANCH  30  31
BRANCH  26  35
ATOM     35  C   UNL     1      -8.583   2.990 128.970  0.00  0.00    +0.000 C 
ATOM     36  O   UNL     1      -9.230   3.912 129.445  0.00  0.00    +0.000 OA
BRANCH  35  37
ATOM     37  O   UNL     1      -9.205   2.060 128.212  0.00  0.00    +0.000 OA
ATOM     38  H   UNL     1      -8.965   1.131 128.379  0.00  0.00    +0.000 HD
ENDBRANCH  35  37
ENDBRANCH  26  35
ENDBRANCH  21  25
ENDBRANCH   1  21
TORSDOF 10
ENDMDL
MODEL 2
REMARK VINA RESULT:      -8.5      2.631      3.545
REMARK  Name = Ertapenem
REMARK  12 active torsions:
REMARK  status: ('A' for Active; 'I' for Inactive)
REMARK    1  A    between atoms: C_3  and  C_4
REMARK    2  A    between atoms: C_5  and  S_6
REMARK    3  A    between atoms: S_6  and  C_7
REMARK    4  A    between atoms: C_11  and  C_14
REMARK    5  A    between atoms: N_16  and  C_17
REMARK    6  A    between atoms: C_21  and  C_23
REMARK    7  A    between atoms: C_23  and  O_24
REMARK    8  A    between atoms: C_26  and  C_35
REMARK    9  A    between atoms: C_30  and  C_32
REMARK   10  A    between atoms: C_32  and  C_33
REMARK   11  A    between atoms: C_32  and  O_34
REMARK   12  A    between atoms: C_35  and  O_36
REMARK                            x       y       z     vdW  Elec       q    Type
REMARK                         _______ _______ _______ _____ _____    ______ ____
ROOT
ATOM      1  C   UNL     1      -7.943   2.756 133.195  0.00  0.00    +0.000 C 
ATOM      2  C   UNL     1      -8.859   2.342 132.074  0.00  0.00    +0.000 C 
ATOM      3  N   UNL     1     -10.114   3.046 132.289  0.00  0.00    +0.000 NA
ATOM      4  C   UNL     1      -9.818   4.302 133.032  0.00  0.00    +0.000 C 
ATOM      5  C   UNL     1      -8.402   4.153 133.598  0.00  0.00    +0.000 C 
ATOM      6  H   UNL     1     -10.755   2.456 132.811  0.00  0.00    +0.000 HD
ENDROOT
BRANCH   4   7
ATOM      7  C   UNL     1     -10.001   5.543 132.093  0.00  0.00    +0.000 C 
ATOM      8  O   UNL     1      -9.179   6.459 132.062  0.00  0.00    +0.000 OA
ATOM      9  N   UNL     1     -11.173   5.574 131.332  0.00  0.00    +0.000 N 
ATOM     10  H   UNL     1     -11.920   4.919 131.528  0.00  0.00    +0.000 HD
BRANCH   9  11
ATOM     11  C   UNL     1     -11.434   6.598 130.380  0.00  0.00    +0.000 A 
ATOM     12  C   UNL     1     -12.298   7.653 130.687  0.00  0.00    +0.000 A 
ATOM     13  C   UNL     1     -12.600   8.620 129.716  0.00  0.00    +0.000 A 
ATOM     14  C   UNL     1     -12.023   8.562 128.443  0.00  0.00    +0.000 A 
ATOM     15  C   UNL     1     -11.174   7.503 128.112  0.00  0.00    +0.000 A 
ATOM     16  C   UNL     1     -10.881   6.537 129.094  0.00  0.00    +0.000 A 
BRANCH  15  17
ATOM     17  C   UNL     1     -10.592   7.287 126.751  0.00  0.00    +0.000 C 
ATOM     18  O   UNL     1     -10.853   8.024 125.813  0.00  0.00    +0.000 OA
BRANCH  17  19
ATOM     19  O   UNL     1      -9.731   6.259 126.609  0.00  0.00    +0.000 OA
ATOM     20  H   UNL     1      -9.405   6.043 125.723  0.00  0.00    +0.000 HD
ENDBRANCH  17  19
ENDBRANCH  15  17
ENDBRANCH   9  11
ENDBRANCH   4   7
BRANCH   1  21
ATOM     21  S   UNL     1      -6.191   2.571 132.780  0.00  0.00    +0.000 S 
BRANCH  21  25
ATOM     22  C   UNL     1      -3.753   5.724 132.307  0.00  0.00    +0.000 C 
ATOM     23  C   UNL     1      -4.576   4.922 133.324  0.00  0.00    +0.000 C 
ATOM     24  C   UNL     1      -5.299   5.903 134.254  0.00  0.00    +0.000 C 
ATOM     25  C   UNL     1      -5.461   4.100 132.401  0.00  0.00    +0.000 C 
ATOM     26  C   UNL     1      -5.518   4.690 131.178  0.00  0.00    +0.000 C 
ATOM     27  N   UNL     1      -4.548   5.683 131.044  0.00  0.00    +0.000 N 
ATOM     28  C   UNL     1      -4.781   7.034 131.044  0.00  0.00    +0.000 C 
ATOM     29  O   UNL     1      -5.520   7.704 130.372  0.00  0.00    +0.000 OA
ATOM     30  C   UNL     1      -3.780   7.273 132.208  0.00  0.00    +0.000 C 
BRANCH  30  31
ATOM     31  C   UNL     1      -2.454   7.935 131.882  0.00  0.00    +0.000 C 
ATOM     32  C   UNL     1      -2.306   9.226 132.666  0.00  0.00    +0.000 C 
BRANCH  31  33
ATOM     33  O   UNL     1      -1.393   7.039 132.228  0.00  0.00    +0.000 OA
ATOM     34  H   UNL     1      -1.418   6.872 133.188  0.00  0.00    +0.000 HD
ENDBRANCH  31  33
ENDBRANCH  30  31
BRANCH  26  35
ATOM     35  C   UNL     1      -6.409   4.250 130.040  0.00  0.00    +0.000 C 
ATOM     36  O   UNL     1      -6.153   3.330 129.277  0.00  0.00    +0.000 OA
BRANCH  35  37
ATOM     37  O   UNL     1      -7.558   4.945 129.885  0.00  0.00    +0.000 OA
ATOM     38  H   UNL     1      -7.475   5.913 129.818  0.00  0.00    +0.000 HD
ENDBRANCH  35  37
ENDBRANCH  26  35
ENDBRANCH  21  25
ENDBRANCH   1  21
TORSDOF 10
ENDMDL
MODEL 3
REMARK VINA RESULT:      -8.5      2.209      3.143
REMARK  Name = Ertapenem
REMARK  12 active torsions:
REMARK  status: ('A' for Active; 'I' for Inactive)
REMARK    1  A    between atoms: C_3  and  C_4
REMARK    2  A    between atoms: C_5  and  S_6
REMARK    3  A    between atoms: S_6  and  C_7
REMARK    4  A    between atoms: C_11  and  C_14
REMARK    5  A    between atoms: N_16  and  C_17
REMARK    6  A    between atoms: C_21  and  C_23
REMARK    7  A    between atoms: C_23  and  O_24
REMARK    8  A    between atoms: C_26  and  C_35
REMARK    9  A    between atoms: C_30  and  C_32
REMARK   10  A    between atoms: C_32  and  C_33
REMARK   11  A    between atoms: C_32  and  O_34
REMARK   12  A    between atoms: C_35  and  O_36
REMARK                            x       y       z     vdW  Elec       q    Type
REMARK                         _______ _______ _______ _____ _____    ______ ____
ROOT
ATOM      1  C   UNL     1      -7.711   2.356 132.244  0.00  0.00    +0.000 C 
ATOM      2  C   UNL     1      -9.090   2.063 131.715  0.00  0.00    +0.000 C 
ATOM      3  N   UNL     1     -10.014   2.835 132.531  0.00  0.00    +0.000 NA
ATOM      4  C   UNL     1      -9.289   4.029 133.047  0.00  0.00    +0.000 C 
ATOM      5  C   UNL     1      -7.795   3.758 132.840  0.00  0.00    +0.000 C 
ATOM      6  H   UNL     1     -10.363   2.262 133.294  0.00  0.00    +0.000 HD
ENDROOT
BRANCH   4   7
ATOM      7  C   UNL     1      -9.806   5.326 132.337  0.00  0.00    +0.000 C 
ATOM      8  O   UNL     1      -9.239   6.411 132.476  0.00  0.00    +0.000 OA
ATOM      9  N   UNL     1     -10.973   5.192 131.580  0.00  0.00    +0.000 N 
ATOM     10  H   UNL     1     -11.527   4.348 131.650  0.00  0.00    +0.000 HD
BRANCH   9  11
ATOM     11  C   UNL     1     -11.512   6.266 130.818  0.00  0.00    +0.000 A 
ATOM     12  C   UNL     1     -12.426   7.156 131.388  0.00  0.00    +0.000 A 
ATOM     13  C   UNL     1     -13.001   8.170 130.607  0.00  0.00    +0.000 A 
ATOM     14  C   UNL     1     -12.650   8.325 129.262  0.00  0.00    +0.000 A 
ATOM     15  C   UNL     1     -11.754   7.431 128.669  0.00  0.00    +0.000 A 
ATOM     16  C   UNL     1     -11.186   6.416 129.464  0.00  0.00    +0.000 A 
BRANCH  15  17
ATOM     17  C   UNL     1     -11.395   7.440 127.218  0.00  0.00    +0.000 C 
ATOM     18  O   UNL     1     -10.646   8.280 126.743  0.00  0.00    +0.000 OA
BRANCH  17  19
ATOM     19  O   UNL     1     -11.906   6.453 126.455  0.00  0.00    +0.000 OA
ATOM     20  H   UNL     1     -12.635   5.920 126.807  0.00  0.00    +0.000 HD
ENDBRANCH  17  19
ENDBRANCH  15  17
ENDBRANCH   9  11
ENDBRANCH   4   7
BRANCH   1  21
ATOM     21  S   UNL     1      -6.410   2.078 131.017  0.00  0.00    +0.000 S 
BRANCH  21  25
ATOM     22  C   UNL     1      -8.507   1.229 127.701  0.00  0.00    +0.000 C 
ATOM     23  C   UNL     1      -7.466   0.694 128.692  0.00  0.00    +0.000 C 
ATOM     24  C   UNL     1      -6.358  -0.016 127.906  0.00  0.00    +0.000 C 
ATOM     25  C   UNL     1      -7.061   1.971 129.410  0.00  0.00    +0.000 C 
ATOM     26  C   UNL     1      -7.382   3.047 128.644  0.00  0.00    +0.000 C 
ATOM     27  N   UNL     1      -8.225   2.692 127.592  0.00  0.00    +0.000 N 
ATOM     28  C   UNL     1      -7.865   2.612 126.271  0.00  0.00    +0.000 C 
ATOM     29  O   UNL     1      -7.348   3.422 125.547  0.00  0.00    +0.000 OA
ATOM     30  C   UNL     1      -8.352   1.141 126.158  0.00  0.00    +0.000 C 
BRANCH  30  31
ATOM     31  C   UNL     1      -9.629   0.872 125.384  0.00  0.00    +0.000 C 
ATOM     32  C   UNL     1      -9.478   1.335 123.947  0.00  0.00    +0.000 C 
BRANCH  31  33
ATOM     33  O   UNL     1      -9.898  -0.533 125.410  0.00  0.00    +0.000 OA
ATOM     34  H   UNL     1      -9.422  -0.935 126.160  0.00  0.00    +0.000 HD
ENDBRANCH  31  33
ENDBRANCH  30  31
BRANCH  26  35
ATOM     35  C   UNL     1      -7.008   4.478 128.953  0.00  0.00    +0.000 C 
ATOM     36  O   UNL     1      -7.722   5.264 129.559  0.00  0.00    +0.000 OA
BRANCH  35  37
ATOM     37  O   UNL     1      -5.796   4.881 128.513  0.00  0.00    +0.000 OA
ATOM     38  H   UNL     1      -5.617   4.764 127.563  0.00  0.00    +0.000 HD
ENDBRANCH  35  37
ENDBRANCH  26  35
ENDBRANCH  21  25
ENDBRANCH   1  21
TORSDOF 10
ENDMDL
MODEL 4
REMARK VINA RESULT:      -8.5      1.312      1.540
REMARK  Name = Ertapenem
REMARK  12 active torsions:
REMARK  status: ('A' for Active; 'I' for Inactive)
REMARK    1  A    between atoms: C_3  and  C_4
REMARK    2  A    between atoms: C_5  and  S_6
REMARK    3  A    between atoms: S_6  and  C_7
REMARK    4  A    between atoms: C_11  and  C_14
REMARK    5  A    between atoms: N_16  and  C_17
REMARK    6  A    between atoms: C_21  and  C_23
REMARK    7  A    between atoms: C_23  and  O_24
REMARK    8  A    between atoms: C_26  and  C_35
REMARK    9  A    between atoms: C_30  and  C_32
REMARK   10  A    between atoms: C_32  and  C_33
REMARK   11  A    between atoms: C_32  and  O_34
REMARK   12  A    between atoms: C_35  and  O_36
REMARK                            x       y       z     vdW  Elec       q    Type
REMARK                         _______ _______ _______ _____ _____    ______ ____
ROOT
ATOM      1  C   UNL     1      -8.146   2.046 131.919  0.00  0.00    +0.000 C 
ATOM      2  C   UNL     1      -9.636   1.992 132.126  0.00  0.00    +0.000 C 
ATOM      3  N   UNL     1      -9.958   3.052 133.070  0.00  0.00    +0.000 NA
ATOM      4  C   UNL     1      -8.926   4.116 132.939  0.00  0.00    +0.000 C 
ATOM      5  C   UNL     1      -7.756   3.500 132.165  0.00  0.00    +0.000 C 
ATOM      6  H   UNL     1      -9.978   2.677 134.015  0.00  0.00    +0.000 HD
ENDROOT
BRANCH   4   7
ATOM      7  C   UNL     1      -9.541   5.387 132.259  0.00  0.00    +0.000 C 
ATOM      8  O   UNL     1      -8.978   6.481 132.300  0.00  0.00    +0.000 OA
ATOM      9  N   UNL     1     -10.787   5.218 131.649  0.00  0.00    +0.000 N 
ATOM     10  H   UNL     1     -11.317   4.369 131.807  0.00  0.00    +0.000 HD
BRANCH   9  11
ATOM     11  C   UNL     1     -11.427   6.263 130.927  0.00  0.00    +0.000 A 
ATOM     12  C   UNL     1     -12.365   7.090 131.550  0.00  0.00    +0.000 A 
ATOM     13  C   UNL     1     -13.039   8.073 130.810  0.00  0.00    +0.000 A 
ATOM     14  C   UNL     1     -12.764   8.261 129.451  0.00  0.00    +0.000 A 
ATOM     15  C   UNL     1     -11.846   7.429 128.805  0.00  0.00    +0.000 A 
ATOM     16  C   UNL     1     -11.178   6.444 129.559  0.00  0.00    +0.000 A 
BRANCH  15  17
ATOM     17  C   UNL     1     -11.560   7.472 127.338  0.00  0.00    +0.000 C 
ATOM     18  O   UNL     1     -10.773   8.273 126.857  0.00  0.00    +0.000 OA
BRANCH  17  19
ATOM     19  O   UNL     1     -12.182   6.559 126.566  0.00  0.00    +0.000 OA
ATOM     20  H   UNL     1     -12.141   6.657 125.603  0.00  0.00    +0.000 HD
ENDBRANCH  17  19
ENDBRANCH  15  17
ENDBRANCH   9  11
ENDBRANCH   4   7
BRANCH   1  21
ATOM     21  S   UNL     1      -7.626   1.328 130.342  0.00  0.00    +0.000 S 
BRANCH  21  25
ATOM     22  C   UNL     1      -4.572   2.761 128.167  0.00  0.00    +0.000 C 
ATOM     23  C   UNL     1      -4.945   1.939 129.408  0.00  0.00    +0.000 C 
ATOM     24  C   UNL     1      -4.023   2.346 130.563  0.00  0.00    +0.000 C 
ATOM     25  C   UNL     1      -6.413   2.299 129.567  0.00  0.00    +0.000 C 
ATOM     26  C   UNL     1      -6.671   3.464 128.915  0.00  0.00    +0.000 C 
ATOM     27  N   UNL     1      -5.618   3.822 128.074  0.00  0.00    +0.000 N 
ATOM     28  C   UNL     1      -4.728   4.841 128.298  0.00  0.00    +0.000 C 
ATOM     29  O   UNL     1      -4.909   6.009 128.523  0.00  0.00    +0.000 OA
ATOM     30  C   UNL     1      -3.506   3.890 128.171  0.00  0.00    +0.000 C 
BRANCH  30  31
ATOM     31  C   UNL     1      -2.652   3.991 126.922  0.00  0.00    +0.000 C 
ATOM     32  C   UNL     1      -1.607   2.890 126.910  0.00  0.00    +0.000 C 
BRANCH  31  33
ATOM     33  O   UNL     1      -3.495   3.864 125.773  0.00  0.00    +0.000 OA
ATOM     34  H   UNL     1      -4.051   3.069 125.872  0.00  0.00    +0.000 HD
ENDBRANCH  31  33
ENDBRANCH  30  31
BRANCH  26  35
ATOM     35  C   UNL     1      -7.980   4.217 128.963  0.00  0.00    +0.000 C 
ATOM     36  O   UNL     1      -9.069   3.729 128.697  0.00  0.00    +0.000 OA
BRANCH  35  37
ATOM     37  O   UNL     1      -7.903   5.516 129.327  0.00  0.00    +0.000 OA
ATOM     38  H   UNL     1      -7.610   6.143 128.642  0.00  0.00    +0.000 HD
ENDBRANCH  35  37
ENDBRANCH  26  35
ENDBRANCH  21  25
ENDBRANCH   1  21
TORSDOF 10
ENDMDL
MODEL 5
REMARK VINA RESULT:      -8.5      1.806      2.535
REMARK  Name = Ertapenem
REMARK  12 active torsions:
REMARK  status: ('A' for Active; 'I' for Inactive)
REMARK    1  A    between atoms: C_3  and  C_4
REMARK    2  A    between atoms: C_5  and  S_6
REMARK    3  A    between atoms: S_6  and  C_7
REMARK    4  A    between atoms: C_11  and  C_14
REMARK    5  A    between atoms: N_16  and  C_17
REMARK    6  A    between atoms: C_21  and  C_23
REMARK    7  A    between atoms: C_23  and  O_24
REMARK    8  A    between atoms: C_26  and  C_35
REMARK    9  A    between atoms: C_30  and  C_32
REMARK   10  A    between atoms: C_32  and  C_33
REMARK   11  A    between atoms: C_32  and  O_34
REMARK   12  A    between atoms: C_35  and  O_36
REMARK                            x       y       z     vdW  Elec       q    Type
REMARK                         _______ _______ _______ _____ _____    ______ ____
ROOT
ATOM      1  C   UNL     1      -7.377   2.720 133.451  0.00  0.00    +0.000 C 
ATOM      2  C   UNL     1      -8.350   2.283 132.390  0.00  0.00    +0.000 C 
ATOM      3  N   UNL     1      -9.643   2.833 132.767  0.00  0.00    +0.000 NA
ATOM      4  C   UNL     1      -9.405   4.064 133.569  0.00  0.00    +0.000 C 
ATOM      5  C   UNL     1      -7.933   4.033 133.994  0.00  0.00    +0.000 C 
ATOM      6  H   UNL     1     -10.168   2.146 133.300  0.00  0.00    +0.000 HD
ENDROOT
BRANCH   4   7
ATOM      7  C   UNL     1      -9.802   5.335 132.743  0.00  0.00    +0.000 C 
ATOM      8  O   UNL     1      -9.201   6.403 132.868  0.00  0.00    +0.000 OA
ATOM      9  N   UNL     1     -10.906   5.201 131.897  0.00  0.00    +0.000 N 
ATOM     10  H   UNL     1     -11.500   4.384 131.967  0.00  0.00    +0.000 HD
BRANCH   9  11
ATOM     11  C   UNL     1     -11.330   6.246 131.030  0.00  0.00    +0.000 A 
ATOM     12  C   UNL     1     -12.356   7.116 131.411  0.00  0.00    +0.000 A 
ATOM     13  C   UNL     1     -12.811   8.100 130.521  0.00  0.00    +0.000 A 
ATOM     14  C   UNL     1     -12.231   8.246 129.256  0.00  0.00    +0.000 A 
ATOM     15  C   UNL     1     -11.220   7.371 128.849  0.00  0.00    +0.000 A 
ATOM     16  C   UNL     1     -10.774   6.386 129.752  0.00  0.00    +0.000 A 
BRANCH  15  17
ATOM     17  C   UNL     1     -10.609   7.369 127.484  0.00  0.00    +0.000 C 
ATOM     18  O   UNL     1     -10.857   8.242 126.665  0.00  0.00    +0.000 OA
BRANCH  17  19
ATOM     19  O   UNL     1      -9.740   6.378 127.203  0.00  0.00    +0.000 OA
ATOM     20  H   UNL     1      -8.861   6.399 127.611  0.00  0.00    +0.000 HD
ENDBRANCH  17  19
ENDBRANCH  15  17
ENDBRANCH   9  11
ENDBRANCH   4   7
BRANCH   1  21
ATOM     21  S   UNL     1      -5.664   2.751 132.869  0.00  0.00    +0.000 S 
BRANCH  21  25
ATOM     22  C   UNL     1      -6.093   3.358 128.924  0.00  0.00    +0.000 C 
ATOM     23  C   UNL     1      -5.546   2.398 129.988  0.00  0.00    +0.000 C 
ATOM     24  C   UNL     1      -4.171   1.894 129.536  0.00  0.00    +0.000 C 
ATOM     25  C   UNL     1      -5.560   3.288 131.220  0.00  0.00    +0.000 C 
ATOM     26  C   UNL     1      -5.582   4.593 130.841  0.00  0.00    +0.000 C 
ATOM     27  N   UNL     1      -5.874   4.726 129.484  0.00  0.00    +0.000 N 
ATOM     28  C   UNL     1      -4.981   5.078 128.505  0.00  0.00    +0.000 C 
ATOM     29  O   UNL     1      -4.250   6.029 128.413  0.00  0.00    +0.000 OA
ATOM     30  C   UNL     1      -5.290   3.804 127.672  0.00  0.00    +0.000 C 
BRANCH  30  31
ATOM     31  C   UNL     1      -6.097   3.965 126.397  0.00  0.00    +0.000 C 
ATOM     32  C   UNL     1      -5.170   4.084 125.201  0.00  0.00    +0.000 C 
BRANCH  31  33
ATOM     33  O   UNL     1      -6.942   2.822 126.236  0.00  0.00    +0.000 OA
ATOM     34  H   UNL     1      -7.496   2.721 127.033  0.00  0.00    +0.000 HD
ENDBRANCH  31  33
ENDBRANCH  30  31
BRANCH  26  35
ATOM     35  C   UNL     1      -5.457   5.773 131.776  0.00  0.00    +0.000 C 
ATOM     36  O   UNL     1      -4.458   6.033 132.432  0.00  0.00    +0.000 OA
BRANCH  35  37
ATOM     37  O   UNL     1      -6.542   6.573 131.869  0.00  0.00    +0.000 OA
ATOM     38  H   UNL     1      -7.091   6.657 131.069  0.00  0.00    +0.000 HD
ENDBRANCH  35  37
ENDBRANCH  26  35
ENDBRANCH  21  25
ENDBRANCH   1  21
TORSDOF 10
ENDMDL
MODEL 6
REMARK VINA RESULT:      -8.4      1.981      2.732
REMARK  Name = Ertapenem
REMARK  12 active torsions:
REMARK  status: ('A' for Active; 'I' for Inactive)
REMARK    1  A    between atoms: C_3  and  C_4
REMARK    2  A    between atoms: C_5  and  S_6
REMARK    3  A    between atoms: S_6  and  C_7
REMARK    4  A    between atoms: C_11  and  C_14
REMARK    5  A    between atoms: N_16  and  C_17
REMARK    6  A    between atoms: C_21  and  C_23
REMARK    7  A    between atoms: C_23  and  O_24
REMARK    8  A    between atoms: C_26  and  C_35
REMARK    9  A    between atoms: C_30  and  C_32
REMARK   10  A    between atoms: C_32  and  C_33
REMARK   11  A    between atoms: C_32  and  O_34
REMARK   12  A    between atoms: C_35  and  O_36
REMARK                            x       y       z     vdW  Elec       q    Type
REMARK                         _______ _______ _______ _____ _____    ______ ____
ROOT
ATOM      1  C   UNL     1      -7.512   2.347 132.904  0.00  0.00    +0.000 C 
ATOM      2  C   UNL     1      -8.880   2.036 132.359  0.00  0.00    +0.000 C 
ATOM      3  N   UNL     1      -9.818   2.850 133.117  0.00  0.00    +0.000 NA
ATOM      4  C   UNL     1      -9.097   4.063 133.593  0.00  0.00    +0.000 C 
ATOM      5  C   UNL     1      -7.601   3.775 133.432  0.00  0.00    +0.000 C 
ATOM      6  H   UNL     1     -10.187   2.315 133.898  0.00  0.00    +0.000 HD
ENDROOT
BRANCH   4   7
ATOM      7  C   UNL     1      -9.591   5.328 132.812  0.00  0.00    +0.000 C 
ATOM      8  O   UNL     1      -9.031   6.419 132.925  0.00  0.00    +0.000 OA
ATOM      9  N   UNL     1     -10.730   5.160 132.021  0.00  0.00    +0.000 N 
ATOM     10  H   UNL     1     -11.285   4.317 132.106  0.00  0.00    +0.000 HD
BRANCH   9  11
ATOM     11  C   UNL     1     -11.244   6.199 131.197  0.00  0.00    +0.000 A 
ATOM     12  C   UNL     1     -12.315   6.987 131.627  0.00  0.00    +0.000 A 
ATOM     13  C   UNL     1     -12.855   7.964 130.778  0.00  0.00    +0.000 A 
ATOM     14  C   UNL     1     -12.317   8.185 129.506  0.00  0.00    +0.000 A 
ATOM     15  C   UNL     1     -11.261   7.392 129.049  0.00  0.00    +0.000 A 
ATOM     16  C   UNL     1     -10.729   6.413 129.911  0.00  0.00    +0.000 A 
BRANCH  15  17
ATOM     17  C   UNL     1     -10.685   7.471 127.672  0.00  0.00    +0.000 C 
ATOM     18  O   UNL     1     -10.916   8.413 126.928  0.00  0.00    +0.000 OA
BRANCH  17  19
ATOM     19  O   UNL     1      -9.865   6.471 127.292  0.00  0.00    +0.000 OA
ATOM     20  H   UNL     1      -8.912   6.569 127.437  0.00  0.00    +0.000 HD
ENDBRANCH  17  19
ENDBRANCH  15  17
ENDBRANCH   9  11
ENDBRANCH   4   7
BRANCH   1  21
ATOM     21  S   UNL     1      -6.186   2.006 131.720  0.00  0.00    +0.000 S 
BRANCH  21  25
ATOM     22  C   UNL     1      -6.581   3.306 127.943  0.00  0.00    +0.000 C 
ATOM     23  C   UNL     1      -6.712   3.699 129.420  0.00  0.00    +0.000 C 
ATOM     24  C   UNL     1      -7.997   4.515 129.600  0.00  0.00    +0.000 C 
ATOM     25  C   UNL     1      -6.687   2.335 130.090  0.00  0.00    +0.000 C 
ATOM     26  C   UNL     1      -7.019   1.376 129.186  0.00  0.00    +0.000 C 
ATOM     27  N   UNL     1      -6.999   1.873 127.884  0.00  0.00    +0.000 N 
ATOM     28  C   UNL     1      -8.101   2.137 127.112  0.00  0.00    +0.000 C 
ATOM     29  O   UNL     1      -9.030   1.438 126.801  0.00  0.00    +0.000 OA
ATOM     30  C   UNL     1      -7.664   3.608 126.872  0.00  0.00    +0.000 C 
BRANCH  30  31
ATOM     31  C   UNL     1      -7.142   3.981 125.497  0.00  0.00    +0.000 C 
ATOM     32  C   UNL     1      -8.076   3.455 124.422  0.00  0.00    +0.000 C 
BRANCH  31  33
ATOM     33  O   UNL     1      -7.059   5.406 125.404  0.00  0.00    +0.000 OA
ATOM     34  H   UNL     1      -6.882   5.655 124.478  0.00  0.00    +0.000 HD
ENDBRANCH  31  33
ENDBRANCH  30  31
BRANCH  26  35
ATOM     35  C   UNL     1      -7.242  -0.083 129.507  0.00  0.00    +0.000 C 
ATOM     36  O   UNL     1      -8.210  -0.517 130.115  0.00  0.00    +0.000 OA
BRANCH  35  37
ATOM     37  O   UNL     1      -6.285  -0.936 129.081  0.00  0.00    +0.000 OA
ATOM     38  H   UNL     1      -6.585  -1.698 128.554  0.00  0.00    +0.000 HD
ENDBRANCH  35  37
ENDBRANCH  26  35
ENDBRANCH  21  25
ENDBRANCH   1  21
TORSDOF 10
ENDMDL
MODEL 7
REMARK VINA RESULT:      -8.2      3.257      7.076
REMARK  Name = Ertapenem
REMARK  12 active torsions:
REMARK  status: ('A' for Active; 'I' for Inactive)
REMARK    1  A    between atoms: C_3  and  C_4
REMARK    2  A    between atoms: C_5  and  S_6
REMARK    3  A    between atoms: S_6  and  C_7
REMARK    4  A    between atoms: C_11  and  C_14
REMARK    5  A    between atoms: N_16  and  C_17
REMARK    6  A    between atoms: C_21  and  C_23
REMARK    7  A    between atoms: C_23  and  O_24
REMARK    8  A    between atoms: C_26  and  C_35
REMARK    9  A    between atoms: C_30  and  C_32
REMARK   10  A    between atoms: C_32  and  C_33
REMARK   11  A    between atoms: C_32  and  O_34
REMARK   12  A    between atoms: C_35  and  O_36
REMARK                            x       y       z     vdW  Elec       q    Type
REMARK                         _______ _______ _______ _____ _____    ______ ____
ROOT
ATOM      1  C   UNL     1      -4.551   4.906 130.303  0.00  0.00    +0.000 C 
ATOM      2  C   UNL     1      -4.936   6.237 129.716  0.00  0.00    +0.000 C 
ATOM      3  N   UNL     1      -4.274   6.321 128.422  0.00  0.00    +0.000 NA
ATOM      4  C   UNL     1      -4.074   4.936 127.915  0.00  0.00    +0.000 C 
ATOM      5  C   UNL     1      -4.284   3.997 129.108  0.00  0.00    +0.000 C 
ATOM      6  H   UNL     1      -3.387   6.806 128.520  0.00  0.00    +0.000 HD
ENDROOT
BRANCH   4   7
ATOM      7  C   UNL     1      -5.035   4.657 126.709  0.00  0.00    +0.000 C 
ATOM      8  O   UNL     1      -6.241   4.900 126.771  0.00  0.00    +0.000 OA
ATOM      9  N   UNL     1      -4.455   4.072 125.580  0.00  0.00    +0.000 N 
ATOM     10  H   UNL     1      -3.515   3.697 125.631  0.00  0.00    +0.000 HD
BRANCH   9  11
ATOM     11  C   UNL     1      -5.189   3.835 124.385  0.00  0.00    +0.000 A 
ATOM     12  C   UNL     1      -6.178   2.849 124.339  0.00  0.00    +0.000 A 
ATOM     13  C   UNL     1      -6.847   2.580 123.135  0.00  0.00    +0.000 A 
ATOM     14  C   UNL     1      -6.559   3.308 121.977  0.00  0.00    +0.000 A 
ATOM     15  C   UNL     1      -5.558   4.283 121.998  0.00  0.00    +0.000 A 
ATOM     16  C   UNL     1      -4.891   4.542 123.211  0.00  0.00    +0.000 A 
BRANCH  15  17
ATOM     17  C   UNL     1      -5.097   5.040 120.794  0.00  0.00    +0.000 C 
ATOM     18  O   UNL     1      -5.503   4.779 119.672  0.00  0.00    +0.000 OA
BRANCH  17  19
ATOM     19  O   UNL     1      -4.236   6.057 121.002  0.00  0.00    +0.000 OA
ATOM     20  H   UNL     1      -4.411   6.676 121.726  0.00  0.00    +0.000 HD
ENDBRANCH  17  19
ENDBRANCH  15  17
ENDBRANCH   9  11
ENDBRANCH   4   7
BRANCH   1  21
ATOM     21  S   UNL     1      -5.743   4.302 131.524  0.00  0.00    +0.000 S 
BRANCH  21  25
ATOM     22  C   UNL     1      -9.108   6.215 130.461  0.00  0.00    +0.000 C 
ATOM     23  C   UNL     1      -8.084   6.020 131.586  0.00  0.00    +0.000 C 
ATOM     24  C   UNL     1      -8.833   5.907 132.919  0.00  0.00    +0.000 C 
ATOM     25  C   UNL     1      -7.366   4.766 131.115  0.00  0.00    +0.000 C 
ATOM     26  C   UNL     1      -8.150   4.096 130.229  0.00  0.00    +0.000 C 
ATOM     27  N   UNL     1      -9.222   4.878 129.803  0.00  0.00    +0.000 N 
ATOM     28  C   UNL     1     -10.531   4.711 130.174  0.00  0.00    +0.000 C 
ATOM     29  O   UNL     1     -11.248   3.746 130.115  0.00  0.00    +0.000 OA
ATOM     30  C   UNL     1     -10.645   6.175 130.680  0.00  0.00    +0.000 C 
BRANCH  30  31
ATOM     31  C   UNL     1     -11.452   7.155 129.848  0.00  0.00    +0.000 C 
ATOM     32  C   UNL     1     -12.552   7.775 130.690  0.00  0.00    +0.000 C 
BRANCH  31  33
ATOM     33  O   UNL     1     -10.580   8.182 129.367  0.00  0.00    +0.000 OA
ATOM     34  H   UNL     1      -9.790   7.769 128.971  0.00  0.00    +0.000 HD
ENDBRANCH  31  33
ENDBRANCH  30  31
BRANCH  26  35
ATOM     35  C   UNL     1      -7.843   2.734 129.652  0.00  0.00    +0.000 C 
ATOM     36  O   UNL     1      -7.927   1.684 130.274  0.00  0.00    +0.000 OA
BRANCH  35  37
ATOM     37  O   UNL     1      -7.451   2.713 128.360  0.00  0.00    +0.000 OA
ATOM     38  H   UNL     1      -6.605   3.150 128.155  0.00  0.00    +0.000 HD
ENDBRANCH  35  37
ENDBRANCH  26  35
ENDBRANCH  21  25
ENDBRANCH   1  21
TORSDOF 10
ENDMDL
MODEL 8
REMARK VINA RESULT:      -8.1      2.153      3.411
REMARK  Name = Ertapenem
REMARK  12 active torsions:
REMARK  status: ('A' for Active; 'I' for Inactive)
REMARK    1  A    between atoms: C_3  and  C_4
REMARK    2  A    between atoms: C_5  and  S_6
REMARK    3  A    between atoms: S_6  and  C_7
REMARK    4  A    between atoms: C_11  and  C_14
REMARK    5  A    between atoms: N_16  and  C_17
REMARK    6  A    between atoms: C_21  and  C_23
REMARK    7  A    between atoms: C_23  and  O_24
REMARK    8  A    between atoms: C_26  and  C_35
REMARK    9  A    between atoms: C_30  and  C_32
REMARK   10  A    between atoms: C_32  and  C_33
REMARK   11  A    between atoms: C_32  and  O_34
REMARK   12  A    between atoms: C_35  and  O_36
REMARK                            x       y       z     vdW  Elec       q    Type
REMARK                         _______ _______ _______ _____ _____    ______ ____
ROOT
ATOM      1  C   UNL     1      -4.947   5.038 131.603  0.00  0.00    +0.000 C 
ATOM      2  C   UNL     1      -5.897   4.280 132.491  0.00  0.00    +0.000 C 
ATOM      3  N   UNL     1      -6.928   5.226 132.890  0.00  0.00    +0.000 NA
ATOM      4  C   UNL     1      -7.040   6.262 131.826  0.00  0.00    +0.000 C 
ATOM      5  C   UNL     1      -5.785   6.136 130.957  0.00  0.00    +0.000 C 
ATOM      6  H   UNL     1      -6.685   5.645 133.783  0.00  0.00    +0.000 HD
ENDROOT
BRANCH   4   7
ATOM      7  C   UNL     1      -8.382   6.084 131.037  0.00  0.00    +0.000 C 
ATOM      8  O   UNL     1      -8.803   4.972 130.715  0.00  0.00    +0.000 OA
ATOM      9  N   UNL     1      -9.046   7.260 130.675  0.00  0.00    +0.000 N 
ATOM     10  H   UNL     1      -8.579   8.154 130.769  0.00  0.00    +0.000 HD
BRANCH   9  11
ATOM     11  C   UNL     1     -10.311   7.249 130.025  0.00  0.00    +0.000 A 
ATOM     12  C   UNL     1     -11.487   7.069 130.759  0.00  0.00    +0.000 A 
ATOM     13  C   UNL     1     -12.723   6.993 130.099  0.00  0.00    +0.000 A 
ATOM     14  C   UNL     1     -12.802   7.124 128.709  0.00  0.00    +0.000 A 
ATOM     15  C   UNL     1     -11.635   7.282 127.957  0.00  0.00    +0.000 A 
ATOM     16  C   UNL     1     -10.401   7.354 128.631  0.00  0.00    +0.000 A 
BRANCH  15  17
ATOM     17  C   UNL     1     -11.597   7.322 126.462  0.00  0.00    +0.000 C 
ATOM     18  O   UNL     1     -10.769   7.985 125.855  0.00  0.00    +0.000 OA
BRANCH  17  19
ATOM     19  O   UNL     1     -12.497   6.563 125.806  0.00  0.00    +0.000 OA
ATOM     20  H   UNL     1     -12.492   6.566 124.837  0.00  0.00    +0.000 HD
ENDBRANCH  17  19
ENDBRANCH  15  17
ENDBRANCH   9  11
ENDBRANCH   4   7
BRANCH   1  21
ATOM     21  S   UNL     1      -4.023   3.962 130.478  0.00  0.00    +0.000 S 
BRANCH  21  25
ATOM     22  C   UNL     1      -6.643   3.484 127.475  0.00  0.00    +0.000 C 
ATOM     23  C   UNL     1      -5.891   2.767 128.603  0.00  0.00    +0.000 C 
ATOM     24  C   UNL     1      -5.379   1.422 128.075  0.00  0.00    +0.000 C 
ATOM     25  C   UNL     1      -4.828   3.797 128.948  0.00  0.00    +0.000 C 
ATOM     26  C   UNL     1      -4.666   4.654 127.905  0.00  0.00    +0.000 C 
ATOM     27  N   UNL     1      -5.692   4.521 126.971  0.00  0.00    +0.000 N 
ATOM     28  C   UNL     1      -5.579   3.939 125.735  0.00  0.00    +0.000 C 
ATOM     29  O   UNL     1      -4.820   4.162 124.828  0.00  0.00    +0.000 OA
ATOM     30  C   UNL     1      -6.736   2.944 126.022  0.00  0.00    +0.000 C 
BRANCH  30  31
ATOM     31  C   UNL     1      -8.062   3.172 125.320  0.00  0.00    +0.000 C 
ATOM     32  C   UNL     1      -7.901   2.983 123.823  0.00  0.00    +0.000 C 
BRANCH  31  33
ATOM     33  O   UNL     1      -9.018   2.234 125.822  0.00  0.00    +0.000 OA
ATOM     34  H   UNL     1      -8.894   1.379 125.368  0.00  0.00    +0.000 HD
ENDBRANCH  31  33
ENDBRANCH  30  31
BRANCH  26  35
ATOM     35  C   UNL     1      -3.602   5.723 127.814  0.00  0.00    +0.000 C 
ATOM     36  O   UNL     1      -3.819   6.923 127.899  0.00  0.00    +0.000 OA
BRANCH  35  37
ATOM     37  O   UNL     1      -2.338   5.285 127.622  0.00  0.00    +0.000 OA
ATOM     38  H   UNL     1      -2.204   4.321 127.639  0.00  0.00    +0.000 HD
ENDBRANCH  35  37
ENDBRANCH  26  35
ENDBRANCH  21  25
ENDBRANCH   1  21
TORSDOF 10
ENDMDL
MODEL 9
REMARK VINA RESULT:      -8.1      4.725      8.701
REMARK  Name = Ertapenem
REMARK  12 active torsions:
REMARK  status: ('A' for Active; 'I' for Inactive)
REMARK    1  A    between atoms: C_3  and  C_4
REMARK    2  A    between atoms: C_5  and  S_6
REMARK    3  A    between atoms: S_6  and  C_7
REMARK    4  A    between atoms: C_11  and  C_14
REMARK    5  A    between atoms: N_16  and  C_17
REMARK    6  A    between atoms: C_21  and  C_23
REMARK    7  A    between atoms: C_23  and  O_24
REMARK    8  A    between atoms: C_26  and  C_35
REMARK    9  A    between atoms: C_30  and  C_32
REMARK   10  A    between atoms: C_32  and  C_33
REMARK   11  A    between atoms: C_32  and  O_34
REMARK   12  A    between atoms: C_35  and  O_36
REMARK                            x       y       z     vdW  Elec       q    Type
REMARK                         _______ _______ _______ _____ _____    ______ ____
ROOT
ATOM      1  C   UNL     1      -8.202   1.201 123.354  0.00  0.00    +0.000 C 
ATOM      2  C   UNL     1      -9.338   0.217 123.269  0.00  0.00    +0.000 C 
ATOM      3  N   UNL     1      -8.743  -1.068 122.932  0.00  0.00    +0.000 NA
ATOM      4  C   UNL     1      -7.344  -1.077 123.443  0.00  0.00    +0.000 C 
ATOM      5  C   UNL     1      -6.983   0.379 123.757  0.00  0.00    +0.000 C 
ATOM      6  H   UNL     1      -8.765  -1.205 121.926  0.00  0.00    +0.000 HD
ENDROOT
BRANCH   4   7
ATOM      7  C   UNL     1      -7.222  -2.043 124.670  0.00  0.00    +0.000 C 
ATOM      8  O   UNL     1      -6.915  -3.228 124.534  0.00  0.00    +0.000 OA
ATOM      9  N   UNL     1      -7.530  -1.497 125.919  0.00  0.00    +0.000 N 
ATOM     10  H   UNL     1      -7.974  -0.589 125.978  0.00  0.00    +0.000 HD
BRANCH   9  11
ATOM     11  C   UNL     1      -7.387  -2.235 127.127  0.00  0.00    +0.000 A 
ATOM     12  C   UNL     1      -8.448  -2.993 127.629  0.00  0.00    +0.000 A 
ATOM     13  C   UNL     1      -8.316  -3.662 128.855  0.00  0.00    +0.000 A 
ATOM     14  C   UNL     1      -7.120  -3.605 129.578  0.00  0.00    +0.000 A 
ATOM     15  C   UNL     1      -6.056  -2.833 129.103  0.00  0.00    +0.000 A 
ATOM     16  C   UNL     1      -6.202  -2.165 127.871  0.00  0.00    +0.000 A 
BRANCH  15  17
ATOM     17  C   UNL     1      -4.777  -2.616 129.846  0.00  0.00    +0.000 C 
ATOM     18  O   UNL     1      -4.665  -2.893 131.031  0.00  0.00    +0.000 OA
BRANCH  17  19
ATOM     19  O   UNL     1      -3.733  -2.134 129.143  0.00  0.00    +0.000 OA
ATOM     20  H   UNL     1      -3.026  -2.742 128.881  0.00  0.00    +0.000 HD
ENDBRANCH  17  19
ENDBRANCH  15  17
ENDBRANCH   9  11
ENDBRANCH   4   7
BRANCH   1  21
ATOM     21  S   UNL     1      -8.587   2.634 124.390  0.00  0.00    +0.000 S 
BRANCH  21  25
ATOM     22  C   UNL     1      -5.881   2.134 127.312  0.00  0.00    +0.000 C 
ATOM     23  C   UNL     1      -7.362   1.983 126.941  0.00  0.00    +0.000 C 
ATOM     24  C   UNL     1      -8.215   2.468 128.118  0.00  0.00    +0.000 C 
ATOM     25  C   UNL     1      -7.433   2.821 125.675  0.00  0.00    +0.000 C 
ATOM     26  C   UNL     1      -6.385   3.686 125.639  0.00  0.00    +0.000 C 
ATOM     27  N   UNL     1      -5.423   3.361 126.594  0.00  0.00    +0.000 N 
ATOM     28  C   UNL     1      -5.182   4.054 127.753  0.00  0.00    +0.000 C 
ATOM     29  O   UNL     1      -4.932   5.216 127.937  0.00  0.00    +0.000 OA
ATOM     30  C   UNL     1      -5.386   2.788 128.631  0.00  0.00    +0.000 C 
BRANCH  30  31
ATOM     31  C   UNL     1      -4.160   2.153 129.260  0.00  0.00    +0.000 C 
ATOM     32  C   UNL     1      -4.108   2.469 130.743  0.00  0.00    +0.000 C 
BRANCH  31  33
ATOM     33  O   UNL     1      -4.226   0.736 129.074  0.00  0.00    +0.000 OA
ATOM     34  H   UNL     1      -5.160   0.456 129.092  0.00  0.00    +0.000 HD
ENDBRANCH  31  33
ENDBRANCH  30  31
BRANCH  26  35
ATOM     35  C   UNL     1      -6.191   4.776 124.612  0.00  0.00    +0.000 C 
ATOM     36  O   UNL     1      -5.698   4.605 123.506  0.00  0.00    +0.000 OA
BRANCH  35  37
ATOM     37  O   UNL     1      -6.601   6.011 124.976  0.00  0.00    +0.000 OA
ATOM     38  H   UNL     1      -5.902   6.660 125.177  0.00  0.00    +0.000 HD
ENDBRANCH  35  37
ENDBRANCH  26  35
ENDBRANCH  21  25
ENDBRANCH   1  21
TORSDOF 10
ENDMDL
