MODEL 1
REMARK VINA RESULT:      -8.0      0.000      0.000
REMARK  Name = Ertugliflozin
REMARK  11 active torsions:
REMARK  status: ('A' for Active; 'I' for Inactive)
REMARK    1  A    between atoms: C_1  and  C_2
REMARK    2  A    between atoms: C_2  and  O_3
REMARK    3  A    between atoms: O_3  and  C_4
REMARK    4  A    between atoms: C_7  and  C_8
REMARK    5  A    between atoms: C_8  and  C_9
REMARK    6  A    between atoms: C_11  and  C_16
REMARK    7  A    between atoms: C_19  and  C_20
REMARK    8  A    between atoms: C_20  and  O_21
REMARK    9  A    between atoms: C_23  and  O_24
REMARK   10  A    between atoms: C_25  and  O_26
REMARK   11  A    between atoms: C_27  and  O_28
REMARK                            x       y       z     vdW  Elec       q    Type
REMARK                         _______ _______ _______ _____ _____    ______ ____
ROOT
ATOM      1  C   UNL     1      -6.758   6.169 132.555  0.00  0.00    +0.000 A 
ATOM      2  C   UNL     1      -7.548   6.489 131.380  0.00  0.00    +0.000 A 
ATOM      3  C   UNL     1      -8.944   6.290 131.365  0.00  0.00    +0.000 A 
ATOM      4  C   UNL     1      -9.464   5.621 132.526  0.00  0.00    +0.000 A 
ATOM      5  C   UNL     1      -8.724   5.326 133.674  0.00  0.00    +0.000 A 
ATOM      6  C   UNL     1      -7.381   5.660 133.715  0.00  0.00    +0.000 A 
ATOM      7 CL   UNL     1      -6.554   5.350 135.211  0.00  0.00    +0.000 Cl
ENDROOT
BRANCH   3   8
ATOM      8  C   UNL     1     -10.061   6.881 130.413  0.00  0.00    +0.000 C 
ATOM      9  O   UNL     1      -9.314   6.988 129.185  0.00  0.00    +0.000 OA
ATOM     10  C   UNL     1     -10.026   7.991 128.440  0.00  0.00    +0.000 C 
ATOM     11  C   UNL     1     -11.428   7.413 128.546  0.00  0.00    +0.000 C 
ATOM     12  O   UNL     1     -10.942   8.006 130.045  0.00  0.00    +0.000 OA
ATOM     13  C   UNL     1     -12.775   6.958 129.201  0.00  0.00    +0.000 C 
ATOM     14  C   UNL     1     -12.621   6.571 130.672  0.00  0.00    +0.000 C 
ATOM     15  C   UNL     1     -11.238   5.825 130.684  0.00  0.00    +0.000 C 
BRANCH  13  16
ATOM     16  O   UNL     1     -13.326   5.798 128.538  0.00  0.00    +0.000 OA
ATOM     17  H   UNL     1     -12.900   5.003 128.924  0.00  0.00    +0.000 HD
ENDBRANCH  13  16
BRANCH  14  18
ATOM     18  O   UNL     1     -12.697   7.736 131.523  0.00  0.00    +0.000 OA
ATOM     19  H   UNL     1     -12.653   7.393 132.447  0.00  0.00    +0.000 HD
ENDBRANCH  14  18
BRANCH  15  20
ATOM     20  O   UNL     1     -11.248   4.749 129.717  0.00  0.00    +0.000 OA
ATOM     21  H   UNL     1     -11.956   4.128 129.977  0.00  0.00    +0.000 HD
ENDBRANCH  15  20
BRANCH  11  22
ATOM     22  C   UNL     1     -11.868   7.874 127.099  0.00  0.00    +0.000 C 
BRANCH  22  23
ATOM     23  O   UNL     1     -11.967   6.837 126.100  0.00  0.00    +0.000 OA
ATOM     24  H   UNL     1     -11.397   6.075 126.327  0.00  0.00    +0.000 HD
ENDBRANCH  22  23
ENDBRANCH  11  22
ENDBRANCH   3   8
BRANCH   1  25
ATOM     25  C   UNL     1      -5.234   6.343 132.564  0.00  0.00    +0.000 C 
BRANCH  25  29
ATOM     26  C   UNL     1      -3.218   5.447 128.806  0.00  0.00    +0.000 A 
ATOM     27  C   UNL     1      -3.556   4.436 129.691  0.00  0.00    +0.000 A 
ATOM     28  C   UNL     1      -4.238   4.706 130.886  0.00  0.00    +0.000 A 
ATOM     29  C   UNL     1      -4.525   6.043 131.245  0.00  0.00    +0.000 A 
ATOM     30  C   UNL     1      -4.158   7.041 130.344  0.00  0.00    +0.000 A 
ATOM     31  C   UNL     1      -3.563   6.768 129.121  0.00  0.00    +0.000 A 
BRANCH  26  32
ATOM     32  O   UNL     1      -2.619   5.095 127.632  0.00  0.00    +0.000 OA
BRANCH  32  34
ATOM     33  C   UNL     1      -1.714   3.075 126.741  0.00  0.00    +0.000 C 
ATOM     34  C   UNL     1      -2.983   3.805 127.129  0.00  0.00    +0.000 C 
ENDBRANCH  32  34
ENDBRANCH  26  32
ENDBRANCH  25  29
ENDBRANCH   1  25
TORSDOF 10
ENDMDL
MODEL 2
REMARK VINA RESULT:      -7.9      4.299      7.645
REMARK  Name = Ertugliflozin
REMARK  11 active torsions:
REMARK  status: ('A' for Active; 'I' for Inactive)
REMARK    1  A    between atoms: C_1  and  C_2
REMARK    2  A    between atoms: C_2  and  O_3
REMARK    3  A    between atoms: O_3  and  C_4
REMARK    4  A    between atoms: C_7  and  C_8
REMARK    5  A    between atoms: C_8  and  C_9
REMARK    6  A    between atoms: C_11  and  C_16
REMARK    7  A    between atoms: C_19  and  C_20
REMARK    8  A    between atoms: C_20  and  O_21
REMARK    9  A    between atoms: C_23  and  O_24
REMARK   10  A    between atoms: C_25  and  O_26
REMARK   11  A    between atoms: C_27  and  O_28
REMARK                            x       y       z     vdW  Elec       q    Type
REMARK                         _______ _______ _______ _____ _____    ______ ____
ROOT
ATOM      1  C   UNL     1      -8.562   4.823 130.081  0.00  0.00    +0.000 A 
ATOM      2  C   UNL     1      -8.146   4.536 128.720  0.00  0.00    +0.000 A 
ATOM      3  C   UNL     1      -7.973   3.208 128.278  0.00  0.00    +0.000 A 
ATOM      4  C   UNL     1      -8.092   2.215 129.309  0.00  0.00    +0.000 A 
ATOM      5  C   UNL     1      -8.512   2.470 130.617  0.00  0.00    +0.000 A 
ATOM      6  C   UNL     1      -8.810   3.771 130.988  0.00  0.00    +0.000 A 
ATOM      7 CL   UNL     1      -9.418   3.993 132.599  0.00  0.00    +0.000 Cl
ENDROOT
BRANCH   3   8
ATOM      8  C   UNL     1      -7.907   2.608 126.815  0.00  0.00    +0.000 C 
ATOM      9  O   UNL     1      -9.103   1.802 126.820  0.00  0.00    +0.000 OA
ATOM     10  C   UNL     1      -8.854   0.819 125.801  0.00  0.00    +0.000 C 
ATOM     11  C   UNL     1      -8.448   1.749 124.669  0.00  0.00    +0.000 C 
ATOM     12  O   UNL     1      -7.241   1.720 125.842  0.00  0.00    +0.000 OA
ATOM     13  C   UNL     1      -7.594   2.784 123.864  0.00  0.00    +0.000 C 
ATOM     14  C   UNL     1      -6.747   3.686 124.763  0.00  0.00    +0.000 C 
ATOM     15  C   UNL     1      -7.712   3.959 125.973  0.00  0.00    +0.000 C 
BRANCH  13  16
ATOM     16  O   UNL     1      -8.425   3.670 123.080  0.00  0.00    +0.000 OA
ATOM     17  H   UNL     1      -8.651   4.442 123.640  0.00  0.00    +0.000 HD
ENDBRANCH  13  16
BRANCH  14  18
ATOM     18  O   UNL     1      -5.498   3.047 125.107  0.00  0.00    +0.000 OA
ATOM     19  H   UNL     1      -5.656   2.606 125.975  0.00  0.00    +0.000 HD
ENDBRANCH  14  18
BRANCH  15  20
ATOM     20  O   UNL     1      -8.967   4.497 125.494  0.00  0.00    +0.000 OA
ATOM     21  H   UNL     1      -8.763   5.300 124.977  0.00  0.00    +0.000 HD
ENDBRANCH  15  20
BRANCH  11  22
ATOM     22  C   UNL     1      -9.114   0.872 123.534  0.00  0.00    +0.000 C 
BRANCH  22  23
ATOM     23  O   UNL     1     -10.539   0.671 123.635  0.00  0.00    +0.000 OA
ATOM     24  H   UNL     1     -11.008   1.523 123.731  0.00  0.00    +0.000 HD
ENDBRANCH  22  23
ENDBRANCH  11  22
ENDBRANCH   3   8
BRANCH   1  25
ATOM     25  C   UNL     1      -8.712   6.266 130.582  0.00  0.00    +0.000 C 
BRANCH  25  29
ATOM     26  C   UNL     1     -12.362   8.319 129.379  0.00  0.00    +0.000 A 
ATOM     27  C   UNL     1     -12.349   7.478 130.479  0.00  0.00    +0.000 A 
ATOM     28  C   UNL     1     -11.173   6.840 130.900  0.00  0.00    +0.000 A 
ATOM     29  C   UNL     1      -9.985   6.989 130.148  0.00  0.00    +0.000 A 
ATOM     30  C   UNL     1     -10.032   7.829 129.036  0.00  0.00    +0.000 A 
ATOM     31  C   UNL     1     -11.171   8.529 128.670  0.00  0.00    +0.000 A 
BRANCH  26  32
ATOM     32  O   UNL     1     -13.530   8.958 129.076  0.00  0.00    +0.000 OA
BRANCH  32  34
ATOM     33  C   UNL     1     -13.510  11.028 130.261  0.00  0.00    +0.000 C 
ATOM     34  C   UNL     1     -13.417  10.373 128.899  0.00  0.00    +0.000 C 
ENDBRANCH  32  34
ENDBRANCH  26  32
ENDBRANCH  25  29
ENDBRANCH   1  25
TORSDOF 10
ENDMDL
MODEL 3
REMARK VINA RESULT:      -7.8      4.068      5.319
REMARK  Name = Ertugliflozin
REMARK  11 active torsions:
REMARK  status: ('A' for Active; 'I' for Inactive)
REMARK    1  A    between atoms: C_1  and  C_2
REMARK    2  A    between atoms: C_2  and  O_3
REMARK    3  A    between atoms: O_3  and  C_4
REMARK    4  A    between atoms: C_7  and  C_8
REMARK    5  A    between atoms: C_8  and  C_9
REMARK    6  A    between atoms: C_11  and  C_16
REMARK    7  A    between atoms: C_19  and  C_20
REMARK    8  A    between atoms: C_20  and  O_21
REMARK    9  A    between atoms: C_23  and  O_24
REMARK   10  A    between atoms: C_25  and  O_26
REMARK   11  A    between atoms: C_27  and  O_28
REMARK                            x       y       z     vdW  Elec       q    Type
REMARK                         _______ _______ _______ _____ _____    ______ ____
ROOT
ATOM      1  C   UNL     1      -6.703   2.909 127.483  0.00  0.00    +0.000 A 
ATOM      2  C   UNL     1      -7.920   3.616 127.839  0.00  0.00    +0.000 A 
ATOM      3  C   UNL     1      -7.997   4.385 129.019  0.00  0.00    +0.000 A 
ATOM      4  C   UNL     1      -6.849   4.276 129.877  0.00  0.00    +0.000 A 
ATOM      5  C   UNL     1      -5.662   3.620 129.542  0.00  0.00    +0.000 A 
ATOM      6  C   UNL     1      -5.565   2.988 128.313  0.00  0.00    +0.000 A 
ATOM      7 CL   UNL     1      -4.026   2.278 127.931  0.00  0.00    +0.000 Cl
ENDROOT
BRANCH   3   8
ATOM      8  C   UNL     1      -9.011   5.521 129.447  0.00  0.00    +0.000 C 
ATOM      9  O   UNL     1      -9.607   5.821 128.168  0.00  0.00    +0.000 OA
ATOM     10  C   UNL     1     -10.106   7.160 128.331  0.00  0.00    +0.000 C 
ATOM     11  C   UNL     1     -10.888   6.965 129.620  0.00  0.00    +0.000 C 
ATOM     12  O   UNL     1      -9.237   6.893 129.941  0.00  0.00    +0.000 OA
ATOM     13  C   UNL     1     -11.160   6.690 131.136  0.00  0.00    +0.000 C 
ATOM     14  C   UNL     1     -10.082   5.822 131.788  0.00  0.00    +0.000 C 
ATOM     15  C   UNL     1      -9.758   4.779 130.657  0.00  0.00    +0.000 C 
BRANCH  13  16
ATOM     16  O   UNL     1     -12.410   5.992 131.338  0.00  0.00    +0.000 OA
ATOM     17  H   UNL     1     -12.598   5.987 132.301  0.00  0.00    +0.000 HD
ENDBRANCH  13  16
BRANCH  14  18
ATOM     18  O   UNL     1      -8.963   6.627 132.219  0.00  0.00    +0.000 OA
ATOM     19  H   UNL     1      -8.681   6.246 133.084  0.00  0.00    +0.000 HD
ENDBRANCH  14  18
BRANCH  15  20
ATOM     20  O   UNL     1     -10.971   4.115 130.233  0.00  0.00    +0.000 OA
ATOM     21  H   UNL     1     -11.595   4.807 129.936  0.00  0.00    +0.000 HD
ENDBRANCH  15  20
BRANCH  11  22
ATOM     22  C   UNL     1     -12.046   7.966 129.222  0.00  0.00    +0.000 C 
BRANCH  22  23
ATOM     23  O   UNL     1     -11.665   9.089 128.400  0.00  0.00    +0.000 OA
ATOM     24  H   UNL     1     -12.153   9.896 128.660  0.00  0.00    +0.000 HD
ENDBRANCH  22  23
ENDBRANCH  11  22
ENDBRANCH   3   8
BRANCH   1  25
ATOM     25  C   UNL     1      -6.626   2.037 126.223  0.00  0.00    +0.000 C 
BRANCH  25  29
ATOM     26  C   UNL     1      -5.654   4.158 122.542  0.00  0.00    +0.000 A 
ATOM     27  C   UNL     1      -5.108   4.548 123.753  0.00  0.00    +0.000 A 
ATOM     28  C   UNL     1      -5.382   3.852 124.939  0.00  0.00    +0.000 A 
ATOM     29  C   UNL     1      -6.296   2.773 124.926  0.00  0.00    +0.000 A 
ATOM     30  C   UNL     1      -6.844   2.413 123.695  0.00  0.00    +0.000 A 
ATOM     31  C   UNL     1      -6.505   3.044 122.508  0.00  0.00    +0.000 A 
BRANCH  26  32
ATOM     32  O   UNL     1      -5.281   4.842 121.422  0.00  0.00    +0.000 OA
BRANCH  32  34
ATOM     33  C   UNL     1      -5.702   5.456 119.156  0.00  0.00    +0.000 C 
ATOM     34  C   UNL     1      -5.866   4.374 120.203  0.00  0.00    +0.000 C 
ENDBRANCH  32  34
ENDBRANCH  26  32
ENDBRANCH  25  29
ENDBRANCH   1  25
TORSDOF 10
ENDMDL
MODEL 4
REMARK VINA RESULT:      -7.8      1.512      2.724
REMARK  Name = Ertugliflozin
REMARK  11 active torsions:
REMARK  status: ('A' for Active; 'I' for Inactive)
REMARK    1  A    between atoms: C_1  and  C_2
REMARK    2  A    between atoms: C_2  and  O_3
REMARK    3  A    between atoms: O_3  and  C_4
REMARK    4  A    between atoms: C_7  and  C_8
REMARK    5  A    between atoms: C_8  and  C_9
REMARK    6  A    between atoms: C_11  and  C_16
REMARK    7  A    between atoms: C_19  and  C_20
REMARK    8  A    between atoms: C_20  and  O_21
REMARK    9  A    between atoms: C_23  and  O_24
REMARK   10  A    between atoms: C_25  and  O_26
REMARK   11  A    between atoms: C_27  and  O_28
REMARK                            x       y       z     vdW  Elec       q    Type
REMARK                         _______ _______ _______ _____ _____    ______ ____
ROOT
ATOM      1  C   UNL     1      -5.519   5.916 133.702  0.00  0.00    +0.000 A 
ATOM      2  C   UNL     1      -6.463   5.756 132.611  0.00  0.00    +0.000 A 
ATOM      3  C   UNL     1      -7.833   5.533 132.860  0.00  0.00    +0.000 A 
ATOM      4  C   UNL     1      -8.163   5.333 134.244  0.00  0.00    +0.000 A 
ATOM      5  C   UNL     1      -7.274   5.505 135.308  0.00  0.00    +0.000 A 
ATOM      6  C   UNL     1      -5.962   5.860 135.041  0.00  0.00    +0.000 A 
ATOM      7 CL   UNL     1      -4.945   6.150 136.419  0.00  0.00    +0.000 Cl
ENDROOT
BRANCH   3   8
ATOM      8  C   UNL     1      -9.094   5.700 131.918  0.00  0.00    +0.000 C 
ATOM      9  O   UNL     1      -9.889   6.597 132.720  0.00  0.00    +0.000 OA
ATOM     10  C   UNL     1     -11.229   6.377 132.248  0.00  0.00    +0.000 C 
ATOM     11  C   UNL     1     -10.985   6.543 130.757  0.00  0.00    +0.000 C 
ATOM     12  O   UNL     1     -10.289   5.106 131.291  0.00  0.00    +0.000 OA
ATOM     13  C   UNL     1     -10.440   6.235 129.322  0.00  0.00    +0.000 C 
ATOM     14  C   UNL     1      -9.129   5.448 129.339  0.00  0.00    +0.000 C 
ATOM     15  C   UNL     1      -8.361   6.097 130.548  0.00  0.00    +0.000 C 
BRANCH  13  16
ATOM     16  O   UNL     1     -10.171   7.445 128.580  0.00  0.00    +0.000 OA
ATOM     17  H   UNL     1      -9.931   7.188 127.665  0.00  0.00    +0.000 HD
ENDBRANCH  13  16
BRANCH  14  18
ATOM     18  O   UNL     1      -9.378   4.031 129.460  0.00  0.00    +0.000 OA
ATOM     19  H   UNL     1     -10.353   3.923 129.358  0.00  0.00    +0.000 HD
ENDBRANCH  14  18
BRANCH  15  20
ATOM     20  O   UNL     1      -8.269   7.529 130.365  0.00  0.00    +0.000 OA
ATOM     21  H   UNL     1      -8.410   7.712 129.416  0.00  0.00    +0.000 HD
ENDBRANCH  15  20
BRANCH  11  22
ATOM     22  C   UNL     1     -12.381   7.231 130.472  0.00  0.00    +0.000 C 
BRANCH  22  23
ATOM     23  O   UNL     1     -13.328   7.228 131.560  0.00  0.00    +0.000 OA
ATOM     24  H   UNL     1     -12.871   7.264 132.424  0.00  0.00    +0.000 HD
ENDBRANCH  22  23
ENDBRANCH  11  22
ENDBRANCH   3   8
BRANCH   1  25
ATOM     25  C   UNL     1      -4.020   6.116 133.439  0.00  0.00    +0.000 C 
BRANCH  25  29
ATOM     26  C   UNL     1      -2.694   5.224 129.385  0.00  0.00    +0.000 A 
ATOM     27  C   UNL     1      -3.072   4.209 130.249  0.00  0.00    +0.000 A 
ATOM     28  C   UNL     1      -3.535   4.484 131.543  0.00  0.00    +0.000 A 
ATOM     29  C   UNL     1      -3.551   5.816 132.017  0.00  0.00    +0.000 A 
ATOM     30  C   UNL     1      -3.150   6.816 131.131  0.00  0.00    +0.000 A 
ATOM     31  C   UNL     1      -2.775   6.553 129.822  0.00  0.00    +0.000 A 
BRANCH  26  32
ATOM     32  O   UNL     1      -2.323   4.879 128.118  0.00  0.00    +0.000 OA
BRANCH  32  34
ATOM     33  C   UNL     1      -1.776   3.153 126.565  0.00  0.00    +0.000 C 
ATOM     34  C   UNL     1      -2.663   3.545 127.728  0.00  0.00    +0.000 C 
ENDBRANCH  32  34
ENDBRANCH  26  32
ENDBRANCH  25  29
ENDBRANCH   1  25
TORSDOF 10
ENDMDL
MODEL 5
REMARK VINA RESULT:      -7.7      5.864      6.942
REMARK  Name = Ertugliflozin
REMARK  11 active torsions:
REMARK  status: ('A' for Active; 'I' for Inactive)
REMARK    1  A    between atoms: C_1  and  C_2
REMARK    2  A    between atoms: C_2  and  O_3
REMARK    3  A    between atoms: O_3  and  C_4
REMARK    4  A    between atoms: C_7  and  C_8
REMARK    5  A    between atoms: C_8  and  C_9
REMARK    6  A    between atoms: C_11  and  C_16
REMARK    7  A    between atoms: C_19  and  C_20
REMARK    8  A    between atoms: C_20  and  O_21
REMARK    9  A    between atoms: C_23  and  O_24
REMARK   10  A    between atoms: C_25  and  O_26
REMARK   11  A    between atoms: C_27  and  O_28
REMARK                            x       y       z     vdW  Elec       q    Type
REMARK                         _______ _______ _______ _____ _____    ______ ____
ROOT
ATOM      1  C   UNL     1      -7.708  -0.785 131.733  0.00  0.00    +0.000 A 
ATOM      2  C   UNL     1      -8.593   0.337 131.477  0.00  0.00    +0.000 A 
ATOM      3  C   UNL     1      -8.352   1.600 132.056  0.00  0.00    +0.000 A 
ATOM      4  C   UNL     1      -7.277   1.625 133.008  0.00  0.00    +0.000 A 
ATOM      5  C   UNL     1      -6.401   0.564 133.250  0.00  0.00    +0.000 A 
ATOM      6  C   UNL     1      -6.578  -0.626 132.563  0.00  0.00    +0.000 A 
ATOM      7 CL   UNL     1      -5.392  -1.863 132.847  0.00  0.00    +0.000 Cl
ENDROOT
BRANCH   3   8
ATOM      8  C   UNL     1      -8.898   3.034 131.667  0.00  0.00    +0.000 C 
ATOM      9  O   UNL     1     -10.237   2.691 131.258  0.00  0.00    +0.000 OA
ATOM     10  C   UNL     1     -10.616   3.776 130.393  0.00  0.00    +0.000 C 
ATOM     11  C   UNL     1     -10.267   4.940 131.307  0.00  0.00    +0.000 C 
ATOM     12  O   UNL     1      -8.856   4.200 130.764  0.00  0.00    +0.000 OA
ATOM     13  C   UNL     1      -9.387   5.928 132.143  0.00  0.00    +0.000 C 
ATOM     14  C   UNL     1      -8.078   5.299 132.623  0.00  0.00    +0.000 C 
ATOM     15  C   UNL     1      -8.522   3.840 133.003  0.00  0.00    +0.000 C 
BRANCH  13  16
ATOM     16  O   UNL     1     -10.073   6.380 133.332  0.00  0.00    +0.000 OA
ATOM     17  H   UNL     1      -9.996   7.357 133.369  0.00  0.00    +0.000 HD
ENDBRANCH  13  16
BRANCH  14  18
ATOM     18  O   UNL     1      -7.059   5.385 131.604  0.00  0.00    +0.000 OA
ATOM     19  H   UNL     1      -6.686   4.475 131.525  0.00  0.00    +0.000 HD
ENDBRANCH  14  18
BRANCH  15  20
ATOM     20  O   UNL     1      -9.618   3.885 133.947  0.00  0.00    +0.000 OA
ATOM     21  H   UNL     1     -10.441   3.716 133.448  0.00  0.00    +0.000 HD
ENDBRANCH  15  20
BRANCH  11  22
ATOM     22  C   UNL     1     -11.472   5.846 130.829  0.00  0.00    +0.000 C 
BRANCH  22  23
ATOM     23  O   UNL     1     -12.374   6.304 131.857  0.00  0.00    +0.000 OA
ATOM     24  H   UNL     1     -12.368   5.699 132.625  0.00  0.00    +0.000 HD
ENDBRANCH  22  23
ENDBRANCH  11  22
ENDBRANCH   3   8
BRANCH   1  25
ATOM     25  C   UNL     1      -7.987  -2.173 131.141  0.00  0.00    +0.000 C 
BRANCH  25  29
ATOM     26  C   UNL     1      -7.608  -2.529 126.815  0.00  0.00    +0.000 A 
ATOM     27  C   UNL     1      -8.395  -3.412 127.535  0.00  0.00    +0.000 A 
ATOM     28  C   UNL     1      -8.556  -3.288 128.922  0.00  0.00    +0.000 A 
ATOM     29  C   UNL     1      -7.844  -2.289 129.625  0.00  0.00    +0.000 A 
ATOM     30  C   UNL     1      -7.046  -1.424 128.877  0.00  0.00    +0.000 A 
ATOM     31  C   UNL     1      -6.955  -1.491 127.495  0.00  0.00    +0.000 A 
BRANCH  26  32
ATOM     32  O   UNL     1      -7.560  -2.674 125.459  0.00  0.00    +0.000 OA
BRANCH  32  34
ATOM     33  C   UNL     1      -9.280  -3.279 123.921  0.00  0.00    +0.000 C 
ATOM     34  C   UNL     1      -8.289  -3.793 124.943  0.00  0.00    +0.000 C 
ENDBRANCH  32  34
ENDBRANCH  26  32
ENDBRANCH  25  29
ENDBRANCH   1  25
TORSDOF 10
ENDMDL
MODEL 6
REMARK VINA RESULT:      -7.7      4.919      6.113
REMARK  Name = Ertugliflozin
REMARK  11 active torsions:
REMARK  status: ('A' for Active; 'I' for Inactive)
REMARK    1  A    between atoms: C_1  and  C_2
REMARK    2  A    between atoms: C_2  and  O_3
REMARK    3  A    between atoms: O_3  and  C_4
REMARK    4  A    between atoms: C_7  and  C_8
REMARK    5  A    between atoms: C_8  and  C_9
REMARK    6  A    between atoms: C_11  and  C_16
REMARK    7  A    between atoms: C_19  and  C_20
REMARK    8  A    between atoms: C_20  and  O_21
REMARK    9  A    between atoms: C_23  and  O_24
REMARK   10  A    between atoms: C_25  and  O_26
REMARK   11  A    between atoms: C_27  and  O_28
REMARK                            x       y       z     vdW  Elec       q    Type
REMARK                         _______ _______ _______ _____ _____    ______ ____
ROOT
ATOM      1  C   UNL     1      -6.855   3.304 127.086  0.00  0.00    +0.000 A 
ATOM      2  C   UNL     1      -7.999   4.126 127.435  0.00  0.00    +0.000 A 
ATOM      3  C   UNL     1      -8.246   4.499 128.773  0.00  0.00    +0.000 A 
ATOM      4  C   UNL     1      -7.375   3.881 129.735  0.00  0.00    +0.000 A 
ATOM      5  C   UNL     1      -6.256   3.107 129.416  0.00  0.00    +0.000 A 
ATOM      6  C   UNL     1      -5.958   2.870 128.084  0.00  0.00    +0.000 A 
ATOM      7 CL   UNL     1      -4.499   1.982 127.768  0.00  0.00    +0.000 Cl
ENDROOT
BRANCH   3   8
ATOM      8  C   UNL     1      -9.149   5.651 129.374  0.00  0.00    +0.000 C 
ATOM      9  O   UNL     1      -9.802   6.111 128.173  0.00  0.00    +0.000 OA
ATOM     10  C   UNL     1     -10.194   7.456 128.494  0.00  0.00    +0.000 C 
ATOM     11  C   UNL     1     -10.905   7.188 129.810  0.00  0.00    +0.000 C 
ATOM     12  O   UNL     1      -9.245   6.980 130.007  0.00  0.00    +0.000 OA
ATOM     13  C   UNL     1     -11.099   6.785 131.310  0.00  0.00    +0.000 C 
ATOM     14  C   UNL     1     -10.044   5.792 131.802  0.00  0.00    +0.000 C 
ATOM     15  C   UNL     1      -9.867   4.844 130.560  0.00  0.00    +0.000 C 
BRANCH  13  16
ATOM     16  O   UNL     1     -12.379   6.152 131.534  0.00  0.00    +0.000 OA
ATOM     17  H   UNL     1     -12.554   6.164 132.498  0.00  0.00    +0.000 HD
ENDBRANCH  13  16
BRANCH  14  18
ATOM     18  O   UNL     1      -8.847   6.477 132.226  0.00  0.00    +0.000 OA
ATOM     19  H   UNL     1      -8.828   7.320 131.714  0.00  0.00    +0.000 HD
ENDBRANCH  14  18
BRANCH  15  20
ATOM     20  O   UNL     1     -11.149   4.304 130.162  0.00  0.00    +0.000 OA
ATOM     21  H   UNL     1     -11.756   5.058 130.028  0.00  0.00    +0.000 HD
ENDBRANCH  15  20
BRANCH  11  22
ATOM     22  C   UNL     1     -12.012   8.295 129.589  0.00  0.00    +0.000 C 
BRANCH  22  23
ATOM     23  O   UNL     1     -11.851   9.137 128.429  0.00  0.00    +0.000 OA
ATOM     24  H   UNL     1     -12.605   9.753 128.334  0.00  0.00    +0.000 HD
ENDBRANCH  22  23
ENDBRANCH  11  22
ENDBRANCH   3   8
BRANCH   1  25
ATOM     25  C   UNL     1      -6.604   2.859 125.638  0.00  0.00    +0.000 C 
BRANCH  25  29
ATOM     26  C   UNL     1      -8.858  -0.613 124.274  0.00  0.00    +0.000 A 
ATOM     27  C   UNL     1      -7.913  -0.012 123.458  0.00  0.00    +0.000 A 
ATOM     28  C   UNL     1      -7.155   1.082 123.898  0.00  0.00    +0.000 A 
ATOM     29  C   UNL     1      -7.402   1.644 125.171  0.00  0.00    +0.000 A 
ATOM     30  C   UNL     1      -8.371   1.029 125.965  0.00  0.00    +0.000 A 
ATOM     31  C   UNL     1      -9.060  -0.106 125.566  0.00  0.00    +0.000 A 
BRANCH  26  32
ATOM     32  O   UNL     1      -9.503  -1.717 123.800  0.00  0.00    +0.000 OA
BRANCH  32  34
ATOM     33  C   UNL     1      -8.360  -3.677 124.534  0.00  0.00    +0.000 C 
ATOM     34  C   UNL     1      -8.648  -2.774 123.353  0.00  0.00    +0.000 C 
ENDBRANCH  32  34
ENDBRANCH  26  32
ENDBRANCH  25  29
ENDBRANCH   1  25
TORSDOF 10
ENDMDL
MODEL 7
REMARK VINA RESULT:      -7.5      6.984      8.908
REMARK  Name = Ertugliflozin
REMARK  11 active torsions:
REMARK  status: ('A' for Active; 'I' for Inactive)
REMARK    1  A    between atoms: C_1  and  C_2
REMARK    2  A    between atoms: C_2  and  O_3
REMARK    3  A    between atoms: O_3  and  C_4
REMARK    4  A    between atoms: C_7  and  C_8
REMARK    5  A    between atoms: C_8  and  C_9
REMARK    6  A    between atoms: C_11  and  C_16
REMARK    7  A    between atoms: C_19  and  C_20
REMARK    8  A    between atoms: C_20  and  O_21
REMARK    9  A    between atoms: C_23  and  O_24
REMARK   10  A    between atoms: C_25  and  O_26
REMARK   11  A    between atoms: C_27  and  O_28
REMARK                            x       y       z     vdW  Elec       q    Type
REMARK                         _______ _______ _______ _____ _____    ______ ____
ROOT
ATOM      1  C   UNL     1      -7.371  -1.190 130.140  0.00  0.00    +0.000 A 
ATOM      2  C   UNL     1      -7.583  -0.703 128.790  0.00  0.00    +0.000 A 
ATOM      3  C   UNL     1      -7.935  -1.584 127.745  0.00  0.00    +0.000 A 
ATOM      4  C   UNL     1      -7.910  -2.975 128.104  0.00  0.00    +0.000 A 
ATOM      5  C   UNL     1      -7.730  -3.461 129.402  0.00  0.00    +0.000 A 
ATOM      6  C   UNL     1      -7.523  -2.562 130.435  0.00  0.00    +0.000 A 
ATOM      7 CL   UNL     1      -7.406  -3.237 132.032  0.00  0.00    +0.000 Cl
ENDROOT
BRANCH   3   8
ATOM      8  C   UNL     1      -8.577  -1.299 126.327  0.00  0.00    +0.000 C 
ATOM      9  O   UNL     1      -8.414   0.132 126.260  0.00  0.00    +0.000 OA
ATOM     10  C   UNL     1      -9.420   0.544 125.319  0.00  0.00    +0.000 C 
ATOM     11  C   UNL     1      -9.090  -0.413 124.185  0.00  0.00    +0.000 C 
ATOM     12  O   UNL     1      -9.775  -1.263 125.467  0.00  0.00    +0.000 OA
ATOM     13  C   UNL     1      -8.939  -1.767 123.414  0.00  0.00    +0.000 C 
ATOM     14  C   UNL     1      -8.714  -2.961 124.343  0.00  0.00    +0.000 C 
ATOM     15  C   UNL     1      -7.763  -2.361 125.441  0.00  0.00    +0.000 C 
BRANCH  13  16
ATOM     16  O   UNL     1      -7.810  -1.745 122.511  0.00  0.00    +0.000 OA
ATOM     17  H   UNL     1      -7.954  -1.018 121.869  0.00  0.00    +0.000 HD
ENDBRANCH  13  16
BRANCH  14  18
ATOM     18  O   UNL     1      -9.970  -3.477 124.834  0.00  0.00    +0.000 OA
ATOM     19  H   UNL     1      -9.800  -4.423 125.055  0.00  0.00    +0.000 HD
ENDBRANCH  14  18
BRANCH  15  20
ATOM     20  O   UNL     1      -6.593  -1.779 124.819  0.00  0.00    +0.000 OA
ATOM     21  H   UNL     1      -5.810  -2.116 125.297  0.00  0.00    +0.000 HD
ENDBRANCH  15  20
BRANCH  11  22
ATOM     22  C   UNL     1      -9.436   0.619 123.038  0.00  0.00    +0.000 C 
BRANCH  22  23
ATOM     23  O   UNL     1     -10.727   0.469 122.412  0.00  0.00    +0.000 OA
ATOM     24  H   UNL     1     -10.840  -0.432 122.050  0.00  0.00    +0.000 HD
ENDBRANCH  22  23
ENDBRANCH  11  22
ENDBRANCH   3   8
BRANCH   1  25
ATOM     25  C   UNL     1      -6.948  -0.245 131.273  0.00  0.00    +0.000 C 
BRANCH  25  29
ATOM     26  C   UNL     1      -9.298   3.402 131.681  0.00  0.00    +0.000 A 
ATOM     27  C   UNL     1      -7.969   3.452 131.296  0.00  0.00    +0.000 A 
ATOM     28  C   UNL     1      -7.211   2.285 131.125  0.00  0.00    +0.000 A 
ATOM     29  C   UNL     1      -7.781   1.026 131.422  0.00  0.00    +0.000 A 
ATOM     30  C   UNL     1      -9.117   1.006 131.824  0.00  0.00    +0.000 A 
ATOM     31  C   UNL     1      -9.893   2.153 131.909  0.00  0.00    +0.000 A 
BRANCH  26  32
ATOM     32  O   UNL     1      -9.987   4.577 131.756  0.00  0.00    +0.000 OA
BRANCH  32  34
ATOM     33  C   UNL     1      -9.591   6.743 130.839  0.00  0.00    +0.000 C 
ATOM     34  C   UNL     1     -10.039   5.328 130.539  0.00  0.00    +0.000 C 
ENDBRANCH  32  34
ENDBRANCH  26  32
ENDBRANCH  25  29
ENDBRANCH   1  25
TORSDOF 10
ENDMDL
MODEL 8
REMARK VINA RESULT:      -7.5      3.851      7.184
REMARK  Name = Ertugliflozin
REMARK  11 active torsions:
REMARK  status: ('A' for Active; 'I' for Inactive)
REMARK    1  A    between atoms: C_1  and  C_2
REMARK    2  A    between atoms: C_2  and  O_3
REMARK    3  A    between atoms: O_3  and  C_4
REMARK    4  A    between atoms: C_7  and  C_8
REMARK    5  A    between atoms: C_8  and  C_9
REMARK    6  A    between atoms: C_11  and  C_16
REMARK    7  A    between atoms: C_19  and  C_20
REMARK    8  A    between atoms: C_20  and  O_21
REMARK    9  A    between atoms: C_23  and  O_24
REMARK   10  A    between atoms: C_25  and  O_26
REMARK   11  A    between atoms: C_27  and  O_28
REMARK                            x       y       z     vdW  Elec       q    Type
REMARK                         _______ _______ _______ _____ _____    ______ ____
ROOT
ATOM      1  C   UNL     1      -7.162   5.281 130.455  0.00  0.00    +0.000 A 
ATOM      2  C   UNL     1      -7.799   4.770 129.255  0.00  0.00    +0.000 A 
ATOM      3  C   UNL     1      -7.038   4.195 128.216  0.00  0.00    +0.000 A 
ATOM      4  C   UNL     1      -5.616   4.303 128.388  0.00  0.00    +0.000 A 
ATOM      5  C   UNL     1      -4.986   4.771 129.543  0.00  0.00    +0.000 A 
ATOM      6  C   UNL     1      -5.761   5.203 130.607  0.00  0.00    +0.000 A 
ATOM      7 CL   UNL     1      -4.906   5.677 132.042  0.00  0.00    +0.000 Cl
ENDROOT
BRANCH   3   8
ATOM      8  C   UNL     1      -7.469   3.250 127.022  0.00  0.00    +0.000 C 
ATOM      9  O   UNL     1      -8.668   2.672 127.579  0.00  0.00    +0.000 OA
ATOM     10  C   UNL     1      -8.820   1.441 126.852  0.00  0.00    +0.000 C 
ATOM     11  C   UNL     1      -8.705   1.987 125.437  0.00  0.00    +0.000 C 
ATOM     12  O   UNL     1      -7.204   2.055 126.197  0.00  0.00    +0.000 OA
ATOM     13  C   UNL     1      -8.056   2.641 124.172  0.00  0.00    +0.000 C 
ATOM     14  C   UNL     1      -6.907   3.589 124.515  0.00  0.00    +0.000 C 
ATOM     15  C   UNL     1      -7.433   4.303 125.813  0.00  0.00    +0.000 C 
BRANCH  13  16
ATOM     16  O   UNL     1      -9.013   3.427 123.426  0.00  0.00    +0.000 OA
ATOM     17  H   UNL     1      -9.910   3.106 123.658  0.00  0.00    +0.000 HD
ENDBRANCH  13  16
BRANCH  14  18
ATOM     18  O   UNL     1      -5.668   2.864 124.673  0.00  0.00    +0.000 OA
ATOM     19  H   UNL     1      -5.038   3.502 125.084  0.00  0.00    +0.000 HD
ENDBRANCH  14  18
BRANCH  15  20
ATOM     20  O   UNL     1      -8.726   4.900 125.560  0.00  0.00    +0.000 OA
ATOM     21  H   UNL     1      -8.596   5.866 125.500  0.00  0.00    +0.000 HD
ENDBRANCH  15  20
BRANCH  11  22
ATOM     22  C   UNL     1      -9.754   0.975 124.822  0.00  0.00    +0.000 C 
BRANCH  22  23
ATOM     23  O   UNL     1     -11.002   1.542 124.374  0.00  0.00    +0.000 OA
ATOM     24  H   UNL     1     -11.072   2.484 124.628  0.00  0.00    +0.000 HD
ENDBRANCH  22  23
ENDBRANCH  11  22
ENDBRANCH   3   8
BRANCH   1  25
ATOM     25  C   UNL     1      -7.979   5.946 131.571  0.00  0.00    +0.000 C 
BRANCH  25  29
ATOM     26  C   UNL     1     -11.937   7.347 130.402  0.00  0.00    +0.000 A 
ATOM     27  C   UNL     1     -10.813   7.699 129.673  0.00  0.00    +0.000 A 
ATOM     28  C   UNL     1      -9.539   7.226 130.016  0.00  0.00    +0.000 A 
ATOM     29  C   UNL     1      -9.371   6.433 131.174  0.00  0.00    +0.000 A 
ATOM     30  C   UNL     1     -10.517   6.108 131.899  0.00  0.00    +0.000 A 
ATOM     31  C   UNL     1     -11.789   6.502 131.511  0.00  0.00    +0.000 A 
BRANCH  26  32
ATOM     32  O   UNL     1     -13.149   7.791 129.963  0.00  0.00    +0.000 OA
BRANCH  32  34
ATOM     33  C   UNL     1     -13.885   7.333 127.740  0.00  0.00    +0.000 C 
ATOM     34  C   UNL     1     -13.156   8.317 128.632  0.00  0.00    +0.000 C 
ENDBRANCH  32  34
ENDBRANCH  26  32
ENDBRANCH  25  29
ENDBRANCH   1  25
TORSDOF 10
ENDMDL
MODEL 9
REMARK VINA RESULT:      -7.4      6.206      7.404
REMARK  Name = Ertugliflozin
REMARK  11 active torsions:
REMARK  status: ('A' for Active; 'I' for Inactive)
REMARK    1  A    between atoms: C_1  and  C_2
REMARK    2  A    between atoms: C_2  and  O_3
REMARK    3  A    between atoms: O_3  and  C_4
REMARK    4  A    between atoms: C_7  and  C_8
REMARK    5  A    between atoms: C_8  and  C_9
REMARK    6  A    between atoms: C_11  and  C_16
REMARK    7  A    between atoms: C_19  and  C_20
REMARK    8  A    between atoms: C_20  and  O_21
REMARK    9  A    between atoms: C_23  and  O_24
REMARK   10  A    between atoms: C_25  and  O_26
REMARK   11  A    between atoms: C_27  and  O_28
REMARK                            x       y       z     vdW  Elec       q    Type
REMARK                         _______ _______ _______ _____ _____    ______ ____
ROOT
ATOM      1  C   UNL     1      -7.751  -1.792 130.510  0.00  0.00    +0.000 A 
ATOM      2  C   UNL     1      -8.347  -0.470 130.471  0.00  0.00    +0.000 A 
ATOM      3  C   UNL     1      -7.912   0.551 131.343  0.00  0.00    +0.000 A 
ATOM      4  C   UNL     1      -6.968   0.123 132.338  0.00  0.00    +0.000 A 
ATOM      5  C   UNL     1      -6.368  -1.138 132.378  0.00  0.00    +0.000 A 
ATOM      6  C   UNL     1      -6.712  -2.079 131.422  0.00  0.00    +0.000 A 
ATOM      7 CL   UNL     1      -5.852  -3.587 131.479  0.00  0.00    +0.000 Cl
ENDROOT
BRANCH   3   8
ATOM      8  C   UNL     1      -8.098   2.120 131.269  0.00  0.00    +0.000 C 
ATOM      9  O   UNL     1      -8.835   2.229 130.034  0.00  0.00    +0.000 OA
ATOM     10  C   UNL     1      -8.576   3.575 129.601  0.00  0.00    +0.000 C 
ATOM     11  C   UNL     1      -8.934   4.309 130.884  0.00  0.00    +0.000 C 
ATOM     12  O   UNL     1      -7.497   3.457 131.098  0.00  0.00    +0.000 OA
ATOM     13  C   UNL     1      -8.836   4.780 132.373  0.00  0.00    +0.000 C 
ATOM     14  C   UNL     1      -8.150   3.757 133.278  0.00  0.00    +0.000 C 
ATOM     15  C   UNL     1      -8.705   2.393 132.729  0.00  0.00    +0.000 C 
BRANCH  13  16
ATOM     16  O   UNL     1     -10.142   5.010 132.948  0.00  0.00    +0.000 OA
ATOM     17  H   UNL     1     -10.038   5.655 133.680  0.00  0.00    +0.000 HD
ENDBRANCH  13  16
BRANCH  14  18
ATOM     18  O   UNL     1      -6.714   3.900 133.225  0.00  0.00    +0.000 OA
ATOM     19  H   UNL     1      -6.428   3.414 132.417  0.00  0.00    +0.000 HD
ENDBRANCH  14  18
BRANCH  15  20
ATOM     20  O   UNL     1     -10.152   2.410 132.731  0.00  0.00    +0.000 OA
ATOM     21  H   UNL     1     -10.442   2.488 133.660  0.00  0.00    +0.000 HD
ENDBRANCH  15  20
BRANCH  11  22
ATOM     22  C   UNL     1      -9.548   5.566 130.147  0.00  0.00    +0.000 C 
BRANCH  22  23
ATOM     23  O   UNL     1      -9.319   5.649 128.725  0.00  0.00    +0.000 OA
ATOM     24  H   UNL     1      -9.694   4.873 128.263  0.00  0.00    +0.000 HD
ENDBRANCH  22  23
ENDBRANCH  11  22
ENDBRANCH   3   8
BRANCH   1  25
ATOM     25  C   UNL     1      -8.247  -2.919 129.594  0.00  0.00    +0.000 C 
BRANCH  25  29
ATOM     26  C   UNL     1      -6.958  -2.719 125.436  0.00  0.00    +0.000 A 
ATOM     27  C   UNL     1      -8.173  -3.289 125.778  0.00  0.00    +0.000 A 
ATOM     28  C   UNL     1      -8.617  -3.327 127.107  0.00  0.00    +0.000 A 
ATOM     29  C   UNL     1      -7.783  -2.845 128.141  0.00  0.00    +0.000 A 
ATOM     30  C   UNL     1      -6.558  -2.291 127.770  0.00  0.00    +0.000 A 
ATOM     31  C   UNL     1      -6.156  -2.173 126.448  0.00  0.00    +0.000 A 
BRANCH  26  32
ATOM     32  O   UNL     1      -6.630  -2.656 124.113  0.00  0.00    +0.000 OA
BRANCH  32  34
ATOM     33  C   UNL     1      -4.697  -3.967 123.630  0.00  0.00    +0.000 C 
ATOM     34  C   UNL     1      -5.228  -2.565 123.840  0.00  0.00    +0.000 C 
ENDBRANCH  32  34
ENDBRANCH  26  32
ENDBRANCH  25  29
ENDBRANCH   1  25
TORSDOF 10
ENDMDL
