MODEL 1
REMARK VINA RESULT:      -5.7      0.000      0.000
REMARK  Name = Erythrityl tetranitrate
REMARK  11 active torsions:
REMARK  status: ('A' for Active; 'I' for Inactive)
REMARK    1  A    between atoms: N_2  and  O_4
REMARK    2  A    between atoms: O_4  and  C_5
REMARK    3  A    between atoms: C_5  and  C_6
REMARK    4  A    between atoms: C_6  and  O_7
REMARK    5  A    between atoms: C_6  and  C_11
REMARK    6  A    between atoms: O_7  and  N_8
REMARK    7  A    between atoms: C_11  and  C_12
REMARK    8  A    between atoms: C_11  and  O_17
REMARK    9  A    between atoms: C_12  and  O_13
REMARK   10  A    between atoms: O_13  and  N_14
REMARK   11  A    between atoms: O_17  and  N_18
REMARK                            x       y       z     vdW  Elec       q    Type
REMARK                         _______ _______ _______ _____ _____    ______ ____
ROOT
ATOM      1  C   UNL     1      -6.259   3.775 124.325  0.00  0.00    +0.000 C 
ENDROOT
BRANCH   1   2
ATOM      2  C   UNL     1      -6.128   3.751 122.769  0.00  0.00    +0.000 C 
BRANCH   2   3
ATOM      3  O   UNL     1      -5.208   4.766 122.454  0.00  0.00    +0.000 OA
BRANCH   3   5
ATOM      4  O   UNL     1      -5.226   4.100 120.382  0.00  0.00    +0.000 OA
ATOM      5  N   UNL     1      -4.895   5.022 121.124  0.00  0.00    +0.000 N 
ATOM      6  O   UNL     1      -4.380   6.110 120.874  0.00  0.00    +0.000 OA
ENDBRANCH   3   5
ENDBRANCH   2   3
ENDBRANCH   1   2
BRANCH   1   7
ATOM      7  O   UNL     1      -5.096   3.501 125.139  0.00  0.00    +0.000 OA
BRANCH   7   8
ATOM      8  N   UNL     1      -4.682   4.464 126.107  0.00  0.00    +0.000 N 
ATOM      9  O   UNL     1      -3.706   4.212 126.785  0.00  0.00    +0.000 OA
ATOM     10  O   UNL     1      -5.394   5.471 126.109  0.00  0.00    +0.000 OA
ENDBRANCH   7   8
ENDBRANCH   1   7
BRANCH   1  11
ATOM     11  C   UNL     1      -7.556   3.039 124.833  0.00  0.00    +0.000 C 
BRANCH  11  12
ATOM     12  C   UNL     1      -8.026   1.971 123.791  0.00  0.00    +0.000 C 
BRANCH  12  13
ATOM     13  O   UNL     1      -9.368   2.256 123.385  0.00  0.00    +0.000 OA
BRANCH  13  14
ATOM     14  N   UNL     1     -10.260   1.161 123.583  0.00  0.00    +0.000 N 
ATOM     15  O   UNL     1     -10.733   0.633 122.577  0.00  0.00    +0.000 OA
ATOM     16  O   UNL     1     -10.409   0.880 124.771  0.00  0.00    +0.000 OA
ENDBRANCH  13  14
ENDBRANCH  12  13
ENDBRANCH  11  12
BRANCH  11  17
ATOM     17  O   UNL     1      -8.653   3.954 124.965  0.00  0.00    +0.000 OA
BRANCH  17  18
ATOM     18  N   UNL     1      -8.687   4.744 126.149  0.00  0.00    +0.000 N 
ATOM     19  O   UNL     1      -9.157   5.872 126.059  0.00  0.00    +0.000 OA
ATOM     20  O   UNL     1      -8.213   4.149 127.113  0.00  0.00    +0.000 OA
ENDBRANCH  17  18
ENDBRANCH  11  17
ENDBRANCH   1  11
TORSDOF 11
ENDMDL
MODEL 2
REMARK VINA RESULT:      -5.6      1.937      6.011
REMARK  Name = Erythrityl tetranitrate
REMARK  11 active torsions:
REMARK  status: ('A' for Active; 'I' for Inactive)
REMARK    1  A    between atoms: N_2  and  O_4
REMARK    2  A    between atoms: O_4  and  C_5
REMARK    3  A    between atoms: C_5  and  C_6
REMARK    4  A    between atoms: C_6  and  O_7
REMARK    5  A    between atoms: C_6  and  C_11
REMARK    6  A    between atoms: O_7  and  N_8
REMARK    7  A    between atoms: C_11  and  C_12
REMARK    8  A    between atoms: C_11  and  O_17
REMARK    9  A    between atoms: C_12  and  O_13
REMARK   10  A    between atoms: O_13  and  N_14
REMARK   11  A    between atoms: O_17  and  N_18
REMARK                            x       y       z     vdW  Elec       q    Type
REMARK                         _______ _______ _______ _____ _____    ______ ____
ROOT
ATOM      1  C   UNL     1      -7.912   1.057 123.753  0.00  0.00    +0.000 C 
ENDROOT
BRANCH   1   2
ATOM      2  C   UNL     1      -7.057  -0.203 123.408  0.00  0.00    +0.000 C 
BRANCH   2   3
ATOM      3  O   UNL     1      -7.524  -1.219 124.259  0.00  0.00    +0.000 OA
BRANCH   3   5
ATOM      4  O   UNL     1      -8.599  -2.383 122.765  0.00  0.00    +0.000 OA
ATOM      5  N   UNL     1      -8.662  -1.940 123.910  0.00  0.00    +0.000 N 
ATOM      6  O   UNL     1      -9.528  -2.061 124.773  0.00  0.00    +0.000 OA
ENDBRANCH   3   5
ENDBRANCH   2   3
ENDBRANCH   1   2
BRANCH   1   7
ATOM      7  O   UNL     1      -9.030   1.409 122.905  0.00  0.00    +0.000 OA
BRANCH   7   8
ATOM      8  N   UNL     1     -10.333   0.933 123.240  0.00  0.00    +0.000 N 
ATOM      9  O   UNL     1     -10.936   0.283 122.409  0.00  0.00    +0.000 OA
ATOM     10  O   UNL     1     -10.674   1.248 124.382  0.00  0.00    +0.000 OA
ENDBRANCH   7   8
ENDBRANCH   1   7
BRANCH   1  11
ATOM     11  C   UNL     1      -7.027   2.297 124.154  0.00  0.00    +0.000 C 
BRANCH  11  12
ATOM     12  C   UNL     1      -7.483   2.873 125.535  0.00  0.00    +0.000 C 
BRANCH  12  13
ATOM     13  O   UNL     1      -8.559   3.797 125.338  0.00  0.00    +0.000 OA
BRANCH  13  14
ATOM     14  N   UNL     1      -8.280   5.101 125.844  0.00  0.00    +0.000 N 
ATOM     15  O   UNL     1      -9.242   5.835 126.064  0.00  0.00    +0.000 OA
ATOM     16  O   UNL     1      -7.078   5.295 126.018  0.00  0.00    +0.000 OA
ENDBRANCH  13  14
ENDBRANCH  12  13
ENDBRANCH  11  12
BRANCH  11  17
ATOM     17  O   UNL     1      -7.190   3.372 123.218  0.00  0.00    +0.000 OA
BRANCH  17  18
ATOM     18  N   UNL     1      -6.016   3.821 122.550  0.00  0.00    +0.000 N 
ATOM     19  O   UNL     1      -5.729   3.276 121.490  0.00  0.00    +0.000 OA
ATOM     20  O   UNL     1      -5.445   4.714 123.170  0.00  0.00    +0.000 OA
ENDBRANCH  17  18
ENDBRANCH  11  17
ENDBRANCH   1  11
TORSDOF 11
ENDMDL
MODEL 3
REMARK VINA RESULT:      -5.4      1.952      4.396
REMARK  Name = Erythrityl tetranitrate
REMARK  11 active torsions:
REMARK  status: ('A' for Active; 'I' for Inactive)
REMARK    1  A    between atoms: N_2  and  O_4
REMARK    2  A    between atoms: O_4  and  C_5
REMARK    3  A    between atoms: C_5  and  C_6
REMARK    4  A    between atoms: C_6  and  O_7
REMARK    5  A    between atoms: C_6  and  C_11
REMARK    6  A    between atoms: O_7  and  N_8
REMARK    7  A    between atoms: C_11  and  C_12
REMARK    8  A    between atoms: C_11  and  O_17
REMARK    9  A    between atoms: C_12  and  O_13
REMARK   10  A    between atoms: O_13  and  N_14
REMARK   11  A    between atoms: O_17  and  N_18
REMARK                            x       y       z     vdW  Elec       q    Type
REMARK                         _______ _______ _______ _____ _____    ______ ____
ROOT
ATOM      1  C   UNL     1      -6.842   2.403 123.881  0.00  0.00    +0.000 C 
ENDROOT
BRANCH   1   2
ATOM      2  C   UNL     1      -6.608   2.986 125.310  0.00  0.00    +0.000 C 
BRANCH   2   3
ATOM      3  O   UNL     1      -7.787   3.678 125.632  0.00  0.00    +0.000 OA
BRANCH   3   5
ATOM      4  O   UNL     1      -8.880   5.531 125.965  0.00  0.00    +0.000 OA
ATOM      5  N   UNL     1      -7.784   5.069 125.653  0.00  0.00    +0.000 N 
ATOM      6  O   UNL     1      -6.720   5.627 125.399  0.00  0.00    +0.000 OA
ENDBRANCH   3   5
ENDBRANCH   2   3
ENDBRANCH   1   2
BRANCH   1   7
ATOM      7  O   UNL     1      -7.016   3.307 122.766  0.00  0.00    +0.000 OA
BRANCH   7   8
ATOM      8  N   UNL     1      -5.878   3.683 121.991  0.00  0.00    +0.000 N 
ATOM      9  O   UNL     1      -5.596   3.008 121.021  0.00  0.00    +0.000 OA
ATOM     10  O   UNL     1      -5.323   4.696 122.424  0.00  0.00    +0.000 OA
ENDBRANCH   7   8
ENDBRANCH   1   7
BRANCH   1  11
ATOM     11  C   UNL     1      -7.873   1.212 123.875  0.00  0.00    +0.000 C 
BRANCH  11  12
ATOM     12  C   UNL     1      -7.177  -0.114 123.421  0.00  0.00    +0.000 C 
BRANCH  12  13
ATOM     13  O   UNL     1      -7.601  -1.190 124.265  0.00  0.00    +0.000 OA
BRANCH  13  14
ATOM     14  N   UNL     1      -8.606  -2.009 123.670  0.00  0.00    +0.000 N 
ATOM     15  O   UNL     1      -9.551  -2.346 124.383  0.00  0.00    +0.000 OA
ATOM     16  O   UNL     1      -8.384  -2.244 122.484  0.00  0.00    +0.000 OA
ENDBRANCH  13  14
ENDBRANCH  12  13
ENDBRANCH  11  12
BRANCH  11  17
ATOM     17  O   UNL     1      -8.921   1.439 122.922  0.00  0.00    +0.000 OA
BRANCH  17  18
ATOM     18  N   UNL     1     -10.216   0.963 123.271  0.00  0.00    +0.000 N 
ATOM     19  O   UNL     1     -10.621   1.210 124.401  0.00  0.00    +0.000 OA
ATOM     20  O   UNL     1     -10.744   0.347 122.349  0.00  0.00    +0.000 OA
ENDBRANCH  17  18
ENDBRANCH  11  17
ENDBRANCH   1  11
TORSDOF 11
ENDMDL
MODEL 4
REMARK VINA RESULT:      -5.4      2.874      5.445
REMARK  Name = Erythrityl tetranitrate
REMARK  11 active torsions:
REMARK  status: ('A' for Active; 'I' for Inactive)
REMARK    1  A    between atoms: N_2  and  O_4
REMARK    2  A    between atoms: O_4  and  C_5
REMARK    3  A    between atoms: C_5  and  C_6
REMARK    4  A    between atoms: C_6  and  O_7
REMARK    5  A    between atoms: C_6  and  C_11
REMARK    6  A    between atoms: O_7  and  N_8
REMARK    7  A    between atoms: C_11  and  C_12
REMARK    8  A    between atoms: C_11  and  O_17
REMARK    9  A    between atoms: C_12  and  O_13
REMARK   10  A    between atoms: O_13  and  N_14
REMARK   11  A    between atoms: O_17  and  N_18
REMARK                            x       y       z     vdW  Elec       q    Type
REMARK                         _______ _______ _______ _____ _____    ______ ____
ROOT
ATOM      1  C   UNL     1      -8.132   2.125 123.774  0.00  0.00    +0.000 C 
ENDROOT
BRANCH   1   2
ATOM      2  C   UNL     1      -8.171   2.767 125.196  0.00  0.00    +0.000 C 
BRANCH   2   3
ATOM      3  O   UNL     1      -8.798   4.013 125.029  0.00  0.00    +0.000 OA
BRANCH   3   5
ATOM      4  O   UNL     1      -7.122   5.168 125.803  0.00  0.00    +0.000 OA
ATOM      5  N   UNL     1      -8.349   5.112 125.755  0.00  0.00    +0.000 N 
ATOM      6  O   UNL     1      -9.207   5.868 126.204  0.00  0.00    +0.000 OA
ENDBRANCH   3   5
ENDBRANCH   2   3
ENDBRANCH   1   2
BRANCH   1   7
ATOM      7  O   UNL     1      -8.918   2.709 122.710  0.00  0.00    +0.000 OA
BRANCH   7   8
ATOM      8  N   UNL     1      -8.252   3.384 121.644  0.00  0.00    +0.000 N 
ATOM      9  O   UNL     1      -7.047   3.523 121.717  0.00  0.00    +0.000 OA
ATOM     10  O   UNL     1      -9.024   3.733 120.748  0.00  0.00    +0.000 OA
ENDBRANCH   7   8
ENDBRANCH   1   7
BRANCH   1  11
ATOM     11  C   UNL     1      -8.225   0.553 123.817  0.00  0.00    +0.000 C 
BRANCH  11  12
ATOM     12  C   UNL     1      -8.294   0.047 125.296  0.00  0.00    +0.000 C 
BRANCH  12  13
ATOM     13  O   UNL     1      -9.449  -0.781 125.465  0.00  0.00    +0.000 OA
BRANCH  13  14
ATOM     14  N   UNL     1      -9.131  -2.116 125.856  0.00  0.00    +0.000 N 
ATOM     15  O   UNL     1      -8.031  -2.302 126.375  0.00  0.00    +0.000 OA
ATOM     16  O   UNL     1     -10.045  -2.907 125.632  0.00  0.00    +0.000 OA
ENDBRANCH  13  14
ENDBRANCH  12  13
ENDBRANCH  11  12
BRANCH  11  17
ATOM     17  O   UNL     1      -7.048  -0.051 123.260  0.00  0.00    +0.000 OA
BRANCH  17  18
ATOM     18  N   UNL     1      -7.088  -1.459 123.056  0.00  0.00    +0.000 N 
ATOM     19  O   UNL     1      -6.143  -2.116 123.477  0.00  0.00    +0.000 OA
ATOM     20  O   UNL     1      -8.102  -1.809 122.457  0.00  0.00    +0.000 OA
ENDBRANCH  17  18
ENDBRANCH  11  17
ENDBRANCH   1  11
TORSDOF 11
ENDMDL
MODEL 5
REMARK VINA RESULT:      -5.4      1.722      5.613
REMARK  Name = Erythrityl tetranitrate
REMARK  11 active torsions:
REMARK  status: ('A' for Active; 'I' for Inactive)
REMARK    1  A    between atoms: N_2  and  O_4
REMARK    2  A    between atoms: O_4  and  C_5
REMARK    3  A    between atoms: C_5  and  C_6
REMARK    4  A    between atoms: C_6  and  O_7
REMARK    5  A    between atoms: C_6  and  C_11
REMARK    6  A    between atoms: O_7  and  N_8
REMARK    7  A    between atoms: C_11  and  C_12
REMARK    8  A    between atoms: C_11  and  O_17
REMARK    9  A    between atoms: C_12  and  O_13
REMARK   10  A    between atoms: O_13  and  N_14
REMARK   11  A    between atoms: O_17  and  N_18
REMARK                            x       y       z     vdW  Elec       q    Type
REMARK                         _______ _______ _______ _____ _____    ______ ____
ROOT
ATOM      1  C   UNL     1      -8.064   2.749 124.941  0.00  0.00    +0.000 C 
ENDROOT
BRANCH   1   2
ATOM      2  C   UNL     1      -7.999   1.613 126.010  0.00  0.00    +0.000 C 
BRANCH   2   3
ATOM      3  O   UNL     1      -8.818   2.043 127.066  0.00  0.00    +0.000 OA
BRANCH   3   5
ATOM      4  O   UNL     1      -8.926   3.369 128.789  0.00  0.00    +0.000 OA
ATOM      5  N   UNL     1      -8.238   2.511 128.241  0.00  0.00    +0.000 N 
ATOM      6  O   UNL     1      -7.174   1.997 128.577  0.00  0.00    +0.000 OA
ENDBRANCH   3   5
ENDBRANCH   2   3
ENDBRANCH   1   2
BRANCH   1   7
ATOM      7  O   UNL     1      -8.900   3.903 125.183  0.00  0.00    +0.000 OA
BRANCH   7   8
ATOM      8  N   UNL     1      -8.331   5.057 125.799  0.00  0.00    +0.000 N 
ATOM      9  O   UNL     1      -7.121   5.117 125.899  0.00  0.00    +0.000 OA
ATOM     10  O   UNL     1      -9.183   5.879 126.146  0.00  0.00    +0.000 OA
ENDBRANCH   7   8
ENDBRANCH   1   7
BRANCH   1  11
ATOM     11  C   UNL     1      -8.191   2.192 123.473  0.00  0.00    +0.000 C 
BRANCH  11  12
ATOM     12  C   UNL     1      -7.710   3.260 122.436  0.00  0.00    +0.000 C 
BRANCH  12  13
ATOM     13  O   UNL     1      -6.329   3.041 122.129  0.00  0.00    +0.000 OA
BRANCH  13  14
ATOM     14  N   UNL     1      -5.520   4.200 122.321  0.00  0.00    +0.000 N 
ATOM     15  O   UNL     1      -5.142   4.437 123.468  0.00  0.00    +0.000 OA
ATOM     16  O   UNL     1      -5.290   4.798 121.272  0.00  0.00    +0.000 OA
ENDBRANCH  13  14
ENDBRANCH  12  13
ENDBRANCH  11  12
BRANCH  11  17
ATOM     17  O   UNL     1      -9.561   1.923 123.139  0.00  0.00    +0.000 OA
BRANCH  17  18
ATOM     18  N   UNL     1      -9.905   0.563 122.898  0.00  0.00    +0.000 N 
ATOM     19  O   UNL     1     -11.065   0.323 122.586  0.00  0.00    +0.000 OA
ATOM     20  O   UNL     1      -8.947  -0.189 123.055  0.00  0.00    +0.000 OA
ENDBRANCH  17  18
ENDBRANCH  11  17
ENDBRANCH   1  11
TORSDOF 11
ENDMDL
MODEL 6
REMARK VINA RESULT:      -5.4      2.294      5.782
REMARK  Name = Erythrityl tetranitrate
REMARK  11 active torsions:
REMARK  status: ('A' for Active; 'I' for Inactive)
REMARK    1  A    between atoms: N_2  and  O_4
REMARK    2  A    between atoms: O_4  and  C_5
REMARK    3  A    between atoms: C_5  and  C_6
REMARK    4  A    between atoms: C_6  and  O_7
REMARK    5  A    between atoms: C_6  and  C_11
REMARK    6  A    between atoms: O_7  and  N_8
REMARK    7  A    between atoms: C_11  and  C_12
REMARK    8  A    between atoms: C_11  and  O_17
REMARK    9  A    between atoms: C_12  and  O_13
REMARK   10  A    between atoms: O_13  and  N_14
REMARK   11  A    between atoms: O_17  and  N_18
REMARK                            x       y       z     vdW  Elec       q    Type
REMARK                         _______ _______ _______ _____ _____    ______ ____
ROOT
ATOM      1  C   UNL     1      -8.833   1.368 124.491  0.00  0.00    +0.000 C 
ENDROOT
BRANCH   1   2
ATOM      2  C   UNL     1      -8.246   0.939 125.872  0.00  0.00    +0.000 C 
BRANCH   2   3
ATOM      3  O   UNL     1      -9.144   1.435 126.833  0.00  0.00    +0.000 OA
BRANCH   3   5
ATOM      4  O   UNL     1      -8.977   2.866 128.464  0.00  0.00    +0.000 OA
ATOM      5  N   UNL     1      -8.689   1.723 128.115  0.00  0.00    +0.000 N 
ATOM      6  O   UNL     1      -8.115   0.819 128.717  0.00  0.00    +0.000 OA
ENDBRANCH   3   5
ENDBRANCH   2   3
ENDBRANCH   1   2
BRANCH   1   7
ATOM      7  O   UNL     1      -8.664   0.499 123.347  0.00  0.00    +0.000 OA
BRANCH   7   8
ATOM      8  N   UNL     1      -9.777  -0.265 122.883  0.00  0.00    +0.000 N 
ATOM      9  O   UNL     1      -9.720  -1.475 122.975  0.00  0.00    +0.000 OA
ATOM     10  O   UNL     1     -10.689   0.442 122.449  0.00  0.00    +0.000 OA
ENDBRANCH   7   8
ENDBRANCH   1   7
BRANCH   1  11
ATOM     11  C   UNL     1      -8.556   2.883 124.160  0.00  0.00    +0.000 C 
BRANCH  11  12
ATOM     12  C   UNL     1      -7.962   3.031 122.720  0.00  0.00    +0.000 C 
BRANCH  12  13
ATOM     13  O   UNL     1      -9.002   3.396 121.807  0.00  0.00    +0.000 OA
BRANCH  13  14
ATOM     14  N   UNL     1      -8.511   3.836 120.543  0.00  0.00    +0.000 N 
ATOM     15  O   UNL     1      -9.342   4.036 119.657  0.00  0.00    +0.000 OA
ATOM     16  O   UNL     1      -7.291   3.982 120.532  0.00  0.00    +0.000 OA
ENDBRANCH  13  14
ENDBRANCH  12  13
ENDBRANCH  11  12
BRANCH  11  17
ATOM     17  O   UNL     1      -7.566   3.432 125.042  0.00  0.00    +0.000 OA
BRANCH  17  18
ATOM     18  N   UNL     1      -7.786   4.762 125.499  0.00  0.00    +0.000 N 
ATOM     19  O   UNL     1      -8.923   5.056 125.849  0.00  0.00    +0.000 OA
ATOM     20  O   UNL     1      -6.760   5.437 125.463  0.00  0.00    +0.000 OA
ENDBRANCH  17  18
ENDBRANCH  11  17
ENDBRANCH   1  11
TORSDOF 11
ENDMDL
MODEL 7
REMARK VINA RESULT:      -5.4      6.226      8.963
REMARK  Name = Erythrityl tetranitrate
REMARK  11 active torsions:
REMARK  status: ('A' for Active; 'I' for Inactive)
REMARK    1  A    between atoms: N_2  and  O_4
REMARK    2  A    between atoms: O_4  and  C_5
REMARK    3  A    between atoms: C_5  and  C_6
REMARK    4  A    between atoms: C_6  and  O_7
REMARK    5  A    between atoms: C_6  and  C_11
REMARK    6  A    between atoms: O_7  and  N_8
REMARK    7  A    between atoms: C_11  and  C_12
REMARK    8  A    between atoms: C_11  and  O_17
REMARK    9  A    between atoms: C_12  and  O_13
REMARK   10  A    between atoms: O_13  and  N_14
REMARK   11  A    between atoms: O_17  and  N_18
REMARK                            x       y       z     vdW  Elec       q    Type
REMARK                         _______ _______ _______ _____ _____    ______ ____
ROOT
ATOM      1  C   UNL     1     -10.772   6.431 129.003  0.00  0.00    +0.000 C 
ENDROOT
BRANCH   1   2
ATOM      2  C   UNL     1     -12.171   5.894 129.441  0.00  0.00    +0.000 C 
BRANCH   2   3
ATOM      3  O   UNL     1     -13.003   7.025 129.509  0.00  0.00    +0.000 OA
BRANCH   3   5
ATOM      4  O   UNL     1     -12.782   9.041 130.299  0.00  0.00    +0.000 OA
ATOM      5  N   UNL     1     -12.936   7.863 130.616  0.00  0.00    +0.000 N 
ATOM      6  O   UNL     1     -13.070   7.339 131.719  0.00  0.00    +0.000 OA
ENDBRANCH   3   5
ENDBRANCH   2   3
ENDBRANCH   1   2
BRANCH   1   7
ATOM      7  O   UNL     1     -10.448   6.503 127.596  0.00  0.00    +0.000 OA
BRANCH   7   8
ATOM      8  N   UNL     1     -10.733   7.702 126.877  0.00  0.00    +0.000 N 
ATOM      9  O   UNL     1     -10.971   7.615 125.688  0.00  0.00    +0.000 OA
ATOM     10  O   UNL     1     -10.714   8.703 127.597  0.00  0.00    +0.000 OA
ENDBRANCH   7   8
ENDBRANCH   1   7
BRANCH   1  11
ATOM     11  C   UNL     1      -9.599   5.846 129.877  0.00  0.00    +0.000 C 
BRANCH  11  12
ATOM     12  C   UNL     1      -9.124   6.896 130.935  0.00  0.00    +0.000 C 
BRANCH  12  13
ATOM     13  O   UNL     1      -9.607   6.524 132.230  0.00  0.00    +0.000 OA
BRANCH  13  14
ATOM     14  N   UNL     1      -8.761   5.588 132.897  0.00  0.00    +0.000 N 
ATOM     15  O   UNL     1      -7.573   5.886 133.009  0.00  0.00    +0.000 OA
ATOM     16  O   UNL     1      -9.372   4.599 133.297  0.00  0.00    +0.000 OA
ENDBRANCH  13  14
ENDBRANCH  12  13
ENDBRANCH  11  12
BRANCH  11  17
ATOM     17  O   UNL     1      -8.445   5.564 129.072  0.00  0.00    +0.000 OA
BRANCH  17  18
ATOM     18  N   UNL     1      -7.433   4.759 129.665  0.00  0.00    +0.000 N 
ATOM     19  O   UNL     1      -7.788   3.719 130.208  0.00  0.00    +0.000 OA
ATOM     20  O   UNL     1      -6.317   5.257 129.543  0.00  0.00    +0.000 OA
ENDBRANCH  17  18
ENDBRANCH  11  17
ENDBRANCH   1  11
TORSDOF 11
ENDMDL
MODEL 8
REMARK VINA RESULT:      -5.4      1.975      5.852
REMARK  Name = Erythrityl tetranitrate
REMARK  11 active torsions:
REMARK  status: ('A' for Active; 'I' for Inactive)
REMARK    1  A    between atoms: N_2  and  O_4
REMARK    2  A    between atoms: O_4  and  C_5
REMARK    3  A    between atoms: C_5  and  C_6
REMARK    4  A    between atoms: C_6  and  O_7
REMARK    5  A    between atoms: C_6  and  C_11
REMARK    6  A    between atoms: O_7  and  N_8
REMARK    7  A    between atoms: C_11  and  C_12
REMARK    8  A    between atoms: C_11  and  O_17
REMARK    9  A    between atoms: C_12  and  O_13
REMARK   10  A    between atoms: O_13  and  N_14
REMARK   11  A    between atoms: O_17  and  N_18
REMARK                            x       y       z     vdW  Elec       q    Type
REMARK                         _______ _______ _______ _____ _____    ______ ____
ROOT
ATOM      1  C   UNL     1      -8.035   1.854 123.331  0.00  0.00    +0.000 C 
ENDROOT
BRANCH   1   2
ATOM      2  C   UNL     1      -6.972   0.722 123.169  0.00  0.00    +0.000 C 
BRANCH   2   3
ATOM      3  O   UNL     1      -7.438  -0.346 123.953  0.00  0.00    +0.000 OA
BRANCH   3   5
ATOM      4  O   UNL     1      -6.672  -2.366 123.681  0.00  0.00    +0.000 OA
ATOM      5  N   UNL     1      -7.591  -1.605 123.382  0.00  0.00    +0.000 N 
ATOM      6  O   UNL     1      -8.601  -1.791 122.709  0.00  0.00    +0.000 OA
ENDBRANCH   3   5
ENDBRANCH   2   3
ENDBRANCH   1   2
BRANCH   1   7
ATOM      7  O   UNL     1      -9.299   1.745 122.637  0.00  0.00    +0.000 OA
BRANCH   7   8
ATOM      8  N   UNL     1     -10.374   1.041 123.257  0.00  0.00    +0.000 N 
ATOM      9  O   UNL     1     -11.113   0.384 122.550  0.00  0.00    +0.000 OA
ATOM     10  O   UNL     1     -10.395   1.189 124.481  0.00  0.00    +0.000 OA
ENDBRANCH   7   8
ENDBRANCH   1   7
BRANCH   1  11
ATOM     11  C   UNL     1      -7.403   3.294 123.239  0.00  0.00    +0.000 C 
BRANCH  11  12
ATOM     12  C   UNL     1      -6.225   3.312 122.209  0.00  0.00    +0.000 C 
BRANCH  12  13
ATOM     13  O   UNL     1      -5.534   4.563 122.294  0.00  0.00    +0.000 OA
BRANCH  13  14
ATOM     14  N   UNL     1      -5.065   5.033 121.031  0.00  0.00    +0.000 N 
ATOM     15  O   UNL     1      -4.351   6.035 121.035  0.00  0.00    +0.000 OA
ATOM     16  O   UNL     1      -5.437   4.328 120.095  0.00  0.00    +0.000 OA
ENDBRANCH  13  14
ENDBRANCH  12  13
ENDBRANCH  11  12
BRANCH  11  17
ATOM     17  O   UNL     1      -6.823   3.686 124.491  0.00  0.00    +0.000 OA
BRANCH  17  18
ATOM     18  N   UNL     1      -7.473   4.737 125.196  0.00  0.00    +0.000 N 
ATOM     19  O   UNL     1      -8.667   4.599 125.438  0.00  0.00    +0.000 OA
ATOM     20  O   UNL     1      -6.707   5.662 125.454  0.00  0.00    +0.000 OA
ENDBRANCH  17  18
ENDBRANCH  11  17
ENDBRANCH   1  11
TORSDOF 11
ENDMDL
MODEL 9
REMARK VINA RESULT:      -5.3      6.181      8.498
REMARK  Name = Erythrityl tetranitrate
REMARK  11 active torsions:
REMARK  status: ('A' for Active; 'I' for Inactive)
REMARK    1  A    between atoms: N_2  and  O_4
REMARK    2  A    between atoms: O_4  and  C_5
REMARK    3  A    between atoms: C_5  and  C_6
REMARK    4  A    between atoms: C_6  and  O_7
REMARK    5  A    between atoms: C_6  and  C_11
REMARK    6  A    between atoms: O_7  and  N_8
REMARK    7  A    between atoms: C_11  and  C_12
REMARK    8  A    between atoms: C_11  and  O_17
REMARK    9  A    between atoms: C_12  and  O_13
REMARK   10  A    between atoms: O_13  and  N_14
REMARK   11  A    between atoms: O_17  and  N_18
REMARK                            x       y       z     vdW  Elec       q    Type
REMARK                         _______ _______ _______ _____ _____    ______ ____
ROOT
ATOM      1  C   UNL     1     -10.958   7.103 129.356  0.00  0.00    +0.000 C 
ENDROOT
BRANCH   1   2
ATOM      2  C   UNL     1     -12.082   7.591 130.323  0.00  0.00    +0.000 C 
BRANCH   2   3
ATOM      3  O   UNL     1     -13.112   8.066 129.494  0.00  0.00    +0.000 OA
BRANCH   3   5
ATOM      4  O   UNL     1     -13.708   9.721 128.213  0.00  0.00    +0.000 OA
ATOM      5  N   UNL     1     -13.289   9.436 129.332  0.00  0.00    +0.000 N 
ATOM      6  O   UNL     1     -13.045  10.146 130.304  0.00  0.00    +0.000 OA
ENDBRANCH   3   5
ENDBRANCH   2   3
ENDBRANCH   1   2
BRANCH   1   7
ATOM      7  O   UNL     1     -11.316   6.613 128.043  0.00  0.00    +0.000 OA
BRANCH   7   8
ATOM      8  N   UNL     1     -10.662   7.154 126.896  0.00  0.00    +0.000 N 
ATOM      9  O   UNL     1      -9.981   6.408 126.220  0.00  0.00    +0.000 OA
ATOM     10  O   UNL     1     -10.902   8.352 126.734  0.00  0.00    +0.000 OA
ENDBRANCH   7   8
ENDBRANCH   1   7
BRANCH   1  11
ATOM     11  C   UNL     1      -9.886   6.203 130.078  0.00  0.00    +0.000 C 
BRANCH  11  12
ATOM     12  C   UNL     1     -10.540   4.878 130.596  0.00  0.00    +0.000 C 
BRANCH  12  13
ATOM     13  O   UNL     1     -10.012   3.767 129.864  0.00  0.00    +0.000 OA
BRANCH  13  14
ATOM     14  N   UNL     1      -8.875   3.173 130.487  0.00  0.00    +0.000 N 
ATOM     15  O   UNL     1      -7.971   2.782 129.749  0.00  0.00    +0.000 OA
ATOM     16  O   UNL     1      -8.957   3.162 131.714  0.00  0.00    +0.000 OA
ENDBRANCH  13  14
ENDBRANCH  12  13
ENDBRANCH  11  12
BRANCH  11  17
ATOM     17  O   UNL     1      -9.366   6.855 131.246  0.00  0.00    +0.000 OA
BRANCH  17  18
ATOM     18  N   UNL     1      -7.962   6.762 131.457  0.00  0.00    +0.000 N 
ATOM     19  O   UNL     1      -7.579   6.109 132.422  0.00  0.00    +0.000 OA
ATOM     20  O   UNL     1      -7.326   7.383 130.610  0.00  0.00    +0.000 OA
ENDBRANCH  17  18
ENDBRANCH  11  17
ENDBRANCH   1  11
TORSDOF 11
ENDMDL
