MODEL 1
REMARK VINA RESULT:      -7.0      0.000      0.000
REMARK  Name = Escitalopram
REMARK  8 active torsions:
REMARK  status: ('A' for Active; 'I' for Inactive)
REMARK    1  A    between atoms: C_1  and  N_2
REMARK    2  A    between atoms: N_2  and  C_3
REMARK    3  A    between atoms: N_2  and  C_4
REMARK    4  A    between atoms: C_4  and  C_5
REMARK    5  A    between atoms: C_5  and  C_6
REMARK    6  A    between atoms: C_6  and  C_7
REMARK    7  A    between atoms: C_7  and  C_18
REMARK    8  A    between atoms: C_14  and  C_16
REMARK                            x       y       z     vdW  Elec       q    Type
REMARK                         _______ _______ _______ _____ _____    ______ ____
ROOT
ATOM      1  C   UNL     1      -8.552  -0.569 125.642  0.00  0.00    +0.000 C 
ATOM      2  O   UNL     1      -9.643  -1.560 125.708  0.00  0.00    +0.000 OA
ATOM      3  C   UNL     1      -9.203  -2.885 125.321  0.00  0.00    +0.000 C 
ATOM      4  C   UNL     1      -7.793  -2.728 124.920  0.00  0.00    +0.000 A 
ATOM      5  C   UNL     1      -7.390  -1.411 125.112  0.00  0.00    +0.000 A 
ATOM      6  C   UNL     1      -6.083  -1.081 124.784  0.00  0.00    +0.000 A 
ATOM      7  C   UNL     1      -5.216  -2.073 124.275  0.00  0.00    +0.000 A 
ATOM      8  C   UNL     1      -5.643  -3.402 124.102  0.00  0.00    +0.000 A 
ATOM      9  C   UNL     1      -6.955  -3.732 124.432  0.00  0.00    +0.000 A 
ENDROOT
BRANCH   1  10
ATOM     10  C   UNL     1      -8.338   0.042 127.057  0.00  0.00    +0.000 A 
ATOM     11  C   UNL     1      -7.749  -0.717 128.072  0.00  0.00    +0.000 A 
ATOM     12  C   UNL     1      -7.674  -0.218 129.379  0.00  0.00    +0.000 A 
ATOM     13  C   UNL     1      -8.034   1.096 129.658  0.00  0.00    +0.000 A 
ATOM     14  F   UNL     1      -7.974   1.560 130.911  0.00  0.00    +0.000 F 
ATOM     15  C   UNL     1      -8.473   1.928 128.657  0.00  0.00    +0.000 A 
ATOM     16  C   UNL     1      -8.719   1.374 127.407  0.00  0.00    +0.000 A 
ENDBRANCH   1  10
BRANCH   8  17
ATOM     17  C   UNL     1      -4.760  -4.414 123.602  0.00  0.00    +0.000 C 
ATOM     18  N   UNL     1      -4.020  -5.219 123.190  0.00  0.00    +0.000 NA
ENDBRANCH   8  17
BRANCH   1  19
ATOM     19  C   UNL     1      -9.049   0.596 124.736  0.00  0.00    +0.000 C 
BRANCH  19  20
ATOM     20  C   UNL     1      -8.400   0.712 123.394  0.00  0.00    +0.000 C 
BRANCH  20  21
ATOM     21  C   UNL     1      -8.145   2.174 123.029  0.00  0.00    +0.000 C 
BRANCH  21  23
ATOM     22  C   UNL     1      -6.341   3.285 121.921  0.00  0.00    +0.000 C 
ATOM     23  N   UNL     1      -6.700   2.423 123.044  0.00  0.00    +0.000 NA
ATOM     24  C   UNL     1      -6.275   3.053 124.299  0.00  0.00    +0.000 C 
ENDBRANCH  21  23
ENDBRANCH  20  21
ENDBRANCH  19  20
ENDBRANCH   1  19
TORSDOF 6
ENDMDL
MODEL 2
REMARK VINA RESULT:      -6.9      4.135      7.494
REMARK  Name = Escitalopram
REMARK  8 active torsions:
REMARK  status: ('A' for Active; 'I' for Inactive)
REMARK    1  A    between atoms: C_1  and  N_2
REMARK    2  A    between atoms: N_2  and  C_3
REMARK    3  A    between atoms: N_2  and  C_4
REMARK    4  A    between atoms: C_4  and  C_5
REMARK    5  A    between atoms: C_5  and  C_6
REMARK    6  A    between atoms: C_6  and  C_7
REMARK    7  A    between atoms: C_7  and  C_18
REMARK    8  A    between atoms: C_14  and  C_16
REMARK                            x       y       z     vdW  Elec       q    Type
REMARK                         _______ _______ _______ _____ _____    ______ ____
ROOT
ATOM      1  C   UNL     1      -7.357   2.500 123.595  0.00  0.00    +0.000 C 
ATOM      2  O   UNL     1      -8.722   2.643 124.139  0.00  0.00    +0.000 OA
ATOM      3  C   UNL     1      -8.739   3.384 125.384  0.00  0.00    +0.000 C 
ATOM      4  C   UNL     1      -7.326   3.666 125.693  0.00  0.00    +0.000 A 
ATOM      5  C   UNL     1      -6.514   3.185 124.672  0.00  0.00    +0.000 A 
ATOM      6  C   UNL     1      -5.144   3.365 124.797  0.00  0.00    +0.000 A 
ATOM      7  C   UNL     1      -4.623   4.019 125.937  0.00  0.00    +0.000 A 
ATOM      8  C   UNL     1      -5.467   4.509 126.950  0.00  0.00    +0.000 A 
ATOM      9  C   UNL     1      -6.842   4.329 126.823  0.00  0.00    +0.000 A 
ENDROOT
BRANCH   1  10
ATOM     10  C   UNL     1      -7.303   3.162 122.188  0.00  0.00    +0.000 A 
ATOM     11  C   UNL     1      -8.484   3.485 121.514  0.00  0.00    +0.000 A 
ATOM     12  C   UNL     1      -8.442   3.960 120.197  0.00  0.00    +0.000 A 
ATOM     13  C   UNL     1      -7.229   4.271 119.593  0.00  0.00    +0.000 A 
ATOM     14  F   UNL     1      -7.197   4.709 118.330  0.00  0.00    +0.000 F 
ATOM     15  C   UNL     1      -6.048   4.115 120.277  0.00  0.00    +0.000 A 
ATOM     16  C   UNL     1      -6.086   3.473 121.509  0.00  0.00    +0.000 A 
ENDBRANCH   1  10
BRANCH   8  17
ATOM     17  C   UNL     1      -4.943   5.188 128.098  0.00  0.00    +0.000 C 
ATOM     18  N   UNL     1      -4.527   5.767 129.024  0.00  0.00    +0.000 NA
ENDBRANCH   8  17
BRANCH   1  19
ATOM     19  C   UNL     1      -7.114   0.979 123.370  0.00  0.00    +0.000 C 
BRANCH  19  20
ATOM     20  C   UNL     1      -7.975   0.048 124.162  0.00  0.00    +0.000 C 
BRANCH  20  21
ATOM     21  C   UNL     1      -8.620  -1.006 123.263  0.00  0.00    +0.000 C 
BRANCH  21  23
ATOM     22  C   UNL     1      -9.442  -3.237 123.513  0.00  0.00    +0.000 C 
ATOM     23  N   UNL     1      -9.446  -1.894 124.087  0.00  0.00    +0.000 NA
ATOM     24  C   UNL     1      -8.960  -1.952 125.471  0.00  0.00    +0.000 C 
ENDBRANCH  21  23
ENDBRANCH  20  21
ENDBRANCH  19  20
ENDBRANCH   1  19
TORSDOF 6
ENDMDL
MODEL 3
REMARK VINA RESULT:      -6.9      4.333      7.527
REMARK  Name = Escitalopram
REMARK  8 active torsions:
REMARK  status: ('A' for Active; 'I' for Inactive)
REMARK    1  A    between atoms: C_1  and  N_2
REMARK    2  A    between atoms: N_2  and  C_3
REMARK    3  A    between atoms: N_2  and  C_4
REMARK    4  A    between atoms: C_4  and  C_5
REMARK    5  A    between atoms: C_5  and  C_6
REMARK    6  A    between atoms: C_6  and  C_7
REMARK    7  A    between atoms: C_7  and  C_18
REMARK    8  A    between atoms: C_14  and  C_16
REMARK                            x       y       z     vdW  Elec       q    Type
REMARK                         _______ _______ _______ _____ _____    ______ ____
ROOT
ATOM      1  C   UNL     1      -6.758  -2.240 128.213  0.00  0.00    +0.000 C 
ATOM      2  O   UNL     1      -6.986  -3.381 129.121  0.00  0.00    +0.000 OA
ATOM      3  C   UNL     1      -7.689  -2.989 130.326  0.00  0.00    +0.000 C 
ATOM      4  C   UNL     1      -7.856  -1.528 130.225  0.00  0.00    +0.000 A 
ATOM      5  C   UNL     1      -7.346  -1.076 129.013  0.00  0.00    +0.000 A 
ATOM      6  C   UNL     1      -7.420   0.283 128.748  0.00  0.00    +0.000 A 
ATOM      7  C   UNL     1      -8.000   1.153 129.700  0.00  0.00    +0.000 A 
ATOM      8  C   UNL     1      -8.521   0.669 130.913  0.00  0.00    +0.000 A 
ATOM      9  C   UNL     1      -8.447  -0.696 131.178  0.00  0.00    +0.000 A 
ENDROOT
BRANCH   1  10
ATOM     10  C   UNL     1      -7.456  -2.531 126.853  0.00  0.00    +0.000 A 
ATOM     11  C   UNL     1      -8.832  -2.772 126.803  0.00  0.00    +0.000 A 
ATOM     12  C   UNL     1      -9.440  -3.162 125.603  0.00  0.00    +0.000 A 
ATOM     13  C   UNL     1      -8.724  -3.159 124.411  0.00  0.00    +0.000 A 
ATOM     14  F   UNL     1      -9.308  -3.548 123.272  0.00  0.00    +0.000 F 
ATOM     15  C   UNL     1      -7.405  -2.778 124.389  0.00  0.00    +0.000 A 
ATOM     16  C   UNL     1      -6.764  -2.572 125.605  0.00  0.00    +0.000 A 
ENDBRANCH   1  10
BRANCH   8  17
ATOM     17  C   UNL     1      -9.125   1.547 131.871  0.00  0.00    +0.000 C 
ATOM     18  N   UNL     1      -9.592   2.266 132.666  0.00  0.00    +0.000 NA
ENDBRANCH   8  17
BRANCH   1  19
ATOM     19  C   UNL     1      -5.231  -2.191 127.917  0.00  0.00    +0.000 C 
BRANCH  19  20
ATOM     20  C   UNL     1      -4.345  -2.886 128.901  0.00  0.00    +0.000 C 
BRANCH  20  21
ATOM     21  C   UNL     1      -3.770  -1.900 129.918  0.00  0.00    +0.000 C 
BRANCH  21  23
ATOM     22  C   UNL     1      -3.221  -1.762 132.240  0.00  0.00    +0.000 C 
ATOM     23  N   UNL     1      -3.278  -2.647 131.080  0.00  0.00    +0.000 NA
ATOM     24  C   UNL     1      -4.136  -3.798 131.384  0.00  0.00    +0.000 C 
ENDBRANCH  21  23
ENDBRANCH  20  21
ENDBRANCH  19  20
ENDBRANCH   1  19
TORSDOF 6
ENDMDL
MODEL 4
REMARK VINA RESULT:      -6.8      6.816      8.818
REMARK  Name = Escitalopram
REMARK  8 active torsions:
REMARK  status: ('A' for Active; 'I' for Inactive)
REMARK    1  A    between atoms: C_1  and  N_2
REMARK    2  A    between atoms: N_2  and  C_3
REMARK    3  A    between atoms: N_2  and  C_4
REMARK    4  A    between atoms: C_4  and  C_5
REMARK    5  A    between atoms: C_5  and  C_6
REMARK    6  A    between atoms: C_6  and  C_7
REMARK    7  A    between atoms: C_7  and  C_18
REMARK    8  A    between atoms: C_14  and  C_16
REMARK                            x       y       z     vdW  Elec       q    Type
REMARK                         _______ _______ _______ _____ _____    ______ ____
ROOT
ATOM      1  C   UNL     1      -8.721   5.866 130.373  0.00  0.00    +0.000 C 
ATOM      2  O   UNL     1      -8.158   5.564 129.043  0.00  0.00    +0.000 OA
ATOM      3  C   UNL     1      -8.046   4.138 128.809  0.00  0.00    +0.000 C 
ATOM      4  C   UNL     1      -8.484   3.498 130.062  0.00  0.00    +0.000 A 
ATOM      5  C   UNL     1      -8.894   4.469 130.970  0.00  0.00    +0.000 A 
ATOM      6  C   UNL     1      -9.341   4.043 132.212  0.00  0.00    +0.000 A 
ATOM      7  C   UNL     1      -9.366   2.662 132.513  0.00  0.00    +0.000 A 
ATOM      8  C   UNL     1      -8.959   1.699 131.573  0.00  0.00    +0.000 A 
ATOM      9  C   UNL     1      -8.511   2.128 130.326  0.00  0.00    +0.000 A 
ENDROOT
BRANCH   1  10
ATOM     10  C   UNL     1     -10.036   6.678 130.191  0.00  0.00    +0.000 A 
ATOM     11  C   UNL     1     -10.206   7.508 129.079  0.00  0.00    +0.000 A 
ATOM     12  C   UNL     1     -11.329   8.338 128.978  0.00  0.00    +0.000 A 
ATOM     13  C   UNL     1     -12.371   8.236 129.893  0.00  0.00    +0.000 A 
ATOM     14  F   UNL     1     -13.433   9.044 129.799  0.00  0.00    +0.000 F 
ATOM     15  C   UNL     1     -12.315   7.321 130.916  0.00  0.00    +0.000 A 
ATOM     16  C   UNL     1     -11.123   6.636 131.116  0.00  0.00    +0.000 A 
ENDBRANCH   1  10
BRANCH   8  17
ATOM     17  C   UNL     1      -9.001   0.298 131.870  0.00  0.00    +0.000 C 
ATOM     18  N   UNL     1      -9.023  -0.850 132.087  0.00  0.00    +0.000 NA
ENDBRANCH   8  17
BRANCH   1  19
ATOM     19  C   UNL     1      -7.717   6.819 131.086  0.00  0.00    +0.000 C 
BRANCH  19  20
ATOM     20  C   UNL     1      -6.506   6.175 131.682  0.00  0.00    +0.000 C 
BRANCH  20  21
ATOM     21  C   UNL     1      -5.238   6.952 131.329  0.00  0.00    +0.000 C 
BRANCH  21  23
ATOM     22  C   UNL     1      -4.004   7.845 129.486  0.00  0.00    +0.000 C 
ATOM     23  N   UNL     1      -5.021   6.875 129.880  0.00  0.00    +0.000 NA
ATOM     24  C   UNL     1      -4.601   5.530 129.469  0.00  0.00    +0.000 C 
ENDBRANCH  21  23
ENDBRANCH  20  21
ENDBRANCH  19  20
ENDBRANCH   1  19
TORSDOF 6
ENDMDL
MODEL 5
REMARK VINA RESULT:      -6.7      2.762      5.174
REMARK  Name = Escitalopram
REMARK  8 active torsions:
REMARK  status: ('A' for Active; 'I' for Inactive)
REMARK    1  A    between atoms: C_1  and  N_2
REMARK    2  A    between atoms: N_2  and  C_3
REMARK    3  A    between atoms: N_2  and  C_4
REMARK    4  A    between atoms: C_4  and  C_5
REMARK    5  A    between atoms: C_5  and  C_6
REMARK    6  A    between atoms: C_6  and  C_7
REMARK    7  A    between atoms: C_7  and  C_18
REMARK    8  A    between atoms: C_14  and  C_16
REMARK                            x       y       z     vdW  Elec       q    Type
REMARK                         _______ _______ _______ _____ _____    ______ ____
ROOT
ATOM      1  C   UNL     1      -7.025  -2.189 126.650  0.00  0.00    +0.000 C 
ATOM      2  O   UNL     1      -5.717  -2.131 125.968  0.00  0.00    +0.000 OA
ATOM      3  C   UNL     1      -5.422  -0.805 125.466  0.00  0.00    +0.000 C 
ATOM      4  C   UNL     1      -6.614   0.006 125.770  0.00  0.00    +0.000 A 
ATOM      5  C   UNL     1      -7.542  -0.762 126.466  0.00  0.00    +0.000 A 
ATOM      6  C   UNL     1      -8.734  -0.155 126.836  0.00  0.00    +0.000 A 
ATOM      7  C   UNL     1      -8.966   1.199 126.502  0.00  0.00    +0.000 A 
ATOM      8  C   UNL     1      -8.005   1.957 125.809  0.00  0.00    +0.000 A 
ATOM      9  C   UNL     1      -6.810   1.348 125.439  0.00  0.00    +0.000 A 
ENDROOT
BRANCH   1  10
ATOM     10  C   UNL     1      -6.805  -2.631 128.126  0.00  0.00    +0.000 A 
ATOM     11  C   UNL     1      -5.511  -2.765 128.637  0.00  0.00    +0.000 A 
ATOM     12  C   UNL     1      -5.306  -3.287 129.921  0.00  0.00    +0.000 A 
ATOM     13  C   UNL     1      -6.382  -3.527 130.769  0.00  0.00    +0.000 A 
ATOM     14  F   UNL     1      -6.179  -4.040 131.987  0.00  0.00    +0.000 F 
ATOM     15  C   UNL     1      -7.666  -3.262 130.361  0.00  0.00    +0.000 A 
ATOM     16  C   UNL     1      -7.872  -2.922 129.029  0.00  0.00    +0.000 A 
ENDBRANCH   1  10
BRANCH   8  17
ATOM     17  C   UNL     1      -8.231   3.335 125.484  0.00  0.00    +0.000 C 
ATOM     18  N   UNL     1      -8.438   4.450 125.203  0.00  0.00    +0.000 NA
ENDBRANCH   8  17
BRANCH   1  19
ATOM     19  C   UNL     1      -7.842  -3.328 125.973  0.00  0.00    +0.000 C 
BRANCH  19  20
ATOM     20  C   UNL     1      -7.688  -3.459 124.490  0.00  0.00    +0.000 C 
BRANCH  20  21
ATOM     21  C   UNL     1      -8.956  -3.014 123.763  0.00  0.00    +0.000 C 
BRANCH  21  23
ATOM     22  C   UNL     1      -9.147  -0.721 123.111  0.00  0.00    +0.000 C 
ATOM     23  N   UNL     1      -8.596  -2.023 122.743  0.00  0.00    +0.000 NA
ATOM     24  C   UNL     1      -7.141  -1.911 122.590  0.00  0.00    +0.000 C 
ENDBRANCH  21  23
ENDBRANCH  20  21
ENDBRANCH  19  20
ENDBRANCH   1  19
TORSDOF 6
ENDMDL
MODEL 6
REMARK VINA RESULT:      -6.7      3.450      5.454
REMARK  Name = Escitalopram
REMARK  8 active torsions:
REMARK  status: ('A' for Active; 'I' for Inactive)
REMARK    1  A    between atoms: C_1  and  N_2
REMARK    2  A    between atoms: N_2  and  C_3
REMARK    3  A    between atoms: N_2  and  C_4
REMARK    4  A    between atoms: C_4  and  C_5
REMARK    5  A    between atoms: C_5  and  C_6
REMARK    6  A    between atoms: C_6  and  C_7
REMARK    7  A    between atoms: C_7  and  C_18
REMARK    8  A    between atoms: C_14  and  C_16
REMARK                            x       y       z     vdW  Elec       q    Type
REMARK                         _______ _______ _______ _____ _____    ______ ____
ROOT
ATOM      1  C   UNL     1      -8.697   0.539 125.201  0.00  0.00    +0.000 C 
ATOM      2  O   UNL     1     -10.141   0.797 125.038  0.00  0.00    +0.000 OA
ATOM      3  C   UNL     1     -10.422   1.623 123.882  0.00  0.00    +0.000 C 
ATOM      4  C   UNL     1      -9.106   1.972 123.319  0.00  0.00    +0.000 A 
ATOM      5  C   UNL     1      -8.099   1.347 124.048  0.00  0.00    +0.000 A 
ATOM      6  C   UNL     1      -6.787   1.566 123.655  0.00  0.00    +0.000 A 
ATOM      7  C   UNL     1      -6.516   2.401 122.548  0.00  0.00    +0.000 A 
ATOM      8  C   UNL     1      -7.552   3.011 121.818  0.00  0.00    +0.000 A 
ATOM      9  C   UNL     1      -8.869   2.790 122.213  0.00  0.00    +0.000 A 
ENDROOT
BRANCH   1  10
ATOM     10  C   UNL     1      -8.448  -0.996 125.136  0.00  0.00    +0.000 A 
ATOM     11  C   UNL     1      -7.992  -1.587 123.955  0.00  0.00    +0.000 A 
ATOM     12  C   UNL     1      -7.891  -2.981 123.852  0.00  0.00    +0.000 A 
ATOM     13  C   UNL     1      -8.087  -3.790 124.965  0.00  0.00    +0.000 A 
ATOM     14  F   UNL     1      -8.004  -5.120 124.855  0.00  0.00    +0.000 F 
ATOM     15  C   UNL     1      -8.385  -3.237 126.187  0.00  0.00    +0.000 A 
ATOM     16  C   UNL     1      -8.664  -1.877 126.239  0.00  0.00    +0.000 A 
ENDBRANCH   1  10
BRANCH   8  17
ATOM     17  C   UNL     1      -7.280   3.844 120.685  0.00  0.00    +0.000 C 
ATOM     18  N   UNL     1      -7.032   4.511 119.758  0.00  0.00    +0.000 NA
ENDBRANCH   8  17
BRANCH   1  19
ATOM     19  C   UNL     1      -8.315   0.981 126.644  0.00  0.00    +0.000 C 
BRANCH  19  20
ATOM     20  C   UNL     1      -8.367   2.450 126.920  0.00  0.00    +0.000 C 
BRANCH  20  21
ATOM     21  C   UNL     1      -6.973   3.008 127.201  0.00  0.00    +0.000 C 
BRANCH  21  23
ATOM     22  C   UNL     1      -5.638   4.460 125.849  0.00  0.00    +0.000 C 
ATOM     23  N   UNL     1      -6.873   4.351 126.622  0.00  0.00    +0.000 NA
ATOM     24  C   UNL     1      -8.019   4.653 125.757  0.00  0.00    +0.000 C 
ENDBRANCH  21  23
ENDBRANCH  20  21
ENDBRANCH  19  20
ENDBRANCH   1  19
TORSDOF 6
ENDMDL
MODEL 7
REMARK VINA RESULT:      -6.7      3.481      5.479
REMARK  Name = Escitalopram
REMARK  8 active torsions:
REMARK  status: ('A' for Active; 'I' for Inactive)
REMARK    1  A    between atoms: C_1  and  N_2
REMARK    2  A    between atoms: N_2  and  C_3
REMARK    3  A    between atoms: N_2  and  C_4
REMARK    4  A    between atoms: C_4  and  C_5
REMARK    5  A    between atoms: C_5  and  C_6
REMARK    6  A    between atoms: C_6  and  C_7
REMARK    7  A    between atoms: C_7  and  C_18
REMARK    8  A    between atoms: C_14  and  C_16
REMARK                            x       y       z     vdW  Elec       q    Type
REMARK                         _______ _______ _______ _____ _____    ______ ____
ROOT
ATOM      1  C   UNL     1      -7.849  -0.862 126.440  0.00  0.00    +0.000 C 
ATOM      2  O   UNL     1      -7.230   0.433 126.783  0.00  0.00    +0.000 OA
ATOM      3  C   UNL     1      -6.811   0.488 128.169  0.00  0.00    +0.000 C 
ATOM      4  C   UNL     1      -7.241  -0.792 128.761  0.00  0.00    +0.000 A 
ATOM      5  C   UNL     1      -7.824  -1.592 127.784  0.00  0.00    +0.000 A 
ATOM      6  C   UNL     1      -8.290  -2.841 128.166  0.00  0.00    +0.000 A 
ATOM      7  C   UNL     1      -8.162  -3.257 129.511  0.00  0.00    +0.000 A 
ATOM      8  C   UNL     1      -7.556  -2.434 130.478  0.00  0.00    +0.000 A 
ATOM      9  C   UNL     1      -7.088  -1.181 130.093  0.00  0.00    +0.000 A 
ENDROOT
BRANCH   1  10
ATOM     10  C   UNL     1      -7.021  -1.532 125.305  0.00  0.00    +0.000 A 
ATOM     11  C   UNL     1      -6.007  -2.442 125.614  0.00  0.00    +0.000 A 
ATOM     12  C   UNL     1      -5.175  -2.947 124.606  0.00  0.00    +0.000 A 
ATOM     13  C   UNL     1      -5.442  -2.681 123.268  0.00  0.00    +0.000 A 
ATOM     14  F   UNL     1      -4.633  -3.154 122.312  0.00  0.00    +0.000 F 
ATOM     15  C   UNL     1      -6.524  -1.916 122.909  0.00  0.00    +0.000 A 
ATOM     16  C   UNL     1      -7.231  -1.271 123.917  0.00  0.00    +0.000 A 
ENDBRANCH   1  10
BRANCH   8  17
ATOM     17  C   UNL     1      -7.410  -2.860 131.838  0.00  0.00    +0.000 C 
ATOM     18  N   UNL     1      -7.274  -3.230 132.938  0.00  0.00    +0.000 NA
ENDBRANCH   8  17
BRANCH   1  19
ATOM     19  C   UNL     1      -9.248  -0.552 125.832  0.00  0.00    +0.000 C 
BRANCH  19  20
ATOM     20  C   UNL     1      -9.639   0.891 125.777  0.00  0.00    +0.000 C 
BRANCH  20  21
ATOM     21  C   UNL     1      -9.811   1.361 124.333  0.00  0.00    +0.000 C 
BRANCH  21  23
ATOM     22  C   UNL     1      -8.807   2.641 122.581  0.00  0.00    +0.000 C 
ATOM     23  N   UNL     1      -8.634   2.145 123.944  0.00  0.00    +0.000 NA
ATOM     24  C   UNL     1      -8.415   3.276 124.852  0.00  0.00    +0.000 C 
ENDBRANCH  21  23
ENDBRANCH  20  21
ENDBRANCH  19  20
ENDBRANCH   1  19
TORSDOF 6
ENDMDL
MODEL 8
REMARK VINA RESULT:      -6.6      6.173      9.189
REMARK  Name = Escitalopram
REMARK  8 active torsions:
REMARK  status: ('A' for Active; 'I' for Inactive)
REMARK    1  A    between atoms: C_1  and  N_2
REMARK    2  A    between atoms: N_2  and  C_3
REMARK    3  A    between atoms: N_2  and  C_4
REMARK    4  A    between atoms: C_4  and  C_5
REMARK    5  A    between atoms: C_5  and  C_6
REMARK    6  A    between atoms: C_6  and  C_7
REMARK    7  A    between atoms: C_7  and  C_18
REMARK    8  A    between atoms: C_14  and  C_16
REMARK                            x       y       z     vdW  Elec       q    Type
REMARK                         _______ _______ _______ _____ _____    ______ ____
ROOT
ATOM      1  C   UNL     1      -9.295   5.884 131.392  0.00  0.00    +0.000 C 
ATOM      2  O   UNL     1      -8.250   6.796 131.896  0.00  0.00    +0.000 OA
ATOM      3  C   UNL     1      -6.960   6.537 131.290  0.00  0.00    +0.000 C 
ATOM      4  C   UNL     1      -7.164   5.367 130.416  0.00  0.00    +0.000 A 
ATOM      5  C   UNL     1      -8.501   4.984 130.443  0.00  0.00    +0.000 A 
ATOM      6  C   UNL     1      -8.875   3.893 129.674  0.00  0.00    +0.000 A 
ATOM      7  C   UNL     1      -7.907   3.214 128.900  0.00  0.00    +0.000 A 
ATOM      8  C   UNL     1      -6.563   3.629 128.879  0.00  0.00    +0.000 A 
ATOM      9  C   UNL     1      -6.188   4.725 129.651  0.00  0.00    +0.000 A 
ENDROOT
BRANCH   1  10
ATOM     10  C   UNL     1     -10.419   6.727 130.722  0.00  0.00    +0.000 A 
ATOM     11  C   UNL     1     -10.164   7.435 129.545  0.00  0.00    +0.000 A 
ATOM     12  C   UNL     1     -11.131   8.297 129.011  0.00  0.00    +0.000 A 
ATOM     13  C   UNL     1     -12.414   8.341 129.546  0.00  0.00    +0.000 A 
ATOM     14  F   UNL     1     -13.327   9.178 129.040  0.00  0.00    +0.000 F 
ATOM     15  C   UNL     1     -12.755   7.543 130.610  0.00  0.00    +0.000 A 
ATOM     16  C   UNL     1     -11.743   6.833 131.246  0.00  0.00    +0.000 A 
ENDBRANCH   1  10
BRANCH   8  17
ATOM     17  C   UNL     1      -5.583   2.953 128.082  0.00  0.00    +0.000 C 
ATOM     18  N   UNL     1      -4.763   2.417 127.444  0.00  0.00    +0.000 NA
ENDBRANCH   8  17
BRANCH   1  19
ATOM     19  C   UNL     1      -9.943   5.203 132.632  0.00  0.00    +0.000 C 
BRANCH  19  20
ATOM     20  C   UNL     1      -9.027   4.397 133.497  0.00  0.00    +0.000 C 
BRANCH  20  21
ATOM     21  C   UNL     1      -9.254   2.899 133.295  0.00  0.00    +0.000 C 
BRANCH  21  23
ATOM     22  C   UNL     1      -7.680   1.469 132.204  0.00  0.00    +0.000 C 
ATOM     23  N   UNL     1      -7.972   2.201 133.433  0.00  0.00    +0.000 NA
ATOM     24  C   UNL     1      -6.877   3.135 133.718  0.00  0.00    +0.000 C 
ENDBRANCH  21  23
ENDBRANCH  20  21
ENDBRANCH  19  20
ENDBRANCH   1  19
TORSDOF 6
ENDMDL
MODEL 9
REMARK VINA RESULT:      -6.5      3.921      5.856
REMARK  Name = Escitalopram
REMARK  8 active torsions:
REMARK  status: ('A' for Active; 'I' for Inactive)
REMARK    1  A    between atoms: C_1  and  N_2
REMARK    2  A    between atoms: N_2  and  C_3
REMARK    3  A    between atoms: N_2  and  C_4
REMARK    4  A    between atoms: C_4  and  C_5
REMARK    5  A    between atoms: C_5  and  C_6
REMARK    6  A    between atoms: C_6  and  C_7
REMARK    7  A    between atoms: C_7  and  C_18
REMARK    8  A    between atoms: C_14  and  C_16
REMARK                            x       y       z     vdW  Elec       q    Type
REMARK                         _______ _______ _______ _____ _____    ______ ____
ROOT
ATOM      1  C   UNL     1      -6.509  -1.701 127.552  0.00  0.00    +0.000 C 
ATOM      2  O   UNL     1      -5.113  -2.077 127.259  0.00  0.00    +0.000 OA
ATOM      3  C   UNL     1      -4.517  -2.845 128.334  0.00  0.00    +0.000 C 
ATOM      4  C   UNL     1      -5.543  -2.904 129.390  0.00  0.00    +0.000 A 
ATOM      5  C   UNL     1      -6.703  -2.270 128.959  0.00  0.00    +0.000 A 
ATOM      6  C   UNL     1      -7.780  -2.230 129.832  0.00  0.00    +0.000 A 
ATOM      7  C   UNL     1      -7.669  -2.823 131.110  0.00  0.00    +0.000 A 
ATOM      8  C   UNL     1      -6.490  -3.470 131.518  0.00  0.00    +0.000 A 
ATOM      9  C   UNL     1      -5.409  -3.511 130.641  0.00  0.00    +0.000 A 
ENDROOT
BRANCH   1  10
ATOM     10  C   UNL     1      -7.435  -2.307 126.457  0.00  0.00    +0.000 A 
ATOM     11  C   UNL     1      -6.970  -2.466 125.149  0.00  0.00    +0.000 A 
ATOM     12  C   UNL     1      -7.838  -2.888 124.134  0.00  0.00    +0.000 A 
ATOM     13  C   UNL     1      -9.129  -3.309 124.434  0.00  0.00    +0.000 A 
ATOM     14  F   UNL     1      -9.957  -3.695 123.457  0.00  0.00    +0.000 F 
ATOM     15  C   UNL     1      -9.577  -3.316 125.733  0.00  0.00    +0.000 A 
ATOM     16  C   UNL     1      -8.778  -2.725 126.703  0.00  0.00    +0.000 A 
ENDBRANCH   1  10
BRANCH   8  17
ATOM     17  C   UNL     1      -6.381  -4.087 132.807  0.00  0.00    +0.000 C 
ATOM     18  N   UNL     1      -6.310  -4.570 133.869  0.00  0.00    +0.000 NA
ENDBRANCH   8  17
BRANCH   1  19
ATOM     19  C   UNL     1      -6.607  -0.155 127.397  0.00  0.00    +0.000 C 
BRANCH  19  20
ATOM     20  C   UNL     1      -7.988   0.417 127.339  0.00  0.00    +0.000 C 
BRANCH  20  21
ATOM     21  C   UNL     1      -7.979   1.819 126.731  0.00  0.00    +0.000 C 
BRANCH  21  23
ATOM     22  C   UNL     1      -8.698   2.681 124.621  0.00  0.00    +0.000 C 
ATOM     23  N   UNL     1      -9.114   1.946 125.812  0.00  0.00    +0.000 NA
ATOM     24  C   UNL     1      -9.638   0.633 125.418  0.00  0.00    +0.000 C 
ENDBRANCH  21  23
ENDBRANCH  20  21
ENDBRANCH  19  20
ENDBRANCH   1  19
TORSDOF 6
ENDMDL
