MODEL 1
REMARK VINA RESULT:      -7.3      0.000      0.000
REMARK  Name = Esculin
REMARK  8 active torsions:
REMARK  status: ('A' for Active; 'I' for Inactive)
REMARK    1  A    between atoms: O_1  and  C_2
REMARK    2  A    between atoms: C_2  and  C_3
REMARK    3  A    between atoms: C_5  and  O_6
REMARK    4  A    between atoms: O_6  and  C_7
REMARK    5  A    between atoms: C_8  and  O_9
REMARK    6  A    between atoms: C_19  and  O_20
REMARK    7  A    between atoms: C_21  and  O_22
REMARK    8  A    between atoms: C_23  and  O_24
REMARK                            x       y       z     vdW  Elec       q    Type
REMARK                         _______ _______ _______ _____ _____    ______ ____
ROOT
ATOM      1  C   UNL     1      -6.627  -1.460 123.908  0.00  0.00    +0.000 C 
ATOM      2  O   UNL     1      -6.820  -0.040 123.820  0.00  0.00    +0.000 OA
ATOM      3  C   UNL     1      -7.322   0.569 125.023  0.00  0.00    +0.000 C 
ATOM      4  C   UNL     1      -8.654  -0.057 125.524  0.00  0.00    +0.000 C 
ATOM      5  C   UNL     1      -8.586  -1.595 125.483  0.00  0.00    +0.000 C 
ATOM      6  C   UNL     1      -7.972  -2.143 124.176  0.00  0.00    +0.000 C 
ENDROOT
BRANCH   4   7
ATOM      7  O   UNL     1      -9.020   0.434 126.822  0.00  0.00    +0.000 OA
ATOM      8  H   UNL     1      -9.903   0.110 127.056  0.00  0.00    +0.000 HD
ENDBRANCH   4   7
BRANCH   5   9
ATOM      9  O   UNL     1      -9.899  -2.143 125.656  0.00  0.00    +0.000 OA
ATOM     10  H   UNL     1     -10.444  -1.868 124.894  0.00  0.00    +0.000 HD
ENDBRANCH   5   9
BRANCH   6  11
ATOM     11  O   UNL     1      -7.804  -3.561 124.243  0.00  0.00    +0.000 OA
ATOM     12  H   UNL     1      -7.174  -3.837 123.554  0.00  0.00    +0.000 HD
ENDBRANCH   6  11
BRANCH   1  13
ATOM     13  C   UNL     1      -5.995  -1.951 122.589  0.00  0.00    +0.000 C 
BRANCH  13  14
ATOM     14  O   UNL     1      -5.119  -3.037 122.896  0.00  0.00    +0.000 OA
ATOM     15  H   UNL     1      -4.226  -2.781 122.604  0.00  0.00    +0.000 HD
ENDBRANCH  13  14
ENDBRANCH   1  13
BRANCH   3  16
ATOM     16  O   UNL     1      -7.434   1.995 124.843  0.00  0.00    +0.000 OA
BRANCH  16  17
ATOM     17  C   UNL     1      -7.498   2.544 123.585  0.00  0.00    +0.000 A 
ATOM     18  C   UNL     1      -8.597   2.562 122.711  0.00  0.00    +0.000 A 
ATOM     19  C   UNL     1      -8.551   3.192 121.486  0.00  0.00    +0.000 A 
ATOM     20  C   UNL     1      -7.376   3.784 121.088  0.00  0.00    +0.000 A 
ATOM     21  O   UNL     1      -7.408   4.356 119.811  0.00  0.00    +0.000 OA
ATOM     22  C   UNL     1      -6.280   4.938 119.280  0.00  0.00    +0.000 A 
ATOM     23  O   UNL     1      -6.272   5.424 118.150  0.00  0.00    +0.000 OA
ATOM     24  C   UNL     1      -5.079   4.958 120.131  0.00  0.00    +0.000 A 
ATOM     25  C   UNL     1      -5.045   4.425 121.360  0.00  0.00    +0.000 A 
ATOM     26  C   UNL     1      -6.241   3.785 121.893  0.00  0.00    +0.000 A 
ATOM     27  C   UNL     1      -6.308   3.169 123.155  0.00  0.00    +0.000 A 
BRANCH  18  28
ATOM     28  O   UNL     1      -9.798   1.955 122.919  0.00  0.00    +0.000 OA
ATOM     29  H   UNL     1      -9.964   2.093 123.867  0.00  0.00    +0.000 HD
ENDBRANCH  18  28
ENDBRANCH  16  17
ENDBRANCH   3  16
TORSDOF 8
ENDMDL
MODEL 2
REMARK VINA RESULT:      -7.2      7.192     10.777
REMARK  Name = Esculin
REMARK  8 active torsions:
REMARK  status: ('A' for Active; 'I' for Inactive)
REMARK    1  A    between atoms: O_1  and  C_2
REMARK    2  A    between atoms: C_2  and  C_3
REMARK    3  A    between atoms: C_5  and  O_6
REMARK    4  A    between atoms: O_6  and  C_7
REMARK    5  A    between atoms: C_8  and  O_9
REMARK    6  A    between atoms: C_19  and  O_20
REMARK    7  A    between atoms: C_21  and  O_22
REMARK    8  A    between atoms: C_23  and  O_24
REMARK                            x       y       z     vdW  Elec       q    Type
REMARK                         _______ _______ _______ _____ _____    ______ ____
ROOT
ATOM      1  C   UNL     1     -11.370   7.004 128.175  0.00  0.00    +0.000 C 
ATOM      2  O   UNL     1     -10.231   6.559 128.924  0.00  0.00    +0.000 OA
ATOM      3  C   UNL     1     -10.551   5.908 130.166  0.00  0.00    +0.000 C 
ATOM      4  C   UNL     1     -11.427   6.777 131.113  0.00  0.00    +0.000 C 
ATOM      5  C   UNL     1     -12.583   7.436 130.337  0.00  0.00    +0.000 C 
ATOM      6  C   UNL     1     -12.143   8.047 128.989  0.00  0.00    +0.000 C 
ENDROOT
BRANCH   4   7
ATOM      7  O   UNL     1     -11.893   6.031 132.246  0.00  0.00    +0.000 OA
ATOM      8  H   UNL     1     -11.387   6.284 133.033  0.00  0.00    +0.000 HD
ENDBRANCH   4   7
BRANCH   5   9
ATOM      9  O   UNL     1     -13.190   8.454 131.144  0.00  0.00    +0.000 OA
ATOM     10  H   UNL     1     -12.656   9.266 131.056  0.00  0.00    +0.000 HD
ENDBRANCH   5   9
BRANCH   6  11
ATOM     11  O   UNL     1     -13.269   8.521 128.247  0.00  0.00    +0.000 OA
ATOM     12  H   UNL     1     -13.716   9.216 128.762  0.00  0.00    +0.000 HD
ENDBRANCH   6  11
BRANCH   1  13
ATOM     13  C   UNL     1     -10.877   7.585 126.833  0.00  0.00    +0.000 C 
BRANCH  13  14
ATOM     14  O   UNL     1     -11.806   7.202 125.817  0.00  0.00    +0.000 OA
ATOM     15  H   UNL     1     -11.311   6.693 125.150  0.00  0.00    +0.000 HD
ENDBRANCH  13  14
ENDBRANCH   1  13
BRANCH   3  16
ATOM     16  O   UNL     1      -9.344   5.460 130.815  0.00  0.00    +0.000 OA
BRANCH  16  17
ATOM     17  C   UNL     1      -9.173   4.138 131.150  0.00  0.00    +0.000 A 
ATOM     18  C   UNL     1      -9.448   3.523 132.382  0.00  0.00    +0.000 A 
ATOM     19  C   UNL     1      -9.279   2.170 132.581  0.00  0.00    +0.000 A 
ATOM     20  C   UNL     1      -8.782   1.405 131.552  0.00  0.00    +0.000 A 
ATOM     21  O   UNL     1      -8.598   0.052 131.860  0.00  0.00    +0.000 OA
ATOM     22  C   UNL     1      -8.064  -0.808 130.929  0.00  0.00    +0.000 A 
ATOM     23  O   UNL     1      -7.865  -1.995 131.182  0.00  0.00    +0.000 OA
ATOM     24  C   UNL     1      -7.741  -0.241 129.609  0.00  0.00    +0.000 A 
ATOM     25  C   UNL     1      -7.927   1.050 129.303  0.00  0.00    +0.000 A 
ATOM     26  C   UNL     1      -8.467   1.952 130.313  0.00  0.00    +0.000 A 
ATOM     27  C   UNL     1      -8.674   3.328 130.108  0.00  0.00    +0.000 A 
BRANCH  18  28
ATOM     28  O   UNL     1      -9.864   4.150 133.517  0.00  0.00    +0.000 OA
ATOM     29  H   UNL     1     -10.366   4.914 133.187  0.00  0.00    +0.000 HD
ENDBRANCH  18  28
ENDBRANCH  16  17
ENDBRANCH   3  16
TORSDOF 8
ENDMDL
MODEL 3
REMARK VINA RESULT:      -7.1      7.968     10.394
REMARK  Name = Esculin
REMARK  8 active torsions:
REMARK  status: ('A' for Active; 'I' for Inactive)
REMARK    1  A    between atoms: O_1  and  C_2
REMARK    2  A    between atoms: C_2  and  C_3
REMARK    3  A    between atoms: C_5  and  O_6
REMARK    4  A    between atoms: O_6  and  C_7
REMARK    5  A    between atoms: C_8  and  O_9
REMARK    6  A    between atoms: C_19  and  O_20
REMARK    7  A    between atoms: C_21  and  O_22
REMARK    8  A    between atoms: C_23  and  O_24
REMARK                            x       y       z     vdW  Elec       q    Type
REMARK                         _______ _______ _______ _____ _____    ______ ____
ROOT
ATOM      1  C   UNL     1      -4.031   3.988 128.833  0.00  0.00    +0.000 C 
ATOM      2  O   UNL     1      -4.470   4.506 130.097  0.00  0.00    +0.000 OA
ATOM      3  C   UNL     1      -4.878   5.885 130.067  0.00  0.00    +0.000 C 
ATOM      4  C   UNL     1      -3.782   6.843 129.520  0.00  0.00    +0.000 C 
ATOM      5  C   UNL     1      -3.136   6.266 128.247  0.00  0.00    +0.000 C 
ATOM      6  C   UNL     1      -2.797   4.764 128.362  0.00  0.00    +0.000 C 
ENDROOT
BRANCH   4   7
ATOM      7  O   UNL     1      -4.286   8.171 129.317  0.00  0.00    +0.000 OA
ATOM      8  H   UNL     1      -4.186   8.686 130.131  0.00  0.00    +0.000 HD
ENDBRANCH   4   7
BRANCH   5   9
ATOM      9  O   UNL     1      -1.945   6.999 127.933  0.00  0.00    +0.000 OA
ATOM     10  H   UNL     1      -1.180   6.485 128.255  0.00  0.00    +0.000 HD
ENDBRANCH   5   9
BRANCH   6  11
ATOM     11  O   UNL     1      -2.330   4.245 127.115  0.00  0.00    +0.000 OA
ATOM     12  H   UNL     1      -1.357   4.217 127.129  0.00  0.00    +0.000 HD
ENDBRANCH   6  11
BRANCH   1  13
ATOM     13  C   UNL     1      -3.726   2.485 128.999  0.00  0.00    +0.000 C 
BRANCH  13  14
ATOM     14  O   UNL     1      -3.957   1.845 127.743  0.00  0.00    +0.000 OA
ATOM     15  H   UNL     1      -4.005   0.887 127.910  0.00  0.00    +0.000 HD
ENDBRANCH  13  14
ENDBRANCH   1  13
BRANCH   3  16
ATOM     16  O   UNL     1      -5.343   6.290 131.371  0.00  0.00    +0.000 OA
BRANCH  16  17
ATOM     17  C   UNL     1      -6.681   6.266 131.681  0.00  0.00    +0.000 A 
ATOM     18  C   UNL     1      -7.279   5.796 132.862  0.00  0.00    +0.000 A 
ATOM     19  C   UNL     1      -8.639   5.871 133.075  0.00  0.00    +0.000 A 
ATOM     20  C   UNL     1      -9.439   6.382 132.081  0.00  0.00    +0.000 A 
ATOM     21  O   UNL     1     -10.810   6.374 132.367  0.00  0.00    +0.000 OA
ATOM     22  C   UNL     1     -11.719   6.816 131.434  0.00  0.00    +0.000 A 
ATOM     23  O   UNL     1     -12.930   6.795 131.647  0.00  0.00    +0.000 OA
ATOM     24  C   UNL     1     -11.174   7.323 130.164  0.00  0.00    +0.000 A 
ATOM     25  C   UNL     1      -9.862   7.346 129.889  0.00  0.00    +0.000 A 
ATOM     26  C   UNL     1      -8.917   6.844 130.878  0.00  0.00    +0.000 A 
ATOM     27  C   UNL     1      -7.525   6.795 130.682  0.00  0.00    +0.000 A 
BRANCH  18  28
ATOM     28  O   UNL     1      -6.640   5.190 133.900  0.00  0.00    +0.000 OA
ATOM     29  H   UNL     1      -7.224   5.358 134.659  0.00  0.00    +0.000 HD
ENDBRANCH  18  28
ENDBRANCH  16  17
ENDBRANCH   3  16
TORSDOF 8
ENDMDL
MODEL 4
REMARK VINA RESULT:      -7.1      1.618      2.698
REMARK  Name = Esculin
REMARK  8 active torsions:
REMARK  status: ('A' for Active; 'I' for Inactive)
REMARK    1  A    between atoms: O_1  and  C_2
REMARK    2  A    between atoms: C_2  and  C_3
REMARK    3  A    between atoms: C_5  and  O_6
REMARK    4  A    between atoms: O_6  and  C_7
REMARK    5  A    between atoms: C_8  and  O_9
REMARK    6  A    between atoms: C_19  and  O_20
REMARK    7  A    between atoms: C_21  and  O_22
REMARK    8  A    between atoms: C_23  and  O_24
REMARK                            x       y       z     vdW  Elec       q    Type
REMARK                         _______ _______ _______ _____ _____    ______ ____
ROOT
ATOM      1  C   UNL     1      -8.335  -1.118 126.148  0.00  0.00    +0.000 C 
ATOM      2  O   UNL     1      -8.441   0.253 125.737  0.00  0.00    +0.000 OA
ATOM      3  C   UNL     1      -9.419   0.495 124.710  0.00  0.00    +0.000 C 
ATOM      4  C   UNL     1      -9.198  -0.364 123.432  0.00  0.00    +0.000 C 
ATOM      5  C   UNL     1      -8.904  -1.830 123.802  0.00  0.00    +0.000 C 
ATOM      6  C   UNL     1      -7.891  -1.975 124.959  0.00  0.00    +0.000 C 
ENDROOT
BRANCH   4   7
ATOM      7  O   UNL     1     -10.295  -0.248 122.514  0.00  0.00    +0.000 OA
ATOM      8  H   UNL     1     -10.972  -0.906 122.730  0.00  0.00    +0.000 HD
ENDBRANCH   4   7
BRANCH   5   9
ATOM      9  O   UNL     1      -8.414  -2.530 122.651  0.00  0.00    +0.000 OA
ATOM     10  H   UNL     1      -8.936  -2.245 121.878  0.00  0.00    +0.000 HD
ENDBRANCH   5   9
BRANCH   6  11
ATOM     11  O   UNL     1      -7.756  -3.342 125.355  0.00  0.00    +0.000 OA
ATOM     12  H   UNL     1      -6.870  -3.658 125.104  0.00  0.00    +0.000 HD
ENDBRANCH   6  11
BRANCH   1  13
ATOM     13  C   UNL     1      -7.330  -1.203 127.315  0.00  0.00    +0.000 C 
BRANCH  13  14
ATOM     14  O   UNL     1      -6.026  -1.395 126.762  0.00  0.00    +0.000 OA
ATOM     15  H   UNL     1      -6.135  -1.530 125.804  0.00  0.00    +0.000 HD
ENDBRANCH  13  14
ENDBRANCH   1  13
BRANCH   3  16
ATOM     16  O   UNL     1      -9.477   1.903 124.406  0.00  0.00    +0.000 OA
BRANCH  16  17
ATOM     17  C   UNL     1      -8.503   2.501 123.644  0.00  0.00    +0.000 A 
ATOM     18  C   UNL     1      -7.172   2.765 124.007  0.00  0.00    +0.000 A 
ATOM     19  C   UNL     1      -6.270   3.329 123.131  0.00  0.00    +0.000 A 
ATOM     20  C   UNL     1      -6.701   3.686 121.875  0.00  0.00    +0.000 A 
ATOM     21  O   UNL     1      -5.730   4.296 121.071  0.00  0.00    +0.000 OA
ATOM     22  C   UNL     1      -6.049   4.739 119.809  0.00  0.00    +0.000 A 
ATOM     23  O   UNL     1      -5.224   5.303 119.092  0.00  0.00    +0.000 OA
ATOM     24  C   UNL     1      -7.429   4.505 119.351  0.00  0.00    +0.000 A 
ATOM     25  C   UNL     1      -8.359   3.910 120.110  0.00  0.00    +0.000 A 
ATOM     26  C   UNL     1      -8.010   3.473 121.456  0.00  0.00    +0.000 A 
ATOM     27  C   UNL     1      -8.914   2.866 122.345  0.00  0.00    +0.000 A 
BRANCH  18  28
ATOM     28  O   UNL     1      -6.615   2.550 125.231  0.00  0.00    +0.000 OA
ATOM     29  H   UNL     1      -6.441   3.446 125.565  0.00  0.00    +0.000 HD
ENDBRANCH  18  28
ENDBRANCH  16  17
ENDBRANCH   3  16
TORSDOF 8
ENDMDL
MODEL 5
REMARK VINA RESULT:      -6.9      2.943      7.699
REMARK  Name = Esculin
REMARK  8 active torsions:
REMARK  status: ('A' for Active; 'I' for Inactive)
REMARK    1  A    between atoms: O_1  and  C_2
REMARK    2  A    between atoms: C_2  and  C_3
REMARK    3  A    between atoms: C_5  and  O_6
REMARK    4  A    between atoms: O_6  and  C_7
REMARK    5  A    between atoms: C_8  and  O_9
REMARK    6  A    between atoms: C_19  and  O_20
REMARK    7  A    between atoms: C_21  and  O_22
REMARK    8  A    between atoms: C_23  and  O_24
REMARK                            x       y       z     vdW  Elec       q    Type
REMARK                         _______ _______ _______ _____ _____    ______ ____
ROOT
ATOM      1  C   UNL     1      -6.980   2.005 123.960  0.00  0.00    +0.000 C 
ATOM      2  O   UNL     1      -6.786   0.624 124.298  0.00  0.00    +0.000 OA
ATOM      3  C   UNL     1      -7.641  -0.290 123.589  0.00  0.00    +0.000 C 
ATOM      4  C   UNL     1      -9.155   0.027 123.751  0.00  0.00    +0.000 C 
ATOM      5  C   UNL     1      -9.421   1.533 123.572  0.00  0.00    +0.000 C 
ATOM      6  C   UNL     1      -8.408   2.425 124.323  0.00  0.00    +0.000 C 
ENDROOT
BRANCH   4   7
ATOM      7  O   UNL     1      -9.965  -0.773 122.877  0.00  0.00    +0.000 OA
ATOM      8  H   UNL     1     -10.636  -1.243 123.394  0.00  0.00    +0.000 HD
ENDBRANCH   4   7
BRANCH   5   9
ATOM      9  O   UNL     1     -10.748   1.846 124.016  0.00  0.00    +0.000 OA
ATOM     10  H   UNL     1     -11.279   1.028 123.981  0.00  0.00    +0.000 HD
ENDBRANCH   5   9
BRANCH   6  11
ATOM     11  O   UNL     1      -8.613   3.805 124.016  0.00  0.00    +0.000 OA
ATOM     12  H   UNL     1      -9.424   4.111 124.459  0.00  0.00    +0.000 HD
ENDBRANCH   6  11
BRANCH   1  13
ATOM     13  C   UNL     1      -5.933   2.846 124.719  0.00  0.00    +0.000 C 
BRANCH  13  14
ATOM     14  O   UNL     1      -5.646   4.006 123.936  0.00  0.00    +0.000 OA
ATOM     15  H   UNL     1      -4.947   4.502 124.398  0.00  0.00    +0.000 HD
ENDBRANCH  13  14
ENDBRANCH   1  13
BRANCH   3  16
ATOM     16  O   UNL     1      -7.334  -1.647 123.965  0.00  0.00    +0.000 OA
BRANCH  16  17
ATOM     17  C   UNL     1      -7.544  -2.087 125.250  0.00  0.00    +0.000 A 
ATOM     18  C   UNL     1      -8.687  -2.719 125.765  0.00  0.00    +0.000 A 
ATOM     19  C   UNL     1      -8.758  -3.160 127.068  0.00  0.00    +0.000 A 
ATOM     20  C   UNL     1      -7.690  -2.934 127.905  0.00  0.00    +0.000 A 
ATOM     21  O   UNL     1      -7.871  -3.372 129.222  0.00  0.00    +0.000 OA
ATOM     22  C   UNL     1      -6.893  -3.162 130.166  0.00  0.00    +0.000 A 
ATOM     23  O   UNL     1      -7.036  -3.511 131.336  0.00  0.00    +0.000 OA
ATOM     24  C   UNL     1      -5.660  -2.499 129.710  0.00  0.00    +0.000 A 
ATOM     25  C   UNL     1      -5.475  -2.089 128.448  0.00  0.00    +0.000 A 
ATOM     26  C   UNL     1      -6.535  -2.293 127.468  0.00  0.00    +0.000 A 
ATOM     27  C   UNL     1      -6.459  -1.877 126.127  0.00  0.00    +0.000 A 
BRANCH  18  28
ATOM     28  O   UNL     1      -9.852  -2.942 125.095  0.00  0.00    +0.000 OA
ATOM     29  H   UNL     1      -9.646  -3.701 124.524  0.00  0.00    +0.000 HD
ENDBRANCH  18  28
ENDBRANCH  16  17
ENDBRANCH   3  16
TORSDOF 8
ENDMDL
MODEL 6
REMARK VINA RESULT:      -6.7      2.809      7.774
REMARK  Name = Esculin
REMARK  8 active torsions:
REMARK  status: ('A' for Active; 'I' for Inactive)
REMARK    1  A    between atoms: O_1  and  C_2
REMARK    2  A    between atoms: C_2  and  C_3
REMARK    3  A    between atoms: C_5  and  O_6
REMARK    4  A    between atoms: O_6  and  C_7
REMARK    5  A    between atoms: C_8  and  O_9
REMARK    6  A    between atoms: C_19  and  O_20
REMARK    7  A    between atoms: C_21  and  O_22
REMARK    8  A    between atoms: C_23  and  O_24
REMARK                            x       y       z     vdW  Elec       q    Type
REMARK                         _______ _______ _______ _____ _____    ______ ____
ROOT
ATOM      1  C   UNL     1      -7.109   2.084 123.172  0.00  0.00    +0.000 C 
ATOM      2  O   UNL     1      -6.639   0.867 123.769  0.00  0.00    +0.000 OA
ATOM      3  C   UNL     1      -7.379  -0.307 123.392  0.00  0.00    +0.000 C 
ATOM      4  C   UNL     1      -8.903  -0.197 123.683  0.00  0.00    +0.000 C 
ATOM      5  C   UNL     1      -9.452   1.166 123.223  0.00  0.00    +0.000 C 
ATOM      6  C   UNL     1      -8.548   2.353 123.623  0.00  0.00    +0.000 C 
ENDROOT
BRANCH   4   7
ATOM      7  O   UNL     1      -9.636  -1.294 123.117  0.00  0.00    +0.000 OA
ATOM      8  H   UNL     1      -9.109  -2.105 123.180  0.00  0.00    +0.000 HD
ENDBRANCH   4   7
BRANCH   5   9
ATOM      9  O   UNL     1     -10.765   1.367 123.762  0.00  0.00    +0.000 OA
ATOM     10  H   UNL     1     -10.676   1.863 124.598  0.00  0.00    +0.000 HD
ENDBRANCH   5   9
BRANCH   6  11
ATOM     11  O   UNL     1      -9.026   3.576 123.057  0.00  0.00    +0.000 OA
ATOM     12  H   UNL     1      -9.914   3.426 122.686  0.00  0.00    +0.000 HD
ENDBRANCH   6  11
BRANCH   1  13
ATOM     13  C   UNL     1      -6.163   3.230 123.586  0.00  0.00    +0.000 C 
BRANCH  13  14
ATOM     14  O   UNL     1      -6.295   4.282 122.627  0.00  0.00    +0.000 OA
ATOM     15  H   UNL     1      -5.497   4.835 122.691  0.00  0.00    +0.000 HD
ENDBRANCH  13  14
ENDBRANCH   1  13
BRANCH   3  16
ATOM     16  O   UNL     1      -6.798  -1.475 124.006  0.00  0.00    +0.000 OA
BRANCH  16  17
ATOM     17  C   UNL     1      -6.710  -1.581 125.373  0.00  0.00    +0.000 A 
ATOM     18  C   UNL     1      -5.806  -0.928 126.228  0.00  0.00    +0.000 A 
ATOM     19  C   UNL     1      -5.850  -1.081 127.597  0.00  0.00    +0.000 A 
ATOM     20  C   UNL     1      -6.780  -1.935 128.140  0.00  0.00    +0.000 A 
ATOM     21  O   UNL     1      -6.719  -2.064 129.533  0.00  0.00    +0.000 OA
ATOM     22  C   UNL     1      -7.567  -2.924 130.191  0.00  0.00    +0.000 A 
ATOM     23  O   UNL     1      -7.516  -3.078 131.410  0.00  0.00    +0.000 OA
ATOM     24  C   UNL     1      -8.545  -3.653 129.366  0.00  0.00    +0.000 A 
ATOM     25  C   UNL     1      -8.619  -3.524 128.034  0.00  0.00    +0.000 A 
ATOM     26  C   UNL     1      -7.691  -2.631 127.352  0.00  0.00    +0.000 A 
ATOM     27  C   UNL     1      -7.661  -2.443 125.959  0.00  0.00    +0.000 A 
BRANCH  18  28
ATOM     28  O   UNL     1      -4.779  -0.120 125.845  0.00  0.00    +0.000 OA
ATOM     29  H   UNL     1      -5.220   0.594 125.354  0.00  0.00    +0.000 HD
ENDBRANCH  18  28
ENDBRANCH  16  17
ENDBRANCH   3  16
TORSDOF 8
ENDMDL
MODEL 7
REMARK VINA RESULT:      -6.6      4.453      7.719
REMARK  Name = Esculin
REMARK  8 active torsions:
REMARK  status: ('A' for Active; 'I' for Inactive)
REMARK    1  A    between atoms: O_1  and  C_2
REMARK    2  A    between atoms: C_2  and  C_3
REMARK    3  A    between atoms: C_5  and  O_6
REMARK    4  A    between atoms: O_6  and  C_7
REMARK    5  A    between atoms: C_8  and  O_9
REMARK    6  A    between atoms: C_19  and  O_20
REMARK    7  A    between atoms: C_21  and  O_22
REMARK    8  A    between atoms: C_23  and  O_24
REMARK                            x       y       z     vdW  Elec       q    Type
REMARK                         _______ _______ _______ _____ _____    ______ ____
ROOT
ATOM      1  C   UNL     1      -9.106  -0.595 124.958  0.00  0.00    +0.000 C 
ATOM      2  O   UNL     1      -8.167   0.100 125.790  0.00  0.00    +0.000 OA
ATOM      3  C   UNL     1      -8.476   1.488 126.009  0.00  0.00    +0.000 C 
ATOM      4  C   UNL     1      -8.633   2.302 124.693  0.00  0.00    +0.000 C 
ATOM      5  C   UNL     1      -9.496   1.533 123.674  0.00  0.00    +0.000 C 
ATOM      6  C   UNL     1      -9.123   0.039 123.564  0.00  0.00    +0.000 C 
ENDROOT
BRANCH   4   7
ATOM      7  O   UNL     1      -9.135   3.623 124.938  0.00  0.00    +0.000 OA
ATOM      8  H   UNL     1     -10.104   3.608 124.949  0.00  0.00    +0.000 HD
ENDBRANCH   4   7
BRANCH   5   9
ATOM      9  O   UNL     1      -9.382   2.147 122.383  0.00  0.00    +0.000 OA
ATOM     10  H   UNL     1      -9.494   3.110 122.495  0.00  0.00    +0.000 HD
ENDBRANCH   5   9
BRANCH   6  11
ATOM     11  O   UNL     1     -10.037  -0.657 122.713  0.00  0.00    +0.000 OA
ATOM     12  H   UNL     1     -10.334  -1.467 123.163  0.00  0.00    +0.000 HD
ENDBRANCH   6  11
BRANCH   1  13
ATOM     13  C   UNL     1      -8.700  -2.083 124.899  0.00  0.00    +0.000 C 
BRANCH  13  14
ATOM     14  O   UNL     1      -9.888  -2.859 124.726  0.00  0.00    +0.000 OA
ATOM     15  H   UNL     1      -9.813  -3.317 123.871  0.00  0.00    +0.000 HD
ENDBRANCH  13  14
ENDBRANCH   1  13
BRANCH   3  16
ATOM     16  O   UNL     1      -7.500   2.078 126.891  0.00  0.00    +0.000 OA
BRANCH  16  17
ATOM     17  C   UNL     1      -7.880   2.645 128.083  0.00  0.00    +0.000 A 
ATOM     18  C   UNL     1      -8.280   3.972 128.313  0.00  0.00    +0.000 A 
ATOM     19  C   UNL     1      -8.687   4.411 129.554  0.00  0.00    +0.000 A 
ATOM     20  C   UNL     1      -8.659   3.532 130.611  0.00  0.00    +0.000 A 
ATOM     21  O   UNL     1      -9.043   4.078 131.842  0.00  0.00    +0.000 OA
ATOM     22  C   UNL     1      -9.013   3.312 132.984  0.00  0.00    +0.000 A 
ATOM     23  O   UNL     1      -9.318   3.774 134.082  0.00  0.00    +0.000 OA
ATOM     24  C   UNL     1      -8.600   1.907 132.831  0.00  0.00    +0.000 A 
ATOM     25  C   UNL     1      -8.244   1.374 131.654  0.00  0.00    +0.000 A 
ATOM     26  C   UNL     1      -8.253   2.210 130.460  0.00  0.00    +0.000 A 
ATOM     27  C   UNL     1      -7.871   1.762 129.183  0.00  0.00    +0.000 A 
BRANCH  18  28
ATOM     28  O   UNL     1      -8.285   4.980 127.397  0.00  0.00    +0.000 OA
ATOM     29  H   UNL     1      -7.879   5.724 127.872  0.00  0.00    +0.000 HD
ENDBRANCH  18  28
ENDBRANCH  16  17
ENDBRANCH   3  16
TORSDOF 8
ENDMDL
MODEL 8
REMARK VINA RESULT:      -6.6      3.057      4.379
REMARK  Name = Esculin
REMARK  8 active torsions:
REMARK  status: ('A' for Active; 'I' for Inactive)
REMARK    1  A    between atoms: O_1  and  C_2
REMARK    2  A    between atoms: C_2  and  C_3
REMARK    3  A    between atoms: C_5  and  O_6
REMARK    4  A    between atoms: O_6  and  C_7
REMARK    5  A    between atoms: C_8  and  O_9
REMARK    6  A    between atoms: C_19  and  O_20
REMARK    7  A    between atoms: C_21  and  O_22
REMARK    8  A    between atoms: C_23  and  O_24
REMARK                            x       y       z     vdW  Elec       q    Type
REMARK                         _______ _______ _______ _____ _____    ______ ____
ROOT
ATOM      1  C   UNL     1      -6.342  -1.999 124.222  0.00  0.00    +0.000 C 
ATOM      2  O   UNL     1      -6.485  -0.641 123.781  0.00  0.00    +0.000 OA
ATOM      3  C   UNL     1      -7.213   0.207 124.686  0.00  0.00    +0.000 C 
ATOM      4  C   UNL     1      -8.633  -0.329 125.029  0.00  0.00    +0.000 C 
ATOM      5  C   UNL     1      -8.587  -1.835 125.348  0.00  0.00    +0.000 C 
ATOM      6  C   UNL     1      -7.726  -2.643 124.353  0.00  0.00    +0.000 C 
ENDROOT
BRANCH   4   7
ATOM      7  O   UNL     1      -9.250   0.428 126.080  0.00  0.00    +0.000 OA
ATOM      8  H   UNL     1      -8.593   1.005 126.497  0.00  0.00    +0.000 HD
ENDBRANCH   4   7
BRANCH   5   9
ATOM      9  O   UNL     1      -9.918  -2.367 125.365  0.00  0.00    +0.000 OA
ATOM     10  H   UNL     1     -10.342  -2.094 126.201  0.00  0.00    +0.000 HD
ENDBRANCH   5   9
BRANCH   6  11
ATOM     11  O   UNL     1      -7.602  -4.005 124.768  0.00  0.00    +0.000 OA
ATOM     12  H   UNL     1      -7.237  -4.029 125.670  0.00  0.00    +0.000 HD
ENDBRANCH   6  11
BRANCH   1  13
ATOM     13  C   UNL     1      -5.460  -2.753 123.206  0.00  0.00    +0.000 C 
BRANCH  13  14
ATOM     14  O   UNL     1      -4.810  -3.824 123.894  0.00  0.00    +0.000 OA
ATOM     15  H   UNL     1      -3.916  -3.910 123.518  0.00  0.00    +0.000 HD
ENDBRANCH  13  14
ENDBRANCH   1  13
BRANCH   3  16
ATOM     16  O   UNL     1      -7.258   1.553 124.173  0.00  0.00    +0.000 OA
BRANCH  16  17
ATOM     17  C   UNL     1      -6.675   2.590 124.861  0.00  0.00    +0.000 A 
ATOM     18  C   UNL     1      -7.192   3.879 125.072  0.00  0.00    +0.000 A 
ATOM     19  C   UNL     1      -6.528   4.821 125.827  0.00  0.00    +0.000 A 
ATOM     20  C   UNL     1      -5.298   4.504 126.353  0.00  0.00    +0.000 A 
ATOM     21  O   UNL     1      -4.676   5.538 127.063  0.00  0.00    +0.000 OA
ATOM     22  C   UNL     1      -3.422   5.360 127.598  0.00  0.00    +0.000 A 
ATOM     23  O   UNL     1      -2.841   6.260 128.203  0.00  0.00    +0.000 OA
ATOM     24  C   UNL     1      -2.805   4.035 127.418  0.00  0.00    +0.000 A 
ATOM     25  C   UNL     1      -3.399   3.037 126.751  0.00  0.00    +0.000 A 
ATOM     26  C   UNL     1      -4.716   3.255 126.164  0.00  0.00    +0.000 A 
ATOM     27  C   UNL     1      -5.416   2.288 125.421  0.00  0.00    +0.000 A 
BRANCH  18  28
ATOM     28  O   UNL     1      -8.350   4.374 124.554  0.00  0.00    +0.000 OA
ATOM     29  H   UNL     1      -8.962   4.362 125.309  0.00  0.00    +0.000 HD
ENDBRANCH  18  28
ENDBRANCH  16  17
ENDBRANCH   3  16
TORSDOF 8
ENDMDL
MODEL 9
REMARK VINA RESULT:      -6.5      4.221      8.593
REMARK  Name = Esculin
REMARK  8 active torsions:
REMARK  status: ('A' for Active; 'I' for Inactive)
REMARK    1  A    between atoms: O_1  and  C_2
REMARK    2  A    between atoms: C_2  and  C_3
REMARK    3  A    between atoms: C_5  and  O_6
REMARK    4  A    between atoms: O_6  and  C_7
REMARK    5  A    between atoms: C_8  and  O_9
REMARK    6  A    between atoms: C_19  and  O_20
REMARK    7  A    between atoms: C_21  and  O_22
REMARK    8  A    between atoms: C_23  and  O_24
REMARK                            x       y       z     vdW  Elec       q    Type
REMARK                         _______ _______ _______ _____ _____    ______ ____
ROOT
ATOM      1  C   UNL     1      -9.159  -1.449 124.472  0.00  0.00    +0.000 C 
ATOM      2  O   UNL     1      -8.132  -1.230 125.450  0.00  0.00    +0.000 OA
ATOM      3  C   UNL     1      -8.336  -0.074 126.281  0.00  0.00    +0.000 C 
ATOM      4  C   UNL     1      -8.508   1.245 125.474  0.00  0.00    +0.000 C 
ATOM      5  C   UNL     1      -9.472   1.041 124.291  0.00  0.00    +0.000 C 
ATOM      6  C   UNL     1      -9.207  -0.262 123.505  0.00  0.00    +0.000 C 
ENDROOT
BRANCH   4   7
ATOM      7  O   UNL     1      -8.907   2.338 126.314  0.00  0.00    +0.000 OA
ATOM      8  H   UNL     1      -9.838   2.550 126.154  0.00  0.00    +0.000 HD
ENDBRANCH   4   7
BRANCH   5   9
ATOM      9  O   UNL     1      -9.386   2.159 123.398  0.00  0.00    +0.000 OA
ATOM     10  H   UNL     1      -8.770   2.809 123.786  0.00  0.00    +0.000 HD
ENDBRANCH   5   9
BRANCH   6  11
ATOM     11  O   UNL     1     -10.208  -0.473 122.508  0.00  0.00    +0.000 OA
ATOM     12  H   UNL     1     -10.737   0.338 122.414  0.00  0.00    +0.000 HD
ENDBRANCH   6  11
BRANCH   1  13
ATOM     13  C   UNL     1      -8.857  -2.769 123.733  0.00  0.00    +0.000 C 
BRANCH  13  14
ATOM     14  O   UNL     1     -10.102  -3.401 123.429  0.00  0.00    +0.000 OA
ATOM     15  H   UNL     1     -10.192  -4.165 124.025  0.00  0.00    +0.000 HD
ENDBRANCH  13  14
ENDBRANCH   1  13
BRANCH   3  16
ATOM     16  O   UNL     1      -7.278   0.028 127.255  0.00  0.00    +0.000 OA
BRANCH  16  17
ATOM     17  C   UNL     1      -7.533  -0.150 128.593  0.00  0.00    +0.000 A 
ATOM     18  C   UNL     1      -8.119   0.764 129.484  0.00  0.00    +0.000 A 
ATOM     19  C   UNL     1      -8.369   0.448 130.802  0.00  0.00    +0.000 A 
ATOM     20  C   UNL     1      -7.990  -0.788 131.270  0.00  0.00    +0.000 A 
ATOM     21  O   UNL     1      -8.238  -1.003 132.632  0.00  0.00    +0.000 OA
ATOM     22  C   UNL     1      -7.862  -2.183 133.230  0.00  0.00    +0.000 A 
ATOM     23  O   UNL     1      -8.043  -2.388 134.429  0.00  0.00    +0.000 OA
ATOM     24  C   UNL     1      -7.235  -3.196 132.366  0.00  0.00    +0.000 A 
ATOM     25  C   UNL     1      -7.006  -3.003 131.060  0.00  0.00    +0.000 A 
ATOM     26  C   UNL     1      -7.384  -1.734 130.450  0.00  0.00    +0.000 A 
ATOM     27  C   UNL     1      -7.164  -1.415 129.098  0.00  0.00    +0.000 A 
BRANCH  18  28
ATOM     28  O   UNL     1      -8.474   2.048 129.200  0.00  0.00    +0.000 OA
ATOM     29  H   UNL     1      -7.718   2.570 129.516  0.00  0.00    +0.000 HD
ENDBRANCH  18  28
ENDBRANCH  16  17
ENDBRANCH   3  16
TORSDOF 8
ENDMDL
