MODEL 1
REMARK VINA RESULT:      -6.3      0.000      0.000
REMARK  Name = Esketamine
REMARK  3 active torsions:
REMARK  status: ('A' for Active; 'I' for Inactive)
REMARK    1  A    between atoms: C_1  and  N_2
REMARK    2  A    between atoms: N_2  and  C_3
REMARK    3  A    between atoms: C_3  and  C_10
REMARK                            x       y       z     vdW  Elec       q    Type
REMARK                         _______ _______ _______ _____ _____    ______ ____
ROOT
ATOM      1  C   UNL     1      -9.798   5.398 131.335  0.00  0.00    +0.000 C 
ATOM      2  C   UNL     1      -9.649   5.572 132.883  0.00  0.00    +0.000 C 
ATOM      3  C   UNL     1      -8.739   4.520 133.517  0.00  0.00    +0.000 C 
ATOM      4  C   UNL     1      -9.346   3.148 133.310  0.00  0.00    +0.000 C 
ATOM      5  C   UNL     1      -9.493   2.822 131.837  0.00  0.00    +0.000 C 
ATOM      6  C   UNL     1     -10.092   3.910 130.973  0.00  0.00    +0.000 C 
ATOM      7  O   UNL     1     -10.561   3.559 129.877  0.00  0.00    +0.000 OA
ENDROOT
BRANCH   1   8
ATOM      8  C   UNL     1     -10.848   6.434 130.848  0.00  0.00    +0.000 A 
ATOM      9  C   UNL     1     -11.909   6.749 131.738  0.00  0.00    +0.000 A 
ATOM     10  C   UNL     1     -12.880   7.711 131.442  0.00  0.00    +0.000 A 
ATOM     11  C   UNL     1     -12.812   8.417 130.252  0.00  0.00    +0.000 A 
ATOM     12  C   UNL     1     -11.821   8.104 129.333  0.00  0.00    +0.000 A 
ATOM     13  C   UNL     1     -10.894   7.079 129.589  0.00  0.00    +0.000 A 
ATOM     14 CL   UNL     1     -10.016   6.622 128.166  0.00  0.00    +0.000 Cl
ENDBRANCH   1   8
BRANCH   1  16
ATOM     15  C   UNL     1      -7.725   6.859 131.107  0.00  0.00    +0.000 C 
ATOM     16  N   UNL     1      -8.405   5.615 130.822  0.00  0.00    +0.000 NA
ATOM     17  H   UNL     1      -7.798   4.829 131.028  0.00  0.00    +0.000 HD
ENDBRANCH   1  16
TORSDOF 2
ENDMDL
MODEL 2
REMARK VINA RESULT:      -6.2      8.978     10.980
REMARK  Name = Esketamine
REMARK  3 active torsions:
REMARK  status: ('A' for Active; 'I' for Inactive)
REMARK    1  A    between atoms: C_1  and  N_2
REMARK    2  A    between atoms: N_2  and  C_3
REMARK    3  A    between atoms: C_3  and  C_10
REMARK                            x       y       z     vdW  Elec       q    Type
REMARK                         _______ _______ _______ _____ _____    ______ ____
ROOT
ATOM      1  C   UNL     1      -8.310  -0.089 124.116  0.00  0.00    +0.000 C 
ATOM      2  C   UNL     1      -7.266   1.072 124.029  0.00  0.00    +0.000 C 
ATOM      3  C   UNL     1      -7.914   2.455 123.950  0.00  0.00    +0.000 C 
ATOM      4  C   UNL     1      -8.742   2.544 122.686  0.00  0.00    +0.000 C 
ATOM      5  C   UNL     1      -9.843   1.502 122.666  0.00  0.00    +0.000 C 
ATOM      6  C   UNL     1      -9.433   0.097 123.050  0.00  0.00    +0.000 C 
ATOM      7  O   UNL     1     -10.189  -0.823 122.694  0.00  0.00    +0.000 OA
ENDROOT
BRANCH   1   8
ATOM      8  C   UNL     1      -7.526  -1.428 124.049  0.00  0.00    +0.000 A 
ATOM      9  C   UNL     1      -6.301  -1.426 123.329  0.00  0.00    +0.000 A 
ATOM     10  C   UNL     1      -5.474  -2.551 123.249  0.00  0.00    +0.000 A 
ATOM     11  C   UNL     1      -5.827  -3.717 123.909  0.00  0.00    +0.000 A 
ATOM     12  C   UNL     1      -7.039  -3.775 124.581  0.00  0.00    +0.000 A 
ATOM     13  C   UNL     1      -7.914  -2.676 124.593  0.00  0.00    +0.000 A 
ATOM     14 CL   UNL     1      -9.497  -3.106 125.153  0.00  0.00    +0.000 Cl
ENDBRANCH   1   8
BRANCH   1  16
ATOM     15  C   UNL     1      -8.262   0.159 126.651  0.00  0.00    +0.000 C 
ATOM     16  N   UNL     1      -9.015   0.171 125.415  0.00  0.00    +0.000 NA
ATOM     17  H   UNL     1      -9.601   0.998 125.371  0.00  0.00    +0.000 HD
ENDBRANCH   1  16
TORSDOF 2
ENDMDL
MODEL 3
REMARK VINA RESULT:      -6.1      9.347     10.809
REMARK  Name = Esketamine
REMARK  3 active torsions:
REMARK  status: ('A' for Active; 'I' for Inactive)
REMARK    1  A    between atoms: C_1  and  N_2
REMARK    2  A    between atoms: N_2  and  C_3
REMARK    3  A    between atoms: C_3  and  C_10
REMARK                            x       y       z     vdW  Elec       q    Type
REMARK                         _______ _______ _______ _____ _____    ______ ____
ROOT
ATOM      1  C   UNL     1      -7.611  -1.964 125.123  0.00  0.00    +0.000 C 
ATOM      2  C   UNL     1      -8.454  -2.976 124.278  0.00  0.00    +0.000 C 
ATOM      3  C   UNL     1      -8.629  -2.539 122.823  0.00  0.00    +0.000 C 
ATOM      4  C   UNL     1      -9.390  -1.231 122.785  0.00  0.00    +0.000 C 
ATOM      5  C   UNL     1      -8.648  -0.134 123.524  0.00  0.00    +0.000 C 
ATOM      6  C   UNL     1      -8.102  -0.503 124.886  0.00  0.00    +0.000 C 
ATOM      7  O   UNL     1      -7.831   0.436 125.652  0.00  0.00    +0.000 OA
ENDROOT
BRANCH   1   8
ATOM      8  C   UNL     1      -7.632  -2.456 126.596  0.00  0.00    +0.000 A 
ATOM      9  C   UNL     1      -8.749  -3.233 127.004  0.00  0.00    +0.000 A 
ATOM     10  C   UNL     1      -8.853  -3.785 128.285  0.00  0.00    +0.000 A 
ATOM     11  C   UNL     1      -7.830  -3.605 129.201  0.00  0.00    +0.000 A 
ATOM     12  C   UNL     1      -6.746  -2.810 128.859  0.00  0.00    +0.000 A 
ATOM     13  C   UNL     1      -6.676  -2.182 127.604  0.00  0.00    +0.000 A 
ATOM     14 CL   UNL     1      -5.448  -0.960 127.552  0.00  0.00    +0.000 Cl
ENDBRANCH   1   8
BRANCH   1  16
ATOM     15  C   UNL     1      -5.555  -3.248 124.340  0.00  0.00    +0.000 C 
ATOM     16  N   UNL     1      -6.265  -1.993 124.462  0.00  0.00    +0.000 NA
ATOM     17  H   UNL     1      -6.268  -1.505 123.572  0.00  0.00    +0.000 HD
ENDBRANCH   1  16
TORSDOF 2
ENDMDL
MODEL 4
REMARK VINA RESULT:      -6.1      2.087      4.675
REMARK  Name = Esketamine
REMARK  3 active torsions:
REMARK  status: ('A' for Active; 'I' for Inactive)
REMARK    1  A    between atoms: C_1  and  N_2
REMARK    2  A    between atoms: N_2  and  C_3
REMARK    3  A    between atoms: C_3  and  C_10
REMARK                            x       y       z     vdW  Elec       q    Type
REMARK                         _______ _______ _______ _____ _____    ______ ____
ROOT
ATOM      1  C   UNL     1     -10.206   5.958 129.972  0.00  0.00    +0.000 C 
ATOM      2  C   UNL     1     -10.850   6.550 131.269  0.00  0.00    +0.000 C 
ATOM      3  C   UNL     1     -12.337   6.866 131.107  0.00  0.00    +0.000 C 
ATOM      4  C   UNL     1     -12.507   7.924 130.038  0.00  0.00    +0.000 C 
ATOM      5  C   UNL     1     -11.973   7.453 128.699  0.00  0.00    +0.000 C 
ATOM      6  C   UNL     1     -10.610   6.798 128.722  0.00  0.00    +0.000 C 
ATOM      7  O   UNL     1      -9.998   6.743 127.642  0.00  0.00    +0.000 OA
ENDROOT
BRANCH   1   8
ATOM      8  C   UNL     1      -8.681   5.818 130.231  0.00  0.00    +0.000 A 
ATOM      9  C   UNL     1      -8.096   6.719 131.160  0.00  0.00    +0.000 A 
ATOM     10  C   UNL     1      -6.747   6.654 131.524  0.00  0.00    +0.000 A 
ATOM     11  C   UNL     1      -5.935   5.665 130.993  0.00  0.00    +0.000 A 
ATOM     12  C   UNL     1      -6.455   4.798 130.044  0.00  0.00    +0.000 A 
ATOM     13  C   UNL     1      -7.787   4.913 129.610  0.00  0.00    +0.000 A 
ATOM     14 CL   UNL     1      -8.089   3.990 128.174  0.00  0.00    +0.000 Cl
ENDBRANCH   1   8
BRANCH   1  16
ATOM     15  C   UNL     1     -10.710   3.567 130.693  0.00  0.00    +0.000 C 
ATOM     16  N   UNL     1     -10.939   4.663 129.777  0.00  0.00    +0.000 NA
ATOM     17  H   UNL     1     -11.935   4.807 129.646  0.00  0.00    +0.000 HD
ENDBRANCH   1  16
TORSDOF 2
ENDMDL
MODEL 5
REMARK VINA RESULT:      -5.8      9.223     10.672
REMARK  Name = Esketamine
REMARK  3 active torsions:
REMARK  status: ('A' for Active; 'I' for Inactive)
REMARK    1  A    between atoms: C_1  and  N_2
REMARK    2  A    between atoms: N_2  and  C_3
REMARK    3  A    between atoms: C_3  and  C_10
REMARK                            x       y       z     vdW  Elec       q    Type
REMARK                         _______ _______ _______ _____ _____    ______ ____
ROOT
ATOM      1  C   UNL     1      -6.413  -1.721 125.600  0.00  0.00    +0.000 C 
ATOM      2  C   UNL     1      -5.964  -2.901 124.678  0.00  0.00    +0.000 C 
ATOM      3  C   UNL     1      -5.593  -2.448 123.266  0.00  0.00    +0.000 C 
ATOM      4  C   UNL     1      -6.811  -1.842 122.602  0.00  0.00    +0.000 C 
ATOM      5  C   UNL     1      -7.322  -0.637 123.368  0.00  0.00    +0.000 C 
ATOM      6  C   UNL     1      -7.442  -0.807 124.867  0.00  0.00    +0.000 C 
ATOM      7  O   UNL     1      -8.184  -0.007 125.462  0.00  0.00    +0.000 OA
ENDROOT
BRANCH   1   8
ATOM      8  C   UNL     1      -6.890  -2.335 126.945  0.00  0.00    +0.000 A 
ATOM      9  C   UNL     1      -5.938  -2.413 127.996  0.00  0.00    +0.000 A 
ATOM     10  C   UNL     1      -6.261  -2.887 129.271  0.00  0.00    +0.000 A 
ATOM     11  C   UNL     1      -7.559  -3.278 129.554  0.00  0.00    +0.000 A 
ATOM     12  C   UNL     1      -8.507  -3.266 128.542  0.00  0.00    +0.000 A 
ATOM     13  C   UNL     1      -8.167  -2.872 127.236  0.00  0.00    +0.000 A 
ATOM     14 CL   UNL     1      -9.391  -3.298 126.085  0.00  0.00    +0.000 Cl
ENDBRANCH   1   8
BRANCH   1  16
ATOM     15  C   UNL     1      -5.294   0.484 126.214  0.00  0.00    +0.000 C 
ATOM     16  N   UNL     1      -5.186  -0.862 125.693  0.00  0.00    +0.000 NA
ATOM     17  H   UNL     1      -4.415  -1.348 126.138  0.00  0.00    +0.000 HD
ENDBRANCH   1  16
TORSDOF 2
ENDMDL
MODEL 6
REMARK VINA RESULT:      -5.8      8.105      9.234
REMARK  Name = Esketamine
REMARK  3 active torsions:
REMARK  status: ('A' for Active; 'I' for Inactive)
REMARK    1  A    between atoms: C_1  and  N_2
REMARK    2  A    between atoms: N_2  and  C_3
REMARK    3  A    between atoms: C_3  and  C_10
REMARK                            x       y       z     vdW  Elec       q    Type
REMARK                         _______ _______ _______ _____ _____    ______ ____
ROOT
ATOM      1  C   UNL     1      -8.014  -1.879 126.125  0.00  0.00    +0.000 C 
ATOM      2  C   UNL     1      -7.324  -1.383 127.439  0.00  0.00    +0.000 C 
ATOM      3  C   UNL     1      -6.947  -2.525 128.383  0.00  0.00    +0.000 C 
ATOM      4  C   UNL     1      -8.205  -3.244 128.820  0.00  0.00    +0.000 C 
ATOM      5  C   UNL     1      -8.950  -3.833 127.638  0.00  0.00    +0.000 C 
ATOM      6  C   UNL     1      -9.132  -2.918 126.447  0.00  0.00    +0.000 C 
ATOM      7  O   UNL     1     -10.028  -3.221 125.641  0.00  0.00    +0.000 OA
ENDROOT
BRANCH   1   8
ATOM      8  C   UNL     1      -8.465  -0.622 125.333  0.00  0.00    +0.000 A 
ATOM      9  C   UNL     1      -8.713   0.561 126.079  0.00  0.00    +0.000 A 
ATOM     10  C   UNL     1      -9.062   1.773 125.475  0.00  0.00    +0.000 A 
ATOM     11  C   UNL     1      -9.152   1.857 124.095  0.00  0.00    +0.000 A 
ATOM     12  C   UNL     1      -8.968   0.713 123.333  0.00  0.00    +0.000 A 
ATOM     13  C   UNL     1      -8.701  -0.527 123.940  0.00  0.00    +0.000 A 
ATOM     14 CL   UNL     1      -8.890  -1.849 122.835  0.00  0.00    +0.000 Cl
ENDBRANCH   1   8
BRANCH   1  16
ATOM     15  C   UNL     1      -5.711  -2.077 125.055  0.00  0.00    +0.000 C 
ATOM     16  N   UNL     1      -6.951  -2.703 125.460  0.00  0.00    +0.000 NA
ATOM     17  H   UNL     1      -6.761  -3.560 125.969  0.00  0.00    +0.000 HD
ENDBRANCH   1  16
TORSDOF 2
ENDMDL
MODEL 7
REMARK VINA RESULT:      -5.7      9.078     10.647
REMARK  Name = Esketamine
REMARK  3 active torsions:
REMARK  status: ('A' for Active; 'I' for Inactive)
REMARK    1  A    between atoms: C_1  and  N_2
REMARK    2  A    between atoms: N_2  and  C_3
REMARK    3  A    between atoms: C_3  and  C_10
REMARK                            x       y       z     vdW  Elec       q    Type
REMARK                         _______ _______ _______ _____ _____    ______ ____
ROOT
ATOM      1  C   UNL     1      -8.221  -1.612 125.157  0.00  0.00    +0.000 C 
ATOM      2  C   UNL     1      -8.562  -0.102 125.381  0.00  0.00    +0.000 C 
ATOM      3  C   UNL     1      -8.633   0.695 124.078  0.00  0.00    +0.000 C 
ATOM      4  C   UNL     1      -7.276   0.671 123.407  0.00  0.00    +0.000 C 
ATOM      5  C   UNL     1      -6.843  -0.745 123.075  0.00  0.00    +0.000 C 
ATOM      6  C   UNL     1      -7.017  -1.766 124.177  0.00  0.00    +0.000 C 
ATOM      7  O   UNL     1      -6.351  -2.811 124.081  0.00  0.00    +0.000 OA
ENDROOT
BRANCH   1   8
ATOM      8  C   UNL     1      -8.044  -2.263 126.556  0.00  0.00    +0.000 A 
ATOM      9  C   UNL     1      -9.037  -3.191 126.969  0.00  0.00    +0.000 A 
ATOM     10  C   UNL     1      -8.957  -3.890 128.178  0.00  0.00    +0.000 A 
ATOM     11  C   UNL     1      -7.866  -3.706 129.012  0.00  0.00    +0.000 A 
ATOM     12  C   UNL     1      -6.901  -2.771 128.669  0.00  0.00    +0.000 A 
ATOM     13  C   UNL     1      -7.019  -2.004 127.498  0.00  0.00    +0.000 A 
ATOM     14 CL   UNL     1      -5.921  -0.663 127.481  0.00  0.00    +0.000 Cl
ENDBRANCH   1   8
BRANCH   1  16
ATOM     15  C   UNL     1      -9.234  -3.309 123.550  0.00  0.00    +0.000 C 
ATOM     16  N   UNL     1      -9.387  -2.121 124.361  0.00  0.00    +0.000 NA
ATOM     17  H   UNL     1     -10.230  -2.186 124.922  0.00  0.00    +0.000 HD
ENDBRANCH   1  16
TORSDOF 2
ENDMDL
MODEL 8
REMARK VINA RESULT:      -5.6      8.120     10.054
REMARK  Name = Esketamine
REMARK  3 active torsions:
REMARK  status: ('A' for Active; 'I' for Inactive)
REMARK    1  A    between atoms: C_1  and  N_2
REMARK    2  A    between atoms: N_2  and  C_3
REMARK    3  A    between atoms: C_3  and  C_10
REMARK                            x       y       z     vdW  Elec       q    Type
REMARK                         _______ _______ _______ _____ _____    ______ ____
ROOT
ATOM      1  C   UNL     1      -7.729   0.417 124.804  0.00  0.00    +0.000 C 
ATOM      2  C   UNL     1      -7.220   0.808 123.377  0.00  0.00    +0.000 C 
ATOM      3  C   UNL     1      -6.816   2.279 123.269  0.00  0.00    +0.000 C 
ATOM      4  C   UNL     1      -8.029   3.147 123.530  0.00  0.00    +0.000 C 
ATOM      5  C   UNL     1      -8.595   2.911 124.916  0.00  0.00    +0.000 C 
ATOM      6  C   UNL     1      -8.759   1.465 125.328  0.00  0.00    +0.000 C 
ATOM      7  O   UNL     1      -9.540   1.236 126.268  0.00  0.00    +0.000 OA
ENDROOT
BRANCH   1   8
ATOM      8  C   UNL     1      -8.232  -1.051 124.733  0.00  0.00    +0.000 A 
ATOM      9  C   UNL     1      -8.751  -1.499 123.490  0.00  0.00    +0.000 A 
ATOM     10  C   UNL     1      -9.176  -2.815 123.282  0.00  0.00    +0.000 A 
ATOM     11  C   UNL     1      -9.074  -3.744 124.305  0.00  0.00    +0.000 A 
ATOM     12  C   UNL     1      -8.620  -3.334 125.550  0.00  0.00    +0.000 A 
ATOM     13  C   UNL     1      -8.273  -1.994 125.789  0.00  0.00    +0.000 A 
ATOM     14 CL   UNL     1      -8.109  -1.652 127.480  0.00  0.00    +0.000 Cl
ENDBRANCH   1   8
BRANCH   1  16
ATOM     15  C   UNL     1      -5.389  -0.245 125.559  0.00  0.00    +0.000 C 
ATOM     16  N   UNL     1      -6.529   0.637 125.677  0.00  0.00    +0.000 NA
ATOM     17  H   UNL     1      -6.226   1.605 125.668  0.00  0.00    +0.000 HD
ENDBRANCH   1  16
TORSDOF 2
ENDMDL
MODEL 9
REMARK VINA RESULT:      -5.5      8.717      9.463
REMARK  Name = Esketamine
REMARK  3 active torsions:
REMARK  status: ('A' for Active; 'I' for Inactive)
REMARK    1  A    between atoms: C_1  and  N_2
REMARK    2  A    between atoms: N_2  and  C_3
REMARK    3  A    between atoms: C_3  and  C_10
REMARK                            x       y       z     vdW  Elec       q    Type
REMARK                         _______ _______ _______ _____ _____    ______ ____
ROOT
ATOM      1  C   UNL     1      -7.519  -0.757 124.653  0.00  0.00    +0.000 C 
ATOM      2  C   UNL     1      -6.080  -0.849 125.258  0.00  0.00    +0.000 C 
ATOM      3  C   UNL     1      -5.799  -2.193 125.931  0.00  0.00    +0.000 C 
ATOM      4  C   UNL     1      -6.751  -2.374 127.094  0.00  0.00    +0.000 C 
ATOM      5  C   UNL     1      -8.197  -2.365 126.637  0.00  0.00    +0.000 C 
ATOM      6  C   UNL     1      -8.582  -1.261 125.677  0.00  0.00    +0.000 C 
ATOM      7  O   UNL     1      -9.793  -1.002 125.579  0.00  0.00    +0.000 OA
ENDROOT
BRANCH   1   8
ATOM      8  C   UNL     1      -7.714   0.693 124.132  0.00  0.00    +0.000 A 
ATOM      9  C   UNL     1      -6.894   1.703 124.702  0.00  0.00    +0.000 A 
ATOM     10  C   UNL     1      -6.931   3.033 124.274  0.00  0.00    +0.000 A 
ATOM     11  C   UNL     1      -7.772   3.403 123.237  0.00  0.00    +0.000 A 
ATOM     12  C   UNL     1      -8.626   2.458 122.687  0.00  0.00    +0.000 A 
ATOM     13  C   UNL     1      -8.655   1.139 123.172  0.00  0.00    +0.000 A 
ATOM     14 CL   UNL     1     -10.040   0.265 122.605  0.00  0.00    +0.000 Cl
ENDBRANCH   1   8
BRANCH   1  16
ATOM     15  C   UNL     1      -6.525  -1.786 122.546  0.00  0.00    +0.000 C 
ATOM     16  N   UNL     1      -7.523  -1.819 123.593  0.00  0.00    +0.000 NA
ATOM     17  H   UNL     1      -7.583  -2.751 123.990  0.00  0.00    +0.000 HD
ENDBRANCH   1  16
TORSDOF 2
ENDMDL
