MODEL 1
REMARK VINA RESULT:      -7.5      0.000      0.000
REMARK  Name = Eslicarbazepine
REMARK  1 active torsions:
REMARK  status: ('A' for Active; 'I' for Inactive)
REMARK    1  A    between atoms: C_8  and  O_9
REMARK                            x       y       z     vdW  Elec       q    Type
REMARK                         _______ _______ _______ _____ _____    ______ ____
ROOT
ATOM      1  N   UNL     1      -4.790   4.707 126.266  0.00  0.00    +0.000 N 
ATOM      2  C   UNL     1      -5.767   4.754 125.321  0.00  0.00    +0.000 C 
ATOM      3  O   UNL     1      -6.373   5.823 125.189  0.00  0.00    +0.000 OA
ATOM      4  N   UNL     1      -5.996   3.628 124.521  0.00  0.00    +0.000 N 
ATOM      5  C   UNL     1      -6.055   2.249 124.982  0.00  0.00    +0.000 A 
ATOM      6  C   UNL     1      -6.814   1.217 124.367  0.00  0.00    +0.000 A 
ATOM      7  C   UNL     1      -7.772   1.346 123.204  0.00  0.00    +0.000 C 
ATOM      8  C   UNL     1      -8.210   2.747 122.822  0.00  0.00    +0.000 C 
ATOM      9  C   UNL     1      -7.018   3.447 122.240  0.00  0.00    +0.000 A 
ATOM     10  C   UNL     1      -5.992   3.863 123.099  0.00  0.00    +0.000 A 
ATOM     11  C   UNL     1      -4.884   4.530 122.540  0.00  0.00    +0.000 A 
ATOM     12  C   UNL     1      -4.778   4.739 121.161  0.00  0.00    +0.000 A 
ATOM     13  C   UNL     1      -5.792   4.312 120.317  0.00  0.00    +0.000 A 
ATOM     14  C   UNL     1      -6.905   3.675 120.853  0.00  0.00    +0.000 A 
ATOM     15  C   UNL     1      -6.757  -0.109 124.875  0.00  0.00    +0.000 A 
ATOM     16  C   UNL     1      -5.971  -0.446 125.964  0.00  0.00    +0.000 A 
ATOM     17  C   UNL     1      -5.246   0.547 126.585  0.00  0.00    +0.000 A 
ATOM     18  C   UNL     1      -5.321   1.861 126.120  0.00  0.00    +0.000 A 
ATOM     19  H   UNL     1      -4.614   5.598 126.716  0.00  0.00    +0.000 HD
ATOM     20  H   UNL     1      -3.955   4.177 126.061  0.00  0.00    +0.000 HD
ENDROOT
BRANCH   8  21
ATOM     21  O   UNL     1      -9.288   2.649 121.883  0.00  0.00    +0.000 OA
ATOM     22  H   UNL     1     -10.027   2.207 122.333  0.00  0.00    +0.000 HD
ENDBRANCH   8  21
TORSDOF 1
ENDMDL
MODEL 2
REMARK VINA RESULT:      -7.5      1.540      5.347
REMARK  Name = Eslicarbazepine
REMARK  1 active torsions:
REMARK  status: ('A' for Active; 'I' for Inactive)
REMARK    1  A    between atoms: C_8  and  O_9
REMARK                            x       y       z     vdW  Elec       q    Type
REMARK                         _______ _______ _______ _____ _____    ______ ____
ROOT
ATOM      1  N   UNL     1      -9.522   2.061 122.495  0.00  0.00    +0.000 N 
ATOM      2  C   UNL     1      -8.861   2.410 123.630  0.00  0.00    +0.000 C 
ATOM      3  O   UNL     1      -9.523   2.468 124.673  0.00  0.00    +0.000 OA
ATOM      4  N   UNL     1      -7.479   2.625 123.576  0.00  0.00    +0.000 N 
ATOM      5  C   UNL     1      -6.769   3.369 122.547  0.00  0.00    +0.000 A 
ATOM      6  C   UNL     1      -5.549   4.069 122.743  0.00  0.00    +0.000 A 
ATOM      7  C   UNL     1      -4.802   4.273 124.042  0.00  0.00    +0.000 C 
ATOM      8  C   UNL     1      -5.550   3.964 125.325  0.00  0.00    +0.000 C 
ATOM      9  C   UNL     1      -5.748   2.478 125.383  0.00  0.00    +0.000 A 
ATOM     10  C   UNL     1      -6.694   1.887 124.535  0.00  0.00    +0.000 A 
ATOM     11  C   UNL     1      -6.878   0.492 124.608  0.00  0.00    +0.000 A 
ATOM     12  C   UNL     1      -6.110  -0.299 125.469  0.00  0.00    +0.000 A 
ATOM     13  C   UNL     1      -5.165   0.292 126.294  0.00  0.00    +0.000 A 
ATOM     14  C   UNL     1      -4.989   1.669 126.255  0.00  0.00    +0.000 A 
ATOM     15  C   UNL     1      -4.916   4.721 121.650  0.00  0.00    +0.000 A 
ATOM     16  C   UNL     1      -5.449   4.697 120.372  0.00  0.00    +0.000 A 
ATOM     17  C   UNL     1      -6.643   4.041 120.168  0.00  0.00    +0.000 A 
ATOM     18  C   UNL     1      -7.294   3.427 121.240  0.00  0.00    +0.000 A 
ATOM     19  H   UNL     1     -10.493   1.811 122.647  0.00  0.00    +0.000 HD
ATOM     20  H   UNL     1      -9.044   1.472 121.828  0.00  0.00    +0.000 HD
ENDROOT
BRANCH   8  21
ATOM     21  O   UNL     1      -4.781   4.448 126.432  0.00  0.00    +0.000 OA
ATOM     22  H   UNL     1      -5.043   3.936 127.215  0.00  0.00    +0.000 HD
ENDBRANCH   8  21
TORSDOF 1
ENDMDL
MODEL 3
REMARK VINA RESULT:      -7.3      3.835      6.034
REMARK  Name = Eslicarbazepine
REMARK  1 active torsions:
REMARK  status: ('A' for Active; 'I' for Inactive)
REMARK    1  A    between atoms: C_8  and  O_9
REMARK                            x       y       z     vdW  Elec       q    Type
REMARK                         _______ _______ _______ _____ _____    ______ ____
ROOT
ATOM      1  N   UNL     1      -9.690  -3.264 123.677  0.00  0.00    +0.000 N 
ATOM      2  C   UNL     1      -8.628  -2.415 123.694  0.00  0.00    +0.000 C 
ATOM      3  O   UNL     1      -8.024  -2.245 122.629  0.00  0.00    +0.000 OA
ATOM      4  N   UNL     1      -8.310  -1.744 124.881  0.00  0.00    +0.000 N 
ATOM      5  C   UNL     1      -8.280  -2.330 126.213  0.00  0.00    +0.000 A 
ATOM      6  C   UNL     1      -7.454  -1.884 127.280  0.00  0.00    +0.000 A 
ATOM      7  C   UNL     1      -6.391  -0.810 127.235  0.00  0.00    +0.000 C 
ATOM      8  C   UNL     1      -5.934  -0.347 125.865  0.00  0.00    +0.000 C 
ATOM      9  C   UNL     1      -7.072   0.405 125.242  0.00  0.00    +0.000 A 
ATOM     10  C   UNL     1      -8.181  -0.312 124.773  0.00  0.00    +0.000 A 
ATOM     11  C   UNL     1      -9.238   0.405 124.180  0.00  0.00    +0.000 A 
ATOM     12  C   UNL     1      -9.213   1.802 124.095  0.00  0.00    +0.000 A 
ATOM     13  C   UNL     1      -8.119   2.505 124.574  0.00  0.00    +0.000 A 
ATOM     14  C   UNL     1      -7.055   1.812 125.139  0.00  0.00    +0.000 A 
ATOM     15  C   UNL     1      -7.544  -2.501 128.557  0.00  0.00    +0.000 A 
ATOM     16  C   UNL     1      -8.427  -3.537 128.812  0.00  0.00    +0.000 A 
ATOM     17  C   UNL     1      -9.219  -3.996 127.784  0.00  0.00    +0.000 A 
ATOM     18  C   UNL     1      -9.116  -3.424 126.513  0.00  0.00    +0.000 A 
ATOM     19  H   UNL     1      -9.918  -3.614 122.753  0.00  0.00    +0.000 HD
ATOM     20  H   UNL     1     -10.495  -3.030 124.240  0.00  0.00    +0.000 HD
ENDROOT
BRANCH   8  21
ATOM     21  O   UNL     1      -4.770   0.474 126.023  0.00  0.00    +0.000 OA
ATOM     22  H   UNL     1      -4.050   0.059 125.520  0.00  0.00    +0.000 HD
ENDBRANCH   8  21
TORSDOF 1
ENDMDL
MODEL 4
REMARK VINA RESULT:      -7.3      4.887      5.664
REMARK  Name = Eslicarbazepine
REMARK  1 active torsions:
REMARK  status: ('A' for Active; 'I' for Inactive)
REMARK    1  A    between atoms: C_8  and  O_9
REMARK                            x       y       z     vdW  Elec       q    Type
REMARK                         _______ _______ _______ _____ _____    ______ ____
ROOT
ATOM      1  N   UNL     1      -4.868  -0.797 127.951  0.00  0.00    +0.000 N 
ATOM      2  C   UNL     1      -5.630  -0.508 126.863  0.00  0.00    +0.000 C 
ATOM      3  O   UNL     1      -5.465   0.597 126.335  0.00  0.00    +0.000 OA
ATOM      4  N   UNL     1      -6.508  -1.480 126.369  0.00  0.00    +0.000 N 
ATOM      5  C   UNL     1      -7.386  -2.325 127.165  0.00  0.00    +0.000 A 
ATOM      6  C   UNL     1      -8.625  -2.859 126.720  0.00  0.00    +0.000 A 
ATOM      7  C   UNL     1      -9.325  -2.592 125.408  0.00  0.00    +0.000 C 
ATOM      8  C   UNL     1      -8.829  -1.418 124.585  0.00  0.00    +0.000 C 
ATOM      9  C   UNL     1      -7.466  -1.774 124.071  0.00  0.00    +0.000 A 
ATOM     10  C   UNL     1      -6.385  -1.775 124.963  0.00  0.00    +0.000 A 
ATOM     11  C   UNL     1      -5.108  -2.100 124.464  0.00  0.00    +0.000 A 
ATOM     12  C   UNL     1      -4.919  -2.458 123.125  0.00  0.00    +0.000 A 
ATOM     13  C   UNL     1      -5.997  -2.469 122.252  0.00  0.00    +0.000 A 
ATOM     14  C   UNL     1      -7.259  -2.125 122.721  0.00  0.00    +0.000 A 
ATOM     15  C   UNL     1      -9.377  -3.716 127.569  0.00  0.00    +0.000 A 
ATOM     16  C   UNL     1      -8.940  -4.064 128.836  0.00  0.00    +0.000 A 
ATOM     17  C   UNL     1      -7.752  -3.537 129.291  0.00  0.00    +0.000 A 
ATOM     18  C   UNL     1      -7.020  -2.664 128.483  0.00  0.00    +0.000 A 
ATOM     19  H   UNL     1      -4.180  -0.085 128.169  0.00  0.00    +0.000 HD
ATOM     20  H   UNL     1      -4.530  -1.743 128.058  0.00  0.00    +0.000 HD
ENDROOT
BRANCH   8  21
ATOM     21  O   UNL     1      -9.759  -1.176 123.523  0.00  0.00    +0.000 OA
ATOM     22  H   UNL     1      -9.409  -1.608 122.726  0.00  0.00    +0.000 HD
ENDBRANCH   8  21
TORSDOF 1
ENDMDL
MODEL 5
REMARK VINA RESULT:      -7.2      2.172      3.022
REMARK  Name = Eslicarbazepine
REMARK  1 active torsions:
REMARK  status: ('A' for Active; 'I' for Inactive)
REMARK    1  A    between atoms: C_8  and  O_9
REMARK                            x       y       z     vdW  Elec       q    Type
REMARK                         _______ _______ _______ _____ _____    ______ ____
ROOT
ATOM      1  N   UNL     1      -4.761   1.090 126.266  0.00  0.00    +0.000 N 
ATOM      2  C   UNL     1      -6.019   1.485 125.936  0.00  0.00    +0.000 C 
ATOM      3  O   UNL     1      -6.495   2.436 126.566  0.00  0.00    +0.000 OA
ATOM      4  N   UNL     1      -6.680   0.847 124.881  0.00  0.00    +0.000 N 
ATOM      5  C   UNL     1      -6.717  -0.588 124.637  0.00  0.00    +0.000 A 
ATOM      6  C   UNL     1      -7.776  -1.276 123.987  0.00  0.00    +0.000 A 
ATOM      7  C   UNL     1      -9.093  -0.705 123.513  0.00  0.00    +0.000 C 
ATOM      8  C   UNL     1      -9.476   0.669 124.030  0.00  0.00    +0.000 C 
ATOM      9  C   UNL     1      -8.537   1.660 123.407  0.00  0.00    +0.000 A 
ATOM     10  C   UNL     1      -7.212   1.716 123.861  0.00  0.00    +0.000 A 
ATOM     11  C   UNL     1      -6.345   2.659 123.275  0.00  0.00    +0.000 A 
ATOM     12  C   UNL     1      -6.771   3.494 122.237  0.00  0.00    +0.000 A 
ATOM     13  C   UNL     1      -8.081   3.423 121.784  0.00  0.00    +0.000 A 
ATOM     14  C   UNL     1      -8.957   2.517 122.368  0.00  0.00    +0.000 A 
ATOM     15  C   UNL     1      -7.682  -2.676 123.758  0.00  0.00    +0.000 A 
ATOM     16  C   UNL     1      -6.574  -3.411 124.147  0.00  0.00    +0.000 A 
ATOM     17  C   UNL     1      -5.549  -2.764 124.799  0.00  0.00    +0.000 A 
ATOM     18  C   UNL     1      -5.643  -1.396 125.063  0.00  0.00    +0.000 A 
ATOM     19  H   UNL     1      -4.315   1.680 126.959  0.00  0.00    +0.000 HD
ATOM     20  H   UNL     1      -4.146   0.790 125.523  0.00  0.00    +0.000 HD
ENDROOT
BRANCH   8  21
ATOM     21  O   UNL     1     -10.841   0.927 123.679  0.00  0.00    +0.000 OA
ATOM     22  H   UNL     1     -10.875   1.806 123.269  0.00  0.00    +0.000 HD
ENDBRANCH   8  21
TORSDOF 1
ENDMDL
MODEL 6
REMARK VINA RESULT:      -7.1      4.866      6.115
REMARK  Name = Eslicarbazepine
REMARK  1 active torsions:
REMARK  status: ('A' for Active; 'I' for Inactive)
REMARK    1  A    between atoms: C_8  and  O_9
REMARK                            x       y       z     vdW  Elec       q    Type
REMARK                         _______ _______ _______ _____ _____    ______ ____
ROOT
ATOM      1  N   UNL     1      -4.896   0.557 127.663  0.00  0.00    +0.000 N 
ATOM      2  C   UNL     1      -5.965   0.189 126.907  0.00  0.00    +0.000 C 
ATOM      3  O   UNL     1      -6.437   1.041 126.146  0.00  0.00    +0.000 OA
ATOM      4  N   UNL     1      -6.433  -1.128 126.984  0.00  0.00    +0.000 N 
ATOM      5  C   UNL     1      -6.617  -1.901 128.203  0.00  0.00    +0.000 A 
ATOM      6  C   UNL     1      -7.573  -2.938 128.374  0.00  0.00    +0.000 A 
ATOM      7  C   UNL     1      -8.638  -3.380 127.395  0.00  0.00    +0.000 C 
ATOM      8  C   UNL     1      -8.932  -2.454 126.230  0.00  0.00    +0.000 C 
ATOM      9  C   UNL     1      -7.737  -2.480 125.324  0.00  0.00    +0.000 A 
ATOM     10  C   UNL     1      -6.569  -1.816 125.724  0.00  0.00    +0.000 A 
ATOM     11  C   UNL     1      -5.458  -1.838 124.859  0.00  0.00    +0.000 A 
ATOM     12  C   UNL     1      -5.492  -2.538 123.647  0.00  0.00    +0.000 A 
ATOM     13  C   UNL     1      -6.647  -3.203 123.265  0.00  0.00    +0.000 A 
ATOM     14  C   UNL     1      -7.762  -3.170 124.094  0.00  0.00    +0.000 A 
ATOM     15  C   UNL     1      -7.629  -3.662 129.596  0.00  0.00    +0.000 A 
ATOM     16  C   UNL     1      -6.769  -3.396 130.647  0.00  0.00    +0.000 A 
ATOM     17  C   UNL     1      -5.851  -2.379 130.507  0.00  0.00    +0.000 A 
ATOM     18  C   UNL     1      -5.808  -1.635 129.327  0.00  0.00    +0.000 A 
ATOM     19  H   UNL     1      -4.552   1.489 127.459  0.00  0.00    +0.000 HD
ATOM     20  H   UNL     1      -4.169  -0.125 127.823  0.00  0.00    +0.000 HD
ENDROOT
BRANCH   8  21
ATOM     21  O   UNL     1     -10.118  -2.912 125.569  0.00  0.00    +0.000 OA
ATOM     22  H   UNL     1      -9.860  -3.212 124.682  0.00  0.00    +0.000 HD
ENDBRANCH   8  21
TORSDOF 1
ENDMDL
MODEL 7
REMARK VINA RESULT:      -7.0      2.922      5.477
REMARK  Name = Eslicarbazepine
REMARK  1 active torsions:
REMARK  status: ('A' for Active; 'I' for Inactive)
REMARK    1  A    between atoms: C_8  and  O_9
REMARK                            x       y       z     vdW  Elec       q    Type
REMARK                         _______ _______ _______ _____ _____    ______ ____
ROOT
ATOM      1  N   UNL     1      -9.250   1.502 122.873  0.00  0.00    +0.000 N 
ATOM      2  C   UNL     1      -8.801   0.553 123.737  0.00  0.00    +0.000 C 
ATOM      3  O   UNL     1      -9.595  -0.337 124.061  0.00  0.00    +0.000 OA
ATOM      4  N   UNL     1      -7.469   0.597 124.165  0.00  0.00    +0.000 N 
ATOM      5  C   UNL     1      -6.743   1.787 124.584  0.00  0.00    +0.000 A 
ATOM      6  C   UNL     1      -5.673   1.802 125.518  0.00  0.00    +0.000 A 
ATOM      7  C   UNL     1      -5.140   0.642 126.327  0.00  0.00    +0.000 C 
ATOM      8  C   UNL     1      -5.998  -0.608 126.392  0.00  0.00    +0.000 C 
ATOM      9  C   UNL     1      -5.986  -1.231 125.027  0.00  0.00    +0.000 A 
ATOM     10  C   UNL     1      -6.719  -0.623 123.999  0.00  0.00    +0.000 A 
ATOM     11  C   UNL     1      -6.709  -1.226 122.726  0.00  0.00    +0.000 A 
ATOM     12  C   UNL     1      -5.955  -2.377 122.471  0.00  0.00    +0.000 A 
ATOM     13  C   UNL     1      -5.221  -2.964 123.491  0.00  0.00    +0.000 A 
ATOM     14  C   UNL     1      -5.241  -2.398 124.760  0.00  0.00    +0.000 A 
ATOM     15  C   UNL     1      -5.002   3.020 125.815  0.00  0.00    +0.000 A 
ATOM     16  C   UNL     1      -5.354   4.217 125.214  0.00  0.00    +0.000 A 
ATOM     17  C   UNL     1      -6.404   4.225 124.324  0.00  0.00    +0.000 A 
ATOM     18  C   UNL     1      -7.096   3.043 124.050  0.00  0.00    +0.000 A 
ATOM     19  H   UNL     1     -10.186   1.327 122.525  0.00  0.00    +0.000 HD
ATOM     20  H   UNL     1      -8.609   1.851 122.175  0.00  0.00    +0.000 HD
ENDROOT
BRANCH   8  21
ATOM     21  O   UNL     1      -5.458  -1.483 127.388  0.00  0.00    +0.000 OA
ATOM     22  H   UNL     1      -5.480  -2.385 127.027  0.00  0.00    +0.000 HD
ENDBRANCH   8  21
TORSDOF 1
ENDMDL
MODEL 8
REMARK VINA RESULT:      -6.9      3.366      5.788
REMARK  Name = Eslicarbazepine
REMARK  1 active torsions:
REMARK  status: ('A' for Active; 'I' for Inactive)
REMARK    1  A    between atoms: C_8  and  O_9
REMARK                            x       y       z     vdW  Elec       q    Type
REMARK                         _______ _______ _______ _____ _____    ______ ____
ROOT
ATOM      1  N   UNL     1      -9.462   2.338 123.681  0.00  0.00    +0.000 N 
ATOM      2  C   UNL     1      -9.654   1.267 124.496  0.00  0.00    +0.000 C 
ATOM      3  O   UNL     1     -10.821   0.978 124.781  0.00  0.00    +0.000 OA
ATOM      4  N   UNL     1      -8.546   0.523 124.917  0.00  0.00    +0.000 N 
ATOM      5  C   UNL     1      -7.280   1.065 125.388  0.00  0.00    +0.000 A 
ATOM      6  C   UNL     1      -6.414   0.425 126.314  0.00  0.00    +0.000 A 
ATOM      7  C   UNL     1      -6.658  -0.865 127.064  0.00  0.00    +0.000 C 
ATOM      8  C   UNL     1      -8.078  -1.401 127.073  0.00  0.00    +0.000 C 
ATOM      9  C   UNL     1      -8.394  -1.860 125.681  0.00  0.00    +0.000 A 
ATOM     10  C   UNL     1      -8.625  -0.899 124.687  0.00  0.00    +0.000 A 
ATOM     11  C   UNL     1      -8.932  -1.343 123.387  0.00  0.00    +0.000 A 
ATOM     12  C   UNL     1      -8.965  -2.706 123.072  0.00  0.00    +0.000 A 
ATOM     13  C   UNL     1      -8.722  -3.651 124.057  0.00  0.00    +0.000 A 
ATOM     14  C   UNL     1      -8.443  -3.230 125.352  0.00  0.00    +0.000 A 
ATOM     15  C   UNL     1      -5.175   1.026 126.665  0.00  0.00    +0.000 A 
ATOM     16  C   UNL     1      -4.766   2.234 126.126  0.00  0.00    +0.000 A 
ATOM     17  C   UNL     1      -5.603   2.879 125.243  0.00  0.00    +0.000 A 
ATOM     18  C   UNL     1      -6.840   2.318 124.917  0.00  0.00    +0.000 A 
ATOM     19  H   UNL     1     -10.322   2.745 123.331  0.00  0.00    +0.000 HD
ATOM     20  H   UNL     1      -8.721   2.288 122.996  0.00  0.00    +0.000 HD
ENDROOT
BRANCH   8  21
ATOM     21  O   UNL     1      -8.157  -2.470 128.024  0.00  0.00    +0.000 OA
ATOM     22  H   UNL     1      -8.413  -2.083 128.877  0.00  0.00    +0.000 HD
ENDBRANCH   8  21
TORSDOF 1
ENDMDL
MODEL 9
REMARK VINA RESULT:      -6.8      3.355      4.944
REMARK  Name = Eslicarbazepine
REMARK  1 active torsions:
REMARK  status: ('A' for Active; 'I' for Inactive)
REMARK    1  A    between atoms: C_8  and  O_9
REMARK                            x       y       z     vdW  Elec       q    Type
REMARK                         _______ _______ _______ _____ _____    ______ ____
ROOT
ATOM      1  N   UNL     1      -7.172  -2.257 128.108  0.00  0.00    +0.000 N 
ATOM      2  C   UNL     1      -7.559  -0.987 127.815  0.00  0.00    +0.000 C 
ATOM      3  O   UNL     1      -7.791  -0.235 128.768  0.00  0.00    +0.000 OA
ATOM      4  N   UNL     1      -7.619  -0.584 126.476  0.00  0.00    +0.000 N 
ATOM      5  C   UNL     1      -8.177  -1.354 125.374  0.00  0.00    +0.000 A 
ATOM      6  C   UNL     1      -8.759  -0.798 124.204  0.00  0.00    +0.000 A 
ATOM      7  C   UNL     1      -9.009   0.662 123.905  0.00  0.00    +0.000 C 
ATOM      8  C   UNL     1      -8.911   1.633 125.067  0.00  0.00    +0.000 C 
ATOM      9  C   UNL     1      -7.468   1.707 125.469  0.00  0.00    +0.000 A 
ATOM     10  C   UNL     1      -6.900   0.624 126.155  0.00  0.00    +0.000 A 
ATOM     11  C   UNL     1      -5.547   0.712 126.538  0.00  0.00    +0.000 A 
ATOM     12  C   UNL     1      -4.768   1.825 126.208  0.00  0.00    +0.000 A 
ATOM     13  C   UNL     1      -5.333   2.886 125.516  0.00  0.00    +0.000 A 
ATOM     14  C   UNL     1      -6.674   2.829 125.154  0.00  0.00    +0.000 A 
ATOM     15  C   UNL     1      -9.228  -1.650 123.167  0.00  0.00    +0.000 A 
ATOM     16  C   UNL     1      -9.133  -3.029 123.250  0.00  0.00    +0.000 A 
ATOM     17  C   UNL     1      -8.592  -3.585 124.387  0.00  0.00    +0.000 A 
ATOM     18  C   UNL     1      -8.161  -2.763 125.430  0.00  0.00    +0.000 A 
ATOM     19  H   UNL     1      -7.043  -2.428 129.099  0.00  0.00    +0.000 HD
ATOM     20  H   UNL     1      -6.472  -2.688 127.521  0.00  0.00    +0.000 HD
ENDROOT
BRANCH   8  21
ATOM     21  O   UNL     1      -9.418   2.905 124.645  0.00  0.00    +0.000 OA
ATOM     22  H   UNL     1     -10.383   2.825 124.575  0.00  0.00    +0.000 HD
ENDBRANCH   8  21
TORSDOF 1
ENDMDL
