MODEL 1
REMARK VINA RESULT:      -7.8      0.000      0.000
REMARK  Name = Eslicarbazepine acetate
REMARK  3 active torsions:
REMARK  status: ('A' for Active; 'I' for Inactive)
REMARK    1  A    between atoms: C_1  and  C_2
REMARK    2  A    between atoms: C_2  and  O_4
REMARK    3  A    between atoms: O_4  and  C_5
REMARK                            x       y       z     vdW  Elec       q    Type
REMARK                         _______ _______ _______ _____ _____    ______ ____
ROOT
ATOM      1  C   UNL     1      -8.504  -1.351 124.379  0.00  0.00    +0.000 C 
ATOM      2  C   UNL     1      -9.209  -2.319 125.342  0.00  0.00    +0.000 C 
ATOM      3  C   UNL     1      -8.563  -2.729 126.639  0.00  0.00    +0.000 A 
ATOM      4  C   UNL     1      -9.345  -3.600 127.433  0.00  0.00    +0.000 A 
ATOM      5  C   UNL     1      -8.913  -4.032 128.680  0.00  0.00    +0.000 A 
ATOM      6  C   UNL     1      -7.685  -3.600 129.157  0.00  0.00    +0.000 A 
ATOM      7  C   UNL     1      -6.894  -2.746 128.382  0.00  0.00    +0.000 A 
ATOM      8  C   UNL     1      -7.310  -2.305 127.110  0.00  0.00    +0.000 A 
ATOM      9  N   UNL     1      -6.426  -1.474 126.347  0.00  0.00    +0.000 N 
ATOM     10  C   UNL     1      -5.828  -0.356 126.929  0.00  0.00    +0.000 C 
ATOM     11  N   UNL     1      -4.997   0.381 126.140  0.00  0.00    +0.000 N 
ATOM     12  O   UNL     1      -6.048   0.064 128.065  0.00  0.00    +0.000 OA
ATOM     13  C   UNL     1      -6.142  -1.928 125.028  0.00  0.00    +0.000 A 
ATOM     14  C   UNL     1      -4.878  -2.468 124.729  0.00  0.00    +0.000 A 
ATOM     15  C   UNL     1      -4.578  -2.903 123.436  0.00  0.00    +0.000 A 
ATOM     16  C   UNL     1      -5.517  -2.762 122.425  0.00  0.00    +0.000 A 
ATOM     17  C   UNL     1      -6.756  -2.202 122.712  0.00  0.00    +0.000 A 
ATOM     18  C   UNL     1      -7.110  -1.823 124.018  0.00  0.00    +0.000 A 
ATOM     19  H   UNL     1      -4.792   0.157 125.179  0.00  0.00    +0.000 HD
ATOM     20  H   UNL     1      -4.637   1.240 126.532  0.00  0.00    +0.000 HD
ENDROOT
BRANCH   1  21
ATOM     21  O   UNL     1      -9.347  -1.069 123.218  0.00  0.00    +0.000 OA
BRANCH  21  23
ATOM     22  C   UNL     1      -8.974   1.234 123.619  0.00  0.00    +0.000 C 
ATOM     23  C   UNL     1      -9.875   0.178 123.081  0.00  0.00    +0.000 C 
ATOM     24  O   UNL     1     -10.928   0.461 122.516  0.00  0.00    +0.000 OA
ENDBRANCH  21  23
ENDBRANCH   1  21
TORSDOF 2
ENDMDL
MODEL 2
REMARK VINA RESULT:      -7.4      2.225      5.375
REMARK  Name = Eslicarbazepine acetate
REMARK  3 active torsions:
REMARK  status: ('A' for Active; 'I' for Inactive)
REMARK    1  A    between atoms: C_1  and  C_2
REMARK    2  A    between atoms: C_2  and  O_4
REMARK    3  A    between atoms: O_4  and  C_5
REMARK                            x       y       z     vdW  Elec       q    Type
REMARK                         _______ _______ _______ _____ _____    ______ ____
ROOT
ATOM      1  C   UNL     1      -6.747  -1.017 126.355  0.00  0.00    +0.000 C 
ATOM      2  C   UNL     1      -6.104   0.374 126.470  0.00  0.00    +0.000 C 
ATOM      3  C   UNL     1      -6.229   1.380 125.355  0.00  0.00    +0.000 A 
ATOM      4  C   UNL     1      -5.613   2.625 125.617  0.00  0.00    +0.000 A 
ATOM      5  C   UNL     1      -5.679   3.675 124.712  0.00  0.00    +0.000 A 
ATOM      6  C   UNL     1      -6.366   3.497 123.520  0.00  0.00    +0.000 A 
ATOM      7  C   UNL     1      -6.975   2.270 123.240  0.00  0.00    +0.000 A 
ATOM      8  C   UNL     1      -6.909   1.189 124.141  0.00  0.00    +0.000 A 
ATOM      9  N   UNL     1      -7.510  -0.056 123.767  0.00  0.00    +0.000 N 
ATOM     10  C   UNL     1      -8.813  -0.092 123.267  0.00  0.00    +0.000 C 
ATOM     11  N   UNL     1      -9.311  -1.315 122.930  0.00  0.00    +0.000 N 
ATOM     12  O   UNL     1      -9.574   0.871 123.183  0.00  0.00    +0.000 OA
ATOM     13  C   UNL     1      -6.661  -1.197 123.847  0.00  0.00    +0.000 A 
ATOM     14  C   UNL     1      -6.177  -1.794 122.669  0.00  0.00    +0.000 A 
ATOM     15  C   UNL     1      -5.355  -2.923 122.730  0.00  0.00    +0.000 A 
ATOM     16  C   UNL     1      -5.049  -3.487 123.959  0.00  0.00    +0.000 A 
ATOM     17  C   UNL     1      -5.549  -2.915 125.122  0.00  0.00    +0.000 A 
ATOM     18  C   UNL     1      -6.317  -1.739 125.094  0.00  0.00    +0.000 A 
ATOM     19  H   UNL     1      -8.792  -2.175 123.013  0.00  0.00    +0.000 HD
ATOM     20  H   UNL     1     -10.283  -1.353 122.656  0.00  0.00    +0.000 HD
ENDROOT
BRANCH   1  21
ATOM     21  O   UNL     1      -6.528  -1.791 127.576  0.00  0.00    +0.000 OA
BRANCH  21  23
ATOM     22  C   UNL     1      -8.423  -3.193 127.798  0.00  0.00    +0.000 C 
ATOM     23  C   UNL     1      -7.600  -2.088 128.361  0.00  0.00    +0.000 C 
ATOM     24  O   UNL     1      -7.858  -1.590 129.454  0.00  0.00    +0.000 OA
ENDBRANCH  21  23
ENDBRANCH   1  21
TORSDOF 2
ENDMDL
MODEL 3
REMARK VINA RESULT:      -7.2      2.547      5.442
REMARK  Name = Eslicarbazepine acetate
REMARK  3 active torsions:
REMARK  status: ('A' for Active; 'I' for Inactive)
REMARK    1  A    between atoms: C_1  and  C_2
REMARK    2  A    between atoms: C_2  and  O_4
REMARK    3  A    between atoms: O_4  and  C_5
REMARK                            x       y       z     vdW  Elec       q    Type
REMARK                         _______ _______ _______ _____ _____    ______ ____
ROOT
ATOM      1  C   UNL     1      -6.499  -0.820 126.899  0.00  0.00    +0.000 C 
ATOM      2  C   UNL     1      -5.407   0.230 127.156  0.00  0.00    +0.000 C 
ATOM      3  C   UNL     1      -5.353   1.504 126.354  0.00  0.00    +0.000 A 
ATOM      4  C   UNL     1      -4.312   2.386 126.724  0.00  0.00    +0.000 A 
ATOM      5  C   UNL     1      -4.155   3.624 126.114  0.00  0.00    +0.000 A 
ATOM      6  C   UNL     1      -5.040   4.002 125.117  0.00  0.00    +0.000 A 
ATOM      7  C   UNL     1      -6.071   3.140 124.731  0.00  0.00    +0.000 A 
ATOM      8  C   UNL     1      -6.240   1.875 125.330  0.00  0.00    +0.000 A 
ATOM      9  N   UNL     1      -7.284   1.021 124.849  0.00  0.00    +0.000 N 
ATOM     10  C   UNL     1      -8.581   1.510 124.686  0.00  0.00    +0.000 C 
ATOM     11  N   UNL     1      -9.517   0.635 124.220  0.00  0.00    +0.000 N 
ATOM     12  O   UNL     1      -8.967   2.635 125.002  0.00  0.00    +0.000 OA
ATOM     13  C   UNL     1      -6.878  -0.290 124.468  0.00  0.00    +0.000 A 
ATOM     14  C   UNL     1      -6.823  -0.639 123.107  0.00  0.00    +0.000 A 
ATOM     15  C   UNL     1      -6.442  -1.926 122.717  0.00  0.00    +0.000 A 
ATOM     16  C   UNL     1      -6.158  -2.883 123.680  0.00  0.00    +0.000 A 
ATOM     17  C   UNL     1      -6.240  -2.548 125.026  0.00  0.00    +0.000 A 
ATOM     18  C   UNL     1      -6.550  -1.243 125.444  0.00  0.00    +0.000 A 
ATOM     19  H   UNL     1      -9.319  -0.324 123.984  0.00  0.00    +0.000 HD
ATOM     20  H   UNL     1     -10.473   0.962 124.190  0.00  0.00    +0.000 HD
ENDROOT
BRANCH   1  21
ATOM     21  O   UNL     1      -6.371  -1.940 127.830  0.00  0.00    +0.000 OA
BRANCH  21  23
ATOM     22  C   UNL     1      -8.283  -3.289 128.189  0.00  0.00    +0.000 C 
ATOM     23  C   UNL     1      -7.398  -2.199 128.685  0.00  0.00    +0.000 C 
ATOM     24  O   UNL     1      -7.574  -1.682 129.785  0.00  0.00    +0.000 OA
ENDBRANCH  21  23
ENDBRANCH   1  21
TORSDOF 2
ENDMDL
MODEL 4
REMARK VINA RESULT:      -7.2      2.743      6.200
REMARK  Name = Eslicarbazepine acetate
REMARK  3 active torsions:
REMARK  status: ('A' for Active; 'I' for Inactive)
REMARK    1  A    between atoms: C_1  and  C_2
REMARK    2  A    between atoms: C_2  and  O_4
REMARK    3  A    between atoms: O_4  and  C_5
REMARK                            x       y       z     vdW  Elec       q    Type
REMARK                         _______ _______ _______ _____ _____    ______ ____
ROOT
ATOM      1  C   UNL     1      -7.344  -2.548 129.556  0.00  0.00    +0.000 C 
ATOM      2  C   UNL     1      -8.236  -3.221 128.500  0.00  0.00    +0.000 C 
ATOM      3  C   UNL     1      -8.356  -2.649 127.111  0.00  0.00    +0.000 A 
ATOM      4  C   UNL     1      -9.187  -3.393 126.242  0.00  0.00    +0.000 A 
ATOM      5  C   UNL     1      -9.364  -3.027 124.914  0.00  0.00    +0.000 A 
ATOM      6  C   UNL     1      -8.712  -1.903 124.431  0.00  0.00    +0.000 A 
ATOM      7  C   UNL     1      -7.893  -1.150 125.278  0.00  0.00    +0.000 A 
ATOM      8  C   UNL     1      -7.709  -1.499 126.631  0.00  0.00    +0.000 A 
ATOM      9  N   UNL     1      -6.900  -0.652 127.456  0.00  0.00    +0.000 N 
ATOM     10  C   UNL     1      -5.639  -0.239 127.024  0.00  0.00    +0.000 C 
ATOM     11  N   UNL     1      -4.932   0.569 127.864  0.00  0.00    +0.000 N 
ATOM     12  O   UNL     1      -5.081  -0.606 125.990  0.00  0.00    +0.000 OA
ATOM     13  C   UNL     1      -7.511  -0.203 128.661  0.00  0.00    +0.000 A 
ATOM     14  C   UNL     1      -7.926   1.136 128.779  0.00  0.00    +0.000 A 
ATOM     15  C   UNL     1      -8.513   1.597 129.960  0.00  0.00    +0.000 A 
ATOM     16  C   UNL     1      -8.649   0.741 131.043  0.00  0.00    +0.000 A 
ATOM     17  C   UNL     1      -8.213  -0.574 130.938  0.00  0.00    +0.000 A 
ATOM     18  C   UNL     1      -7.686  -1.083 129.739  0.00  0.00    +0.000 A 
ATOM     19  H   UNL     1      -5.273   0.882 128.759  0.00  0.00    +0.000 HD
ATOM     20  H   UNL     1      -3.985   0.793 127.594  0.00  0.00    +0.000 HD
ENDROOT
BRANCH   1  21
ATOM     21  O   UNL     1      -7.354  -3.311 130.804  0.00  0.00    +0.000 OA
BRANCH  21  23
ATOM     22  C   UNL     1      -5.600  -4.899 130.721  0.00  0.00    +0.000 C 
ATOM     23  C   UNL     1      -6.164  -3.676 131.355  0.00  0.00    +0.000 C 
ATOM     24  O   UNL     1      -5.545  -3.058 132.218  0.00  0.00    +0.000 OA
ENDBRANCH  21  23
ENDBRANCH   1  21
TORSDOF 2
ENDMDL
MODEL 5
REMARK VINA RESULT:      -7.0      2.237      4.322
REMARK  Name = Eslicarbazepine acetate
REMARK  3 active torsions:
REMARK  status: ('A' for Active; 'I' for Inactive)
REMARK    1  A    between atoms: C_1  and  C_2
REMARK    2  A    between atoms: C_2  and  O_4
REMARK    3  A    between atoms: O_4  and  C_5
REMARK                            x       y       z     vdW  Elec       q    Type
REMARK                         _______ _______ _______ _____ _____    ______ ____
ROOT
ATOM      1  C   UNL     1      -6.848   0.859 125.797  0.00  0.00    +0.000 C 
ATOM      2  C   UNL     1      -7.318   0.120 127.060  0.00  0.00    +0.000 C 
ATOM      3  C   UNL     1      -7.780  -1.312 126.993  0.00  0.00    +0.000 A 
ATOM      4  C   UNL     1      -8.152  -1.867 128.238  0.00  0.00    +0.000 A 
ATOM      5  C   UNL     1      -8.555  -3.190 128.355  0.00  0.00    +0.000 A 
ATOM      6  C   UNL     1      -8.595  -3.986 127.220  0.00  0.00    +0.000 A 
ATOM      7  C   UNL     1      -8.238  -3.453 125.977  0.00  0.00    +0.000 A 
ATOM      8  C   UNL     1      -7.838  -2.109 125.837  0.00  0.00    +0.000 A 
ATOM      9  N   UNL     1      -7.537  -1.614 124.527  0.00  0.00    +0.000 N 
ATOM     10  C   UNL     1      -6.688  -2.325 123.678  0.00  0.00    +0.000 C 
ATOM     11  N   UNL     1      -6.456  -1.790 122.447  0.00  0.00    +0.000 N 
ATOM     12  O   UNL     1      -6.071  -3.347 123.976  0.00  0.00    +0.000 OA
ATOM     13  C   UNL     1      -8.235  -0.433 124.143  0.00  0.00    +0.000 A 
ATOM     14  C   UNL     1      -9.270  -0.508 123.194  0.00  0.00    +0.000 A 
ATOM     15  C   UNL     1      -9.954   0.644 122.794  0.00  0.00    +0.000 A 
ATOM     16  C   UNL     1      -9.580   1.879 123.302  0.00  0.00    +0.000 A 
ATOM     17  C   UNL     1      -8.538   1.958 124.218  0.00  0.00    +0.000 A 
ATOM     18  C   UNL     1      -7.883   0.809 124.691  0.00  0.00    +0.000 A 
ATOM     19  H   UNL     1      -6.866  -0.928 122.123  0.00  0.00    +0.000 HD
ATOM     20  H   UNL     1      -5.771  -2.255 121.868  0.00  0.00    +0.000 HD
ENDROOT
BRANCH   1  21
ATOM     21  O   UNL     1      -6.405   2.215 126.125  0.00  0.00    +0.000 OA
BRANCH  21  23
ATOM     22  C   UNL     1      -4.960   3.870 125.245  0.00  0.00    +0.000 C 
ATOM     23  C   UNL     1      -5.103   2.546 125.909  0.00  0.00    +0.000 C 
ATOM     24  O   UNL     1      -4.122   1.903 126.273  0.00  0.00    +0.000 OA
ENDBRANCH  21  23
ENDBRANCH   1  21
TORSDOF 2
ENDMDL
MODEL 6
REMARK VINA RESULT:      -6.7      7.518      9.994
REMARK  Name = Eslicarbazepine acetate
REMARK  3 active torsions:
REMARK  status: ('A' for Active; 'I' for Inactive)
REMARK    1  A    between atoms: C_1  and  C_2
REMARK    2  A    between atoms: C_2  and  O_4
REMARK    3  A    between atoms: O_4  and  C_5
REMARK                            x       y       z     vdW  Elec       q    Type
REMARK                         _______ _______ _______ _____ _____    ______ ____
ROOT
ATOM      1  C   UNL     1      -8.013   6.221 130.975  0.00  0.00    +0.000 C 
ATOM      2  C   UNL     1      -6.719   7.038 131.125  0.00  0.00    +0.000 C 
ATOM      3  C   UNL     1      -5.369   6.380 131.005  0.00  0.00    +0.000 A 
ATOM      4  C   UNL     1      -4.273   7.263 131.135  0.00  0.00    +0.000 A 
ATOM      5  C   UNL     1      -2.963   6.822 131.002  0.00  0.00    +0.000 A 
ATOM      6  C   UNL     1      -2.726   5.482 130.736  0.00  0.00    +0.000 A 
ATOM      7  C   UNL     1      -3.797   4.592 130.613  0.00  0.00    +0.000 A 
ATOM      8  C   UNL     1      -5.133   5.018 130.756  0.00  0.00    +0.000 A 
ATOM      9  N   UNL     1      -6.178   4.043 130.670  0.00  0.00    +0.000 N 
ATOM     10  C   UNL     1      -6.211   3.130 129.615  0.00  0.00    +0.000 C 
ATOM     11  N   UNL     1      -7.235   2.231 129.607  0.00  0.00    +0.000 N 
ATOM     12  O   UNL     1      -5.442   3.119 128.654  0.00  0.00    +0.000 OA
ATOM     13  C   UNL     1      -7.087   4.019 131.766  0.00  0.00    +0.000 A 
ATOM     14  C   UNL     1      -7.037   2.965 132.696  0.00  0.00    +0.000 A 
ATOM     15  C   UNL     1      -7.932   2.919 133.768  0.00  0.00    +0.000 A 
ATOM     16  C   UNL     1      -8.909   3.896 133.894  0.00  0.00    +0.000 A 
ATOM     17  C   UNL     1      -8.978   4.922 132.960  0.00  0.00    +0.000 A 
ATOM     18  C   UNL     1      -8.046   5.032 131.914  0.00  0.00    +0.000 A 
ATOM     19  H   UNL     1      -7.950   2.190 130.316  0.00  0.00    +0.000 HD
ATOM     20  H   UNL     1      -7.311   1.631 128.797  0.00  0.00    +0.000 HD
ENDROOT
BRANCH   1  21
ATOM     21  O   UNL     1      -9.187   7.086 131.083  0.00  0.00    +0.000 OA
BRANCH  21  23
ATOM     22  C   UNL     1     -11.230   6.520 130.031  0.00  0.00    +0.000 C 
ATOM     23  C   UNL     1      -9.955   7.285 129.977  0.00  0.00    +0.000 C 
ATOM     24  O   UNL     1      -9.710   8.057 129.054  0.00  0.00    +0.000 OA
ENDBRANCH  21  23
ENDBRANCH   1  21
TORSDOF 2
ENDMDL
MODEL 7
REMARK VINA RESULT:      -6.7      2.880      4.278
REMARK  Name = Eslicarbazepine acetate
REMARK  3 active torsions:
REMARK  status: ('A' for Active; 'I' for Inactive)
REMARK    1  A    between atoms: C_1  and  C_2
REMARK    2  A    between atoms: C_2  and  O_4
REMARK    3  A    between atoms: O_4  and  C_5
REMARK                            x       y       z     vdW  Elec       q    Type
REMARK                         _______ _______ _______ _____ _____    ______ ____
ROOT
ATOM      1  C   UNL     1      -7.844  -0.005 126.251  0.00  0.00    +0.000 C 
ATOM      2  C   UNL     1      -8.525   1.127 127.037  0.00  0.00    +0.000 C 
ATOM      3  C   UNL     1      -8.229   1.341 128.499  0.00  0.00    +0.000 A 
ATOM      4  C   UNL     1      -8.906   2.439 129.079  0.00  0.00    +0.000 A 
ATOM      5  C   UNL     1      -8.705   2.800 130.404  0.00  0.00    +0.000 A 
ATOM      6  C   UNL     1      -7.820   2.064 131.178  0.00  0.00    +0.000 A 
ATOM      7  C   UNL     1      -7.149   0.969 130.624  0.00  0.00    +0.000 A 
ATOM      8  C   UNL     1      -7.347   0.581 129.284  0.00  0.00    +0.000 A 
ATOM      9  N   UNL     1      -6.667  -0.582 128.798  0.00  0.00    +0.000 N 
ATOM     10  C   UNL     1      -5.298  -0.744 129.012  0.00  0.00    +0.000 C 
ATOM     11  N   UNL     1      -4.726  -1.879 128.522  0.00  0.00    +0.000 N 
ATOM     12  O   UNL     1      -4.552   0.086 129.533  0.00  0.00    +0.000 OA
ATOM     13  C   UNL     1      -7.496  -1.569 128.191  0.00  0.00    +0.000 A 
ATOM     14  C   UNL     1      -7.759  -2.775 128.866  0.00  0.00    +0.000 A 
ATOM     15  C   UNL     1      -8.557  -3.760 128.277  0.00  0.00    +0.000 A 
ATOM     16  C   UNL     1      -9.058  -3.568 126.999  0.00  0.00    +0.000 A 
ATOM     17  C   UNL     1      -8.776  -2.389 126.319  0.00  0.00    +0.000 A 
ATOM     18  C   UNL     1      -8.037  -1.353 126.915  0.00  0.00    +0.000 A 
ATOM     19  H   UNL     1      -5.234  -2.596 128.030  0.00  0.00    +0.000 HD
ATOM     20  H   UNL     1      -3.720  -1.953 128.596  0.00  0.00    +0.000 HD
ENDROOT
BRANCH   1  21
ATOM     21  O   UNL     1      -8.254   0.021 124.847  0.00  0.00    +0.000 OA
BRANCH  21  23
ATOM     22  C   UNL     1      -6.819  -0.862 123.184  0.00  0.00    +0.000 C 
ATOM     23  C   UNL     1      -7.327   0.339 123.903  0.00  0.00    +0.000 C 
ATOM     24  O   UNL     1      -6.976   1.471 123.584  0.00  0.00    +0.000 OA
ENDBRANCH  21  23
ENDBRANCH   1  21
TORSDOF 2
ENDMDL
MODEL 8
REMARK VINA RESULT:      -6.6      7.288      9.372
REMARK  Name = Eslicarbazepine acetate
REMARK  3 active torsions:
REMARK  status: ('A' for Active; 'I' for Inactive)
REMARK    1  A    between atoms: C_1  and  C_2
REMARK    2  A    between atoms: C_2  and  O_4
REMARK    3  A    between atoms: O_4  and  C_5
REMARK                            x       y       z     vdW  Elec       q    Type
REMARK                         _______ _______ _______ _____ _____    ______ ____
ROOT
ATOM      1  C   UNL     1      -7.686   4.270 129.807  0.00  0.00    +0.000 C 
ATOM      2  C   UNL     1      -8.802   5.127 129.188  0.00  0.00    +0.000 C 
ATOM      3  C   UNL     1      -9.917   5.677 130.038  0.00  0.00    +0.000 A 
ATOM      4  C   UNL     1     -10.852   6.472 129.335  0.00  0.00    +0.000 A 
ATOM      5  C   UNL     1     -11.913   7.091 129.982  0.00  0.00    +0.000 A 
ATOM      6  C   UNL     1     -12.059   6.925 131.351  0.00  0.00    +0.000 A 
ATOM      7  C   UNL     1     -11.149   6.135 132.062  0.00  0.00    +0.000 A 
ATOM      8  C   UNL     1     -10.073   5.489 131.421  0.00  0.00    +0.000 A 
ATOM      9  N   UNL     1      -9.211   4.652 132.201  0.00  0.00    +0.000 N 
ATOM     10  C   UNL     1      -8.679   5.111 133.406  0.00  0.00    +0.000 C 
ATOM     11  N   UNL     1      -7.871   4.254 134.091  0.00  0.00    +0.000 N 
ATOM     12  O   UNL     1      -8.812   6.247 133.861  0.00  0.00    +0.000 OA
ATOM     13  C   UNL     1      -9.033   3.327 131.710  0.00  0.00    +0.000 A 
ATOM     14  C   UNL     1      -9.644   2.247 132.373  0.00  0.00    +0.000 A 
ATOM     15  C   UNL     1      -9.467   0.939 131.914  0.00  0.00    +0.000 A 
ATOM     16  C   UNL     1      -8.647   0.696 130.822  0.00  0.00    +0.000 A 
ATOM     17  C   UNL     1      -8.021   1.759 130.183  0.00  0.00    +0.000 A 
ATOM     18  C   UNL     1      -8.239   3.089 130.579  0.00  0.00    +0.000 A 
ATOM     19  H   UNL     1      -7.651   3.321 133.780  0.00  0.00    +0.000 HD
ATOM     20  H   UNL     1      -7.413   4.617 134.916  0.00  0.00    +0.000 HD
ENDROOT
BRANCH   1  21
ATOM     21  O   UNL     1      -6.698   3.897 128.795  0.00  0.00    +0.000 OA
BRANCH  21  23
ATOM     22  C   UNL     1      -4.432   3.367 129.227  0.00  0.00    +0.000 C 
ATOM     23  C   UNL     1      -5.440   4.408 128.890  0.00  0.00    +0.000 C 
ATOM     24  O   UNL     1      -5.110   5.568 128.656  0.00  0.00    +0.000 OA
ENDBRANCH  21  23
ENDBRANCH   1  21
TORSDOF 2
ENDMDL
MODEL 9
REMARK VINA RESULT:      -6.6      7.270      9.076
REMARK  Name = Eslicarbazepine acetate
REMARK  3 active torsions:
REMARK  status: ('A' for Active; 'I' for Inactive)
REMARK    1  A    between atoms: C_1  and  C_2
REMARK    2  A    between atoms: C_2  and  O_4
REMARK    3  A    between atoms: O_4  and  C_5
REMARK                            x       y       z     vdW  Elec       q    Type
REMARK                         _______ _______ _______ _____ _____    ______ ____
ROOT
ATOM      1  C   UNL     1      -8.653   5.843 130.252  0.00  0.00    +0.000 C 
ATOM      2  C   UNL     1      -8.581   4.740 129.185  0.00  0.00    +0.000 C 
ATOM      3  C   UNL     1      -8.354   3.302 129.572  0.00  0.00    +0.000 A 
ATOM      4  C   UNL     1      -8.342   2.397 128.485  0.00  0.00    +0.000 A 
ATOM      5  C   UNL     1      -8.192   1.030 128.677  0.00  0.00    +0.000 A 
ATOM      6  C   UNL     1      -8.049   0.541 129.967  0.00  0.00    +0.000 A 
ATOM      7  C   UNL     1      -8.050   1.421 131.054  0.00  0.00    +0.000 A 
ATOM      8  C   UNL     1      -8.189   2.813 130.878  0.00  0.00    +0.000 A 
ATOM      9  N   UNL     1      -8.128   3.661 132.031  0.00  0.00    +0.000 N 
ATOM     10  C   UNL     1      -8.887   3.370 133.165  0.00  0.00    +0.000 C 
ATOM     11  N   UNL     1      -8.770   4.223 134.222  0.00  0.00    +0.000 N 
ATOM     12  O   UNL     1      -9.711   2.460 133.262  0.00  0.00    +0.000 OA
ATOM     13  C   UNL     1      -7.184   4.725 131.961  0.00  0.00    +0.000 A 
ATOM     14  C   UNL     1      -6.001   4.663 132.719  0.00  0.00    +0.000 A 
ATOM     15  C   UNL     1      -5.072   5.706 132.674  0.00  0.00    +0.000 A 
ATOM     16  C   UNL     1      -5.337   6.833 131.910  0.00  0.00    +0.000 A 
ATOM     17  C   UNL     1      -6.518   6.907 131.182  0.00  0.00    +0.000 A 
ATOM     18  C   UNL     1      -7.435   5.843 131.153  0.00  0.00    +0.000 A 
ATOM     19  H   UNL     1      -8.167   5.030 134.227  0.00  0.00    +0.000 HD
ATOM     20  H   UNL     1      -9.387   4.066 135.007  0.00  0.00    +0.000 HD
ENDROOT
BRANCH   1  21
ATOM     21  O   UNL     1      -8.928   7.142 129.637  0.00  0.00    +0.000 OA
BRANCH  21  23
ATOM     22  C   UNL     1     -10.454   8.390 128.327  0.00  0.00    +0.000 C 
ATOM     23  C   UNL     1     -10.220   7.557 129.538  0.00  0.00    +0.000 C 
ATOM     24  O   UNL     1     -11.141   7.243 130.287  0.00  0.00    +0.000 OA
ENDBRANCH  21  23
ENDBRANCH   1  21
TORSDOF 2
ENDMDL
