MODEL 1
REMARK VINA RESULT:      -5.9      0.000      0.000
REMARK  Name = Esmolol
REMARK  14 active torsions:
REMARK  status: ('A' for Active; 'I' for Inactive)
REMARK    1  A    between atoms: C_1  and  O_2
REMARK    2  A    between atoms: O_2  and  C_3
REMARK    3  A    between atoms: C_3  and  C_5
REMARK    4  A    between atoms: C_5  and  C_6
REMARK    5  A    between atoms: C_6  and  C_7
REMARK    6  A    between atoms: C_10  and  O_11
REMARK    7  A    between atoms: O_11  and  C_12
REMARK    8  A    between atoms: C_12  and  C_13
REMARK    9  A    between atoms: C_13  and  O_14
REMARK   10  A    between atoms: C_13  and  C_15
REMARK   11  A    between atoms: C_15  and  N_16
REMARK   12  A    between atoms: N_16  and  C_17
REMARK   13  A    between atoms: C_17  and  C_18
REMARK   14  A    between atoms: C_17  and  C_19
REMARK                            x       y       z     vdW  Elec       q    Type
REMARK                         _______ _______ _______ _____ _____    ______ ____
ROOT
ATOM      1  C   UNL     1      -7.856  -2.871 128.907  0.00  0.00    +0.000 A 
ATOM      2  C   UNL     1      -8.648  -3.881 128.343  0.00  0.00    +0.000 A 
ATOM      3  C   UNL     1      -9.164  -3.732 127.048  0.00  0.00    +0.000 A 
ATOM      4  C   UNL     1      -8.974  -2.543 126.341  0.00  0.00    +0.000 A 
ATOM      5  C   UNL     1      -8.212  -1.531 126.909  0.00  0.00    +0.000 A 
ATOM      6  C   UNL     1      -7.666  -1.694 128.174  0.00  0.00    +0.000 A 
ENDROOT
BRANCH   1   7
ATOM      7  C   UNL     1      -7.169  -3.084 130.238  0.00  0.00    +0.000 C 
BRANCH   7   8
ATOM      8  C   UNL     1      -6.061  -4.145 130.204  0.00  0.00    +0.000 C 
BRANCH   8   9
ATOM      9  C   UNL     1      -4.704  -3.531 130.029  0.00  0.00    +0.000 C 
ATOM     10  O   UNL     1      -3.945  -3.762 129.093  0.00  0.00    +0.000 OA
BRANCH   9  12
ATOM     11  C   UNL     1      -3.926  -3.332 132.220  0.00  0.00    +0.000 C 
ATOM     12  O   UNL     1      -4.437  -2.677 131.057  0.00  0.00    +0.000 OA
ENDBRANCH   9  12
ENDBRANCH   8   9
ENDBRANCH   7   8
ENDBRANCH   1   7
BRANCH   4  13
ATOM     13  O   UNL     1      -9.582  -2.461 125.119  0.00  0.00    +0.000 OA
BRANCH  13  14
ATOM     14  C   UNL     1      -8.893  -3.108 124.046  0.00  0.00    +0.000 C 
BRANCH  14  15
ATOM     15  C   UNL     1      -8.645  -2.104 122.916  0.00  0.00    +0.000 C 
BRANCH  15  16
ATOM     16  O   UNL     1      -9.704  -1.141 122.837  0.00  0.00    +0.000 OA
ATOM     17  H   UNL     1      -9.783  -0.858 121.911  0.00  0.00    +0.000 HD
ENDBRANCH  15  16
BRANCH  15  18
ATOM     18  C   UNL     1      -7.320  -1.380 123.181  0.00  0.00    +0.000 C 
BRANCH  18  19
ATOM     19  N   UNL     1      -6.193  -2.110 122.598  0.00  0.00    +0.000 NA
ATOM     20  H   UNL     1      -5.807  -1.558 121.827  0.00  0.00    +0.000 HD
BRANCH  19  21
ATOM     21  C   UNL     1      -5.162  -2.434 123.586  0.00  0.00    +0.000 C 
ATOM     22  C   UNL     1      -5.406  -1.685 124.899  0.00  0.00    +0.000 C 
ATOM     23  C   UNL     1      -5.184  -3.938 123.854  0.00  0.00    +0.000 C 
ENDBRANCH  19  21
ENDBRANCH  18  19
ENDBRANCH  15  18
ENDBRANCH  14  15
ENDBRANCH  13  14
ENDBRANCH   4  13
TORSDOF 11
ENDMDL
MODEL 2
REMARK VINA RESULT:      -5.9      2.830      3.701
REMARK  Name = Esmolol
REMARK  14 active torsions:
REMARK  status: ('A' for Active; 'I' for Inactive)
REMARK    1  A    between atoms: C_1  and  O_2
REMARK    2  A    between atoms: O_2  and  C_3
REMARK    3  A    between atoms: C_3  and  C_5
REMARK    4  A    between atoms: C_5  and  C_6
REMARK    5  A    between atoms: C_6  and  C_7
REMARK    6  A    between atoms: C_10  and  O_11
REMARK    7  A    between atoms: O_11  and  C_12
REMARK    8  A    between atoms: C_12  and  C_13
REMARK    9  A    between atoms: C_13  and  O_14
REMARK   10  A    between atoms: C_13  and  C_15
REMARK   11  A    between atoms: C_15  and  N_16
REMARK   12  A    between atoms: N_16  and  C_17
REMARK   13  A    between atoms: C_17  and  C_18
REMARK   14  A    between atoms: C_17  and  C_19
REMARK                            x       y       z     vdW  Elec       q    Type
REMARK                         _______ _______ _______ _____ _____    ______ ____
ROOT
ATOM      1  C   UNL     1      -8.176  -2.985 128.027  0.00  0.00    +0.000 A 
ATOM      2  C   UNL     1      -7.703  -1.707 127.697  0.00  0.00    +0.000 A 
ATOM      3  C   UNL     1      -8.183  -1.053 126.553  0.00  0.00    +0.000 A 
ATOM      4  C   UNL     1      -9.063  -1.698 125.684  0.00  0.00    +0.000 A 
ATOM      5  C   UNL     1      -9.511  -2.974 125.996  0.00  0.00    +0.000 A 
ATOM      6  C   UNL     1      -9.069  -3.608 127.149  0.00  0.00    +0.000 A 
ENDROOT
BRANCH   1   7
ATOM      7  C   UNL     1      -7.782  -3.637 129.335  0.00  0.00    +0.000 C 
BRANCH   7   8
ATOM      8  C   UNL     1      -6.481  -3.091 129.937  0.00  0.00    +0.000 C 
BRANCH   8   9
ATOM      9  C   UNL     1      -5.495  -4.184 130.222  0.00  0.00    +0.000 C 
ATOM     10  O   UNL     1      -5.777  -5.274 130.708  0.00  0.00    +0.000 OA
BRANCH   9  12
ATOM     11  C   UNL     1      -4.224  -2.598 129.074  0.00  0.00    +0.000 C 
ATOM     12  O   UNL     1      -4.240  -3.792 129.860  0.00  0.00    +0.000 OA
ENDBRANCH   9  12
ENDBRANCH   8   9
ENDBRANCH   7   8
ENDBRANCH   1   7
BRANCH   4  13
ATOM     13  O   UNL     1      -9.413  -1.011 124.555  0.00  0.00    +0.000 OA
BRANCH  13  14
ATOM     14  C   UNL     1      -8.467  -0.033 124.113  0.00  0.00    +0.000 C 
BRANCH  14  15
ATOM     15  C   UNL     1      -9.191   1.063 123.326  0.00  0.00    +0.000 C 
BRANCH  15  16
ATOM     16  O   UNL     1     -10.556   0.704 123.073  0.00  0.00    +0.000 OA
ATOM     17  H   UNL     1     -10.761   0.936 122.153  0.00  0.00    +0.000 HD
ENDBRANCH  15  16
BRANCH  15  18
ATOM     18  C   UNL     1      -9.150   2.363 124.138  0.00  0.00    +0.000 C 
BRANCH  18  19
ATOM     19  N   UNL     1      -8.472   3.427 123.397  0.00  0.00    +0.000 NA
ATOM     20  H   UNL     1      -7.701   3.786 123.969  0.00  0.00    +0.000 HD
BRANCH  19  21
ATOM     21  C   UNL     1      -7.995   2.984 122.086  0.00  0.00    +0.000 C 
ATOM     22  C   UNL     1      -8.753   3.691 120.959  0.00  0.00    +0.000 C 
ATOM     23  C   UNL     1      -6.505   3.300 121.964  0.00  0.00    +0.000 C 
ENDBRANCH  19  21
ENDBRANCH  18  19
ENDBRANCH  15  18
ENDBRANCH  14  15
ENDBRANCH  13  14
ENDBRANCH   4  13
TORSDOF 11
ENDMDL
MODEL 3
REMARK VINA RESULT:      -5.9      4.027      7.575
REMARK  Name = Esmolol
REMARK  14 active torsions:
REMARK  status: ('A' for Active; 'I' for Inactive)
REMARK    1  A    between atoms: C_1  and  O_2
REMARK    2  A    between atoms: O_2  and  C_3
REMARK    3  A    between atoms: C_3  and  C_5
REMARK    4  A    between atoms: C_5  and  C_6
REMARK    5  A    between atoms: C_6  and  C_7
REMARK    6  A    between atoms: C_10  and  O_11
REMARK    7  A    between atoms: O_11  and  C_12
REMARK    8  A    between atoms: C_12  and  C_13
REMARK    9  A    between atoms: C_13  and  O_14
REMARK   10  A    between atoms: C_13  and  C_15
REMARK   11  A    between atoms: C_15  and  N_16
REMARK   12  A    between atoms: N_16  and  C_17
REMARK   13  A    between atoms: C_17  and  C_18
REMARK   14  A    between atoms: C_17  and  C_19
REMARK                            x       y       z     vdW  Elec       q    Type
REMARK                         _______ _______ _______ _____ _____    ______ ____
ROOT
ATOM      1  C   UNL     1      -7.346   2.443 123.644  0.00  0.00    +0.000 A 
ATOM      2  C   UNL     1      -8.137   2.564 124.795  0.00  0.00    +0.000 A 
ATOM      3  C   UNL     1      -8.774   1.437 125.335  0.00  0.00    +0.000 A 
ATOM      4  C   UNL     1      -8.704   0.204 124.685  0.00  0.00    +0.000 A 
ATOM      5  C   UNL     1      -7.942   0.088 123.530  0.00  0.00    +0.000 A 
ATOM      6  C   UNL     1      -7.278   1.193 123.017  0.00  0.00    +0.000 A 
ENDROOT
BRANCH   1   7
ATOM      7  C   UNL     1      -6.533   3.616 123.142  0.00  0.00    +0.000 C 
BRANCH   7   8
ATOM      8  C   UNL     1      -5.822   3.356 121.808  0.00  0.00    +0.000 C 
BRANCH   8   9
ATOM      9  C   UNL     1      -6.379   4.202 120.702  0.00  0.00    +0.000 C 
ATOM     10  O   UNL     1      -7.482   4.048 120.187  0.00  0.00    +0.000 OA
BRANCH   9  12
ATOM     11  C   UNL     1      -5.664   5.658 119.024  0.00  0.00    +0.000 C 
ATOM     12  O   UNL     1      -5.484   5.170 120.355  0.00  0.00    +0.000 OA
ENDBRANCH   9  12
ENDBRANCH   8   9
ENDBRANCH   7   8
ENDBRANCH   1   7
BRANCH   4  13
ATOM     13  O   UNL     1      -9.421  -0.817 125.243  0.00  0.00    +0.000 OA
BRANCH  13  14
ATOM     14  C   UNL     1      -8.645  -1.846 125.863  0.00  0.00    +0.000 C 
BRANCH  14  15
ATOM     15  C   UNL     1      -8.894  -3.178 125.150  0.00  0.00    +0.000 C 
BRANCH  15  16
ATOM     16  O   UNL     1      -9.908  -3.046 124.144  0.00  0.00    +0.000 OA
ATOM     17  H   UNL     1     -10.374  -3.895 124.076  0.00  0.00    +0.000 HD
ENDBRANCH  15  16
BRANCH  15  18
ATOM     18  C   UNL     1      -7.587  -3.638 124.493  0.00  0.00    +0.000 C 
BRANCH  18  19
ATOM     19  N   UNL     1      -6.448  -2.860 124.982  0.00  0.00    +0.000 NA
ATOM     20  H   UNL     1      -6.162  -3.233 125.892  0.00  0.00    +0.000 HD
BRANCH  19  21
ATOM     21  C   UNL     1      -5.327  -2.849 124.039  0.00  0.00    +0.000 C 
ATOM     22  C   UNL     1      -4.691  -4.237 123.928  0.00  0.00    +0.000 C 
ATOM     23  C   UNL     1      -5.838  -2.419 122.665  0.00  0.00    +0.000 C 
ENDBRANCH  19  21
ENDBRANCH  18  19
ENDBRANCH  15  18
ENDBRANCH  14  15
ENDBRANCH  13  14
ENDBRANCH   4  13
TORSDOF 11
ENDMDL
MODEL 4
REMARK VINA RESULT:      -5.8      1.884      2.928
REMARK  Name = Esmolol
REMARK  14 active torsions:
REMARK  status: ('A' for Active; 'I' for Inactive)
REMARK    1  A    between atoms: C_1  and  O_2
REMARK    2  A    between atoms: O_2  and  C_3
REMARK    3  A    between atoms: C_3  and  C_5
REMARK    4  A    between atoms: C_5  and  C_6
REMARK    5  A    between atoms: C_6  and  C_7
REMARK    6  A    between atoms: C_10  and  O_11
REMARK    7  A    between atoms: O_11  and  C_12
REMARK    8  A    between atoms: C_12  and  C_13
REMARK    9  A    between atoms: C_13  and  O_14
REMARK   10  A    between atoms: C_13  and  C_15
REMARK   11  A    between atoms: C_15  and  N_16
REMARK   12  A    between atoms: N_16  and  C_17
REMARK   13  A    between atoms: C_17  and  C_18
REMARK   14  A    between atoms: C_17  and  C_19
REMARK                            x       y       z     vdW  Elec       q    Type
REMARK                         _______ _______ _______ _____ _____    ______ ____
ROOT
ATOM      1  C   UNL     1      -7.416  -2.663 129.276  0.00  0.00    +0.000 A 
ATOM      2  C   UNL     1      -6.906  -2.093 128.101  0.00  0.00    +0.000 A 
ATOM      3  C   UNL     1      -7.494  -2.387 126.863  0.00  0.00    +0.000 A 
ATOM      4  C   UNL     1      -8.530  -3.317 126.773  0.00  0.00    +0.000 A 
ATOM      5  C   UNL     1      -9.019  -3.902 127.933  0.00  0.00    +0.000 A 
ATOM      6  C   UNL     1      -8.466  -3.581 129.164  0.00  0.00    +0.000 A 
ENDROOT
BRANCH   1   7
ATOM      7  C   UNL     1      -6.890  -2.236 130.630  0.00  0.00    +0.000 C 
BRANCH   7   8
ATOM      8  C   UNL     1      -5.391  -2.499 130.827  0.00  0.00    +0.000 C 
BRANCH   8   9
ATOM      9  C   UNL     1      -5.045  -3.943 130.621  0.00  0.00    +0.000 C 
ATOM     10  O   UNL     1      -5.509  -4.876 131.270  0.00  0.00    +0.000 OA
BRANCH   9  12
ATOM     11  C   UNL     1      -3.237  -2.969 129.512  0.00  0.00    +0.000 C 
ATOM     12  O   UNL     1      -4.142  -4.071 129.608  0.00  0.00    +0.000 OA
ENDBRANCH   9  12
ENDBRANCH   8   9
ENDBRANCH   7   8
ENDBRANCH   1   7
BRANCH   4  13
ATOM     13  O   UNL     1      -8.986  -3.597 125.515  0.00  0.00    +0.000 OA
BRANCH  13  14
ATOM     14  C   UNL     1      -8.069  -3.317 124.453  0.00  0.00    +0.000 C 
BRANCH  14  15
ATOM     15  C   UNL     1      -8.845  -2.890 123.204  0.00  0.00    +0.000 C 
BRANCH  15  16
ATOM     16  O   UNL     1     -10.189  -3.389 123.232  0.00  0.00    +0.000 OA
ATOM     17  H   UNL     1     -10.248  -4.124 122.600  0.00  0.00    +0.000 HD
ENDBRANCH  15  16
BRANCH  15  18
ATOM     18  C   UNL     1      -8.875  -1.358 123.142  0.00  0.00    +0.000 C 
BRANCH  18  19
ATOM     19  N   UNL     1      -9.562  -0.796 124.306  0.00  0.00    +0.000 NA
ATOM     20  H   UNL     1      -9.420  -1.422 125.104  0.00  0.00    +0.000 HD
BRANCH  19  21
ATOM     21  C   UNL     1      -9.120   0.565 124.616  0.00  0.00    +0.000 C 
ATOM     22  C   UNL     1      -9.981   1.600 123.888  0.00  0.00    +0.000 C 
ATOM     23  C   UNL     1      -9.228   0.792 126.123  0.00  0.00    +0.000 C 
ENDBRANCH  19  21
ENDBRANCH  18  19
ENDBRANCH  15  18
ENDBRANCH  14  15
ENDBRANCH  13  14
ENDBRANCH   4  13
TORSDOF 11
ENDMDL
MODEL 5
REMARK VINA RESULT:      -5.8      8.931     11.805
REMARK  Name = Esmolol
REMARK  14 active torsions:
REMARK  status: ('A' for Active; 'I' for Inactive)
REMARK    1  A    between atoms: C_1  and  O_2
REMARK    2  A    between atoms: O_2  and  C_3
REMARK    3  A    between atoms: C_3  and  C_5
REMARK    4  A    between atoms: C_5  and  C_6
REMARK    5  A    between atoms: C_6  and  C_7
REMARK    6  A    between atoms: C_10  and  O_11
REMARK    7  A    between atoms: O_11  and  C_12
REMARK    8  A    between atoms: C_12  and  C_13
REMARK    9  A    between atoms: C_13  and  O_14
REMARK   10  A    between atoms: C_13  and  C_15
REMARK   11  A    between atoms: C_15  and  N_16
REMARK   12  A    between atoms: N_16  and  C_17
REMARK   13  A    between atoms: C_17  and  C_18
REMARK   14  A    between atoms: C_17  and  C_19
REMARK                            x       y       z     vdW  Elec       q    Type
REMARK                         _______ _______ _______ _____ _____    ______ ____
ROOT
ATOM      1  C   UNL     1     -11.286   6.953 130.686  0.00  0.00    +0.000 A 
ATOM      2  C   UNL     1     -11.260   6.329 131.941  0.00  0.00    +0.000 A 
ATOM      3  C   UNL     1     -10.036   6.042 132.560  0.00  0.00    +0.000 A 
ATOM      4  C   UNL     1      -8.832   6.289 131.899  0.00  0.00    +0.000 A 
ATOM      5  C   UNL     1      -8.856   6.882 130.644  0.00  0.00    +0.000 A 
ATOM      6  C   UNL     1     -10.067   7.205 130.047  0.00  0.00    +0.000 A 
ENDROOT
BRANCH   1   7
ATOM      7  C   UNL     1     -12.596   7.405 130.077  0.00  0.00    +0.000 C 
BRANCH   7   8
ATOM      8  C   UNL     1     -13.083   6.523 128.920  0.00  0.00    +0.000 C 
BRANCH   8   9
ATOM      9  C   UNL     1     -13.151   7.282 127.629  0.00  0.00    +0.000 C 
ATOM     10  O   UNL     1     -13.887   8.240 127.415  0.00  0.00    +0.000 OA
BRANCH   9  12
ATOM     11  C   UNL     1     -11.169   7.617 126.442  0.00  0.00    +0.000 C 
ATOM     12  O   UNL     1     -12.273   6.756 126.728  0.00  0.00    +0.000 OA
ENDBRANCH   9  12
ENDBRANCH   8   9
ENDBRANCH   7   8
ENDBRANCH   1   7
BRANCH   4  13
ATOM     13  O   UNL     1      -7.693   5.903 132.549  0.00  0.00    +0.000 OA
BRANCH  13  14
ATOM     14  C   UNL     1      -7.890   5.049 133.680  0.00  0.00    +0.000 C 
BRANCH  14  15
ATOM     15  C   UNL     1      -6.902   3.880 133.619  0.00  0.00    +0.000 C 
BRANCH  15  16
ATOM     16  O   UNL     1      -6.471   3.499 134.933  0.00  0.00    +0.000 OA
ATOM     17  H   UNL     1      -6.194   2.568 134.898  0.00  0.00    +0.000 HD
ENDBRANCH  15  16
BRANCH  15  18
ATOM     18  C   UNL     1      -7.590   2.687 132.945  0.00  0.00    +0.000 C 
BRANCH  18  19
ATOM     19  N   UNL     1      -9.040   2.735 133.139  0.00  0.00    +0.000 NA
ATOM     20  H   UNL     1      -9.325   3.713 133.247  0.00  0.00    +0.000 HD
BRANCH  19  21
ATOM     21  C   UNL     1      -9.774   2.088 132.049  0.00  0.00    +0.000 C 
ATOM     22  C   UNL     1      -9.586   2.849 130.734  0.00  0.00    +0.000 C 
ATOM     23  C   UNL     1      -9.257   0.660 131.881  0.00  0.00    +0.000 C 
ENDBRANCH  19  21
ENDBRANCH  18  19
ENDBRANCH  15  18
ENDBRANCH  14  15
ENDBRANCH  13  14
ENDBRANCH   4  13
TORSDOF 11
ENDMDL
MODEL 6
REMARK VINA RESULT:      -5.7      1.603      2.206
REMARK  Name = Esmolol
REMARK  14 active torsions:
REMARK  status: ('A' for Active; 'I' for Inactive)
REMARK    1  A    between atoms: C_1  and  O_2
REMARK    2  A    between atoms: O_2  and  C_3
REMARK    3  A    between atoms: C_3  and  C_5
REMARK    4  A    between atoms: C_5  and  C_6
REMARK    5  A    between atoms: C_6  and  C_7
REMARK    6  A    between atoms: C_10  and  O_11
REMARK    7  A    between atoms: O_11  and  C_12
REMARK    8  A    between atoms: C_12  and  C_13
REMARK    9  A    between atoms: C_13  and  O_14
REMARK   10  A    between atoms: C_13  and  C_15
REMARK   11  A    between atoms: C_15  and  N_16
REMARK   12  A    between atoms: N_16  and  C_17
REMARK   13  A    between atoms: C_17  and  C_18
REMARK   14  A    between atoms: C_17  and  C_19
REMARK                            x       y       z     vdW  Elec       q    Type
REMARK                         _______ _______ _______ _____ _____    ______ ____
ROOT
ATOM      1  C   UNL     1      -7.518  -2.921 128.937  0.00  0.00    +0.000 A 
ATOM      2  C   UNL     1      -8.422  -3.874 128.447  0.00  0.00    +0.000 A 
ATOM      3  C   UNL     1      -9.084  -3.657 127.230  0.00  0.00    +0.000 A 
ATOM      4  C   UNL     1      -8.923  -2.455 126.540  0.00  0.00    +0.000 A 
ATOM      5  C   UNL     1      -8.049  -1.499 127.038  0.00  0.00    +0.000 A 
ATOM      6  C   UNL     1      -7.361  -1.729 128.221  0.00  0.00    +0.000 A 
ENDROOT
BRANCH   1   7
ATOM      7  C   UNL     1      -6.686  -3.211 130.167  0.00  0.00    +0.000 C 
BRANCH   7   8
ATOM      8  C   UNL     1      -7.402  -2.908 131.490  0.00  0.00    +0.000 C 
BRANCH   8   9
ATOM      9  C   UNL     1      -7.192  -1.489 131.927  0.00  0.00    +0.000 C 
ATOM     10  O   UNL     1      -6.112  -0.905 131.921  0.00  0.00    +0.000 OA
BRANCH   9  12
ATOM     11  C   UNL     1      -8.845   0.089 131.455  0.00  0.00    +0.000 C 
ATOM     12  O   UNL     1      -8.373  -0.940 132.327  0.00  0.00    +0.000 OA
ENDBRANCH   9  12
ENDBRANCH   8   9
ENDBRANCH   7   8
ENDBRANCH   1   7
BRANCH   4  13
ATOM     13  O   UNL     1      -9.670  -2.303 125.405  0.00  0.00    +0.000 OA
BRANCH  13  14
ATOM     14  C   UNL     1      -9.393  -3.237 124.358  0.00  0.00    +0.000 C 
BRANCH  14  15
ATOM     15  C   UNL     1      -9.224  -2.488 123.033  0.00  0.00    +0.000 C 
BRANCH  15  16
ATOM     16  O   UNL     1      -9.994  -1.278 123.019  0.00  0.00    +0.000 OA
ATOM     17  H   UNL     1      -9.402  -0.544 123.251  0.00  0.00    +0.000 HD
ENDBRANCH  15  16
BRANCH  15  18
ATOM     18  C   UNL     1      -7.741  -2.147 122.845  0.00  0.00    +0.000 C 
BRANCH  18  19
ATOM     19  N   UNL     1      -6.899  -2.946 123.736  0.00  0.00    +0.000 NA
ATOM     20  H   UNL     1      -6.983  -3.931 123.471  0.00  0.00    +0.000 HD
BRANCH  19  21
ATOM     21  C   UNL     1      -5.500  -2.513 123.724  0.00  0.00    +0.000 C 
ATOM     22  C   UNL     1      -5.171  -1.689 124.972  0.00  0.00    +0.000 C 
ATOM     23  C   UNL     1      -4.598  -3.746 123.685  0.00  0.00    +0.000 C 
ENDBRANCH  19  21
ENDBRANCH  18  19
ENDBRANCH  15  18
ENDBRANCH  14  15
ENDBRANCH  13  14
ENDBRANCH   4  13
TORSDOF 11
ENDMDL
MODEL 7
REMARK VINA RESULT:      -5.6      9.349     11.876
REMARK  Name = Esmolol
REMARK  14 active torsions:
REMARK  status: ('A' for Active; 'I' for Inactive)
REMARK    1  A    between atoms: C_1  and  O_2
REMARK    2  A    between atoms: O_2  and  C_3
REMARK    3  A    between atoms: C_3  and  C_5
REMARK    4  A    between atoms: C_5  and  C_6
REMARK    5  A    between atoms: C_6  and  C_7
REMARK    6  A    between atoms: C_10  and  O_11
REMARK    7  A    between atoms: O_11  and  C_12
REMARK    8  A    between atoms: C_12  and  C_13
REMARK    9  A    between atoms: C_13  and  O_14
REMARK   10  A    between atoms: C_13  and  C_15
REMARK   11  A    between atoms: C_15  and  N_16
REMARK   12  A    between atoms: N_16  and  C_17
REMARK   13  A    between atoms: C_17  and  C_18
REMARK   14  A    between atoms: C_17  and  C_19
REMARK                            x       y       z     vdW  Elec       q    Type
REMARK                         _______ _______ _______ _____ _____    ______ ____
ROOT
ATOM      1  C   UNL     1     -11.776   6.283 131.075  0.00  0.00    +0.000 A 
ATOM      2  C   UNL     1     -11.044   6.407 132.264  0.00  0.00    +0.000 A 
ATOM      3  C   UNL     1      -9.982   5.533 132.533  0.00  0.00    +0.000 A 
ATOM      4  C   UNL     1      -9.697   4.476 131.668  0.00  0.00    +0.000 A 
ATOM      5  C   UNL     1     -10.438   4.336 130.502  0.00  0.00    +0.000 A 
ATOM      6  C   UNL     1     -11.464   5.225 130.214  0.00  0.00    +0.000 A 
ENDROOT
BRANCH   1   7
ATOM      7  C   UNL     1     -12.822   7.312 130.704  0.00  0.00    +0.000 C 
BRANCH   7   8
ATOM      8  C   UNL     1     -13.074   7.428 129.195  0.00  0.00    +0.000 C 
BRANCH   8   9
ATOM      9  C   UNL     1     -12.728   8.790 128.673  0.00  0.00    +0.000 C 
ATOM     10  O   UNL     1     -13.525   9.713 128.537  0.00  0.00    +0.000 OA
BRANCH   9  12
ATOM     11  C   UNL     1     -10.999   7.929 127.362  0.00  0.00    +0.000 C 
ATOM     12  O   UNL     1     -11.399   8.856 128.374  0.00  0.00    +0.000 OA
ENDBRANCH   9  12
ENDBRANCH   8   9
ENDBRANCH   7   8
ENDBRANCH   1   7
BRANCH   4  13
ATOM     13  O   UNL     1      -8.695   3.629 132.053  0.00  0.00    +0.000 OA
BRANCH  13  14
ATOM     14  C   UNL     1      -8.693   3.271 133.438  0.00  0.00    +0.000 C 
BRANCH  14  15
ATOM     15  C   UNL     1      -7.255   3.010 133.898  0.00  0.00    +0.000 C 
BRANCH  15  16
ATOM     16  O   UNL     1      -6.975   1.604 133.951  0.00  0.00    +0.000 OA
ATOM     17  H   UNL     1      -6.249   1.421 133.333  0.00  0.00    +0.000 HD
ENDBRANCH  15  16
BRANCH  15  18
ATOM     18  C   UNL     1      -6.292   3.681 132.912  0.00  0.00    +0.000 C 
BRANCH  18  19
ATOM     19  N   UNL     1      -6.401   5.139 132.977  0.00  0.00    +0.000 NA
ATOM     20  H   UNL     1      -5.939   5.465 133.831  0.00  0.00    +0.000 HD
BRANCH  19  21
ATOM     21  C   UNL     1      -5.848   5.798 131.792  0.00  0.00    +0.000 C 
ATOM     22  C   UNL     1      -6.820   6.846 131.243  0.00  0.00    +0.000 C 
ATOM     23  C   UNL     1      -4.534   6.481 132.170  0.00  0.00    +0.000 C 
ENDBRANCH  19  21
ENDBRANCH  18  19
ENDBRANCH  15  18
ENDBRANCH  14  15
ENDBRANCH  13  14
ENDBRANCH   4  13
TORSDOF 11
ENDMDL
MODEL 8
REMARK VINA RESULT:      -5.6      2.568      6.995
REMARK  Name = Esmolol
REMARK  14 active torsions:
REMARK  status: ('A' for Active; 'I' for Inactive)
REMARK    1  A    between atoms: C_1  and  O_2
REMARK    2  A    between atoms: O_2  and  C_3
REMARK    3  A    between atoms: C_3  and  C_5
REMARK    4  A    between atoms: C_5  and  C_6
REMARK    5  A    between atoms: C_6  and  C_7
REMARK    6  A    between atoms: C_10  and  O_11
REMARK    7  A    between atoms: O_11  and  C_12
REMARK    8  A    between atoms: C_12  and  C_13
REMARK    9  A    between atoms: C_13  and  O_14
REMARK   10  A    between atoms: C_13  and  C_15
REMARK   11  A    between atoms: C_15  and  N_16
REMARK   12  A    between atoms: N_16  and  C_17
REMARK   13  A    between atoms: C_17  and  C_18
REMARK   14  A    between atoms: C_17  and  C_19
REMARK                            x       y       z     vdW  Elec       q    Type
REMARK                         _______ _______ _______ _____ _____    ______ ____
ROOT
ATOM      1  C   UNL     1      -8.459  -2.960 126.856  0.00  0.00    +0.000 A 
ATOM      2  C   UNL     1      -8.610  -3.609 128.090  0.00  0.00    +0.000 A 
ATOM      3  C   UNL     1      -8.228  -2.966 129.276  0.00  0.00    +0.000 A 
ATOM      4  C   UNL     1      -7.611  -1.715 129.237  0.00  0.00    +0.000 A 
ATOM      5  C   UNL     1      -7.437  -1.082 128.013  0.00  0.00    +0.000 A 
ATOM      6  C   UNL     1      -7.852  -1.699 126.842  0.00  0.00    +0.000 A 
ENDROOT
BRANCH   1   7
ATOM      7  C   UNL     1      -9.007  -3.580 125.589  0.00  0.00    +0.000 C 
BRANCH   7   8
ATOM      8  C   UNL     1      -8.089  -3.420 124.370  0.00  0.00    +0.000 C 
BRANCH   8   9
ATOM      9  C   UNL     1      -8.685  -2.515 123.335  0.00  0.00    +0.000 C 
ATOM     10  O   UNL     1      -9.876  -2.229 123.254  0.00  0.00    +0.000 OA
BRANCH   9  12
ATOM     11  C   UNL     1      -6.522  -1.654 123.179  0.00  0.00    +0.000 C 
ATOM     12  O   UNL     1      -7.714  -2.052 122.498  0.00  0.00    +0.000 OA
ENDBRANCH   9  12
ENDBRANCH   8   9
ENDBRANCH   7   8
ENDBRANCH   1   7
BRANCH   4  13
ATOM     13  O   UNL     1      -7.202  -1.203 130.437  0.00  0.00    +0.000 OA
BRANCH  13  14
ATOM     14  C   UNL     1      -7.677  -1.896 131.594  0.00  0.00    +0.000 C 
BRANCH  14  15
ATOM     15  C   UNL     1      -6.690  -1.704 132.749  0.00  0.00    +0.000 C 
BRANCH  15  16
ATOM     16  O   UNL     1      -7.333  -1.891 134.017  0.00  0.00    +0.000 OA
ATOM     17  H   UNL     1      -6.713  -1.611 134.710  0.00  0.00    +0.000 HD
ENDBRANCH  15  16
BRANCH  15  18
ATOM     18  C   UNL     1      -5.554  -2.725 132.602  0.00  0.00    +0.000 C 
BRANCH  18  19
ATOM     19  N   UNL     1      -4.815  -2.515 131.356  0.00  0.00    +0.000 NA
ATOM     20  H   UNL     1      -4.010  -1.912 131.549  0.00  0.00    +0.000 HD
BRANCH  19  21
ATOM     21  C   UNL     1      -4.396  -3.772 130.733  0.00  0.00    +0.000 C 
ATOM     22  C   UNL     1      -5.505  -4.824 130.821  0.00  0.00    +0.000 C 
ATOM     23  C   UNL     1      -4.065  -3.514 129.264  0.00  0.00    +0.000 C 
ENDBRANCH  19  21
ENDBRANCH  18  19
ENDBRANCH  15  18
ENDBRANCH  14  15
ENDBRANCH  13  14
ENDBRANCH   4  13
TORSDOF 11
ENDMDL
MODEL 9
REMARK VINA RESULT:      -5.6      9.559     11.744
REMARK  Name = Esmolol
REMARK  14 active torsions:
REMARK  status: ('A' for Active; 'I' for Inactive)
REMARK    1  A    between atoms: C_1  and  O_2
REMARK    2  A    between atoms: O_2  and  C_3
REMARK    3  A    between atoms: C_3  and  C_5
REMARK    4  A    between atoms: C_5  and  C_6
REMARK    5  A    between atoms: C_6  and  C_7
REMARK    6  A    between atoms: C_10  and  O_11
REMARK    7  A    between atoms: O_11  and  C_12
REMARK    8  A    between atoms: C_12  and  C_13
REMARK    9  A    between atoms: C_13  and  O_14
REMARK   10  A    between atoms: C_13  and  C_15
REMARK   11  A    between atoms: C_15  and  N_16
REMARK   12  A    between atoms: N_16  and  C_17
REMARK   13  A    between atoms: C_17  and  C_18
REMARK   14  A    between atoms: C_17  and  C_19
REMARK                            x       y       z     vdW  Elec       q    Type
REMARK                         _______ _______ _______ _____ _____    ______ ____
ROOT
ATOM      1  C   UNL     1     -10.624   6.587 131.268  0.00  0.00    +0.000 A 
ATOM      2  C   UNL     1      -9.630   7.075 130.408  0.00  0.00    +0.000 A 
ATOM      3  C   UNL     1      -8.275   6.892 130.720  0.00  0.00    +0.000 A 
ATOM      4  C   UNL     1      -7.899   6.307 131.930  0.00  0.00    +0.000 A 
ATOM      5  C   UNL     1      -8.883   5.847 132.795  0.00  0.00    +0.000 A 
ATOM      6  C   UNL     1     -10.224   5.990 132.469  0.00  0.00    +0.000 A 
ENDROOT
BRANCH   1   7
ATOM      7  C   UNL     1     -12.082   6.643 130.869  0.00  0.00    +0.000 C 
BRANCH   7   8
ATOM      8  C   UNL     1     -12.515   7.990 130.276  0.00  0.00    +0.000 C 
BRANCH   8   9
ATOM      9  C   UNL     1     -12.824   7.883 128.813  0.00  0.00    +0.000 C 
ATOM     10  O   UNL     1     -13.713   7.187 128.332  0.00  0.00    +0.000 OA
BRANCH   9  12
ATOM     11  C   UNL     1     -11.210   7.954 127.128  0.00  0.00    +0.000 C 
ATOM     12  O   UNL     1     -11.978   8.675 128.095  0.00  0.00    +0.000 OA
ENDBRANCH   9  12
ENDBRANCH   8   9
ENDBRANCH   7   8
ENDBRANCH   1   7
BRANCH   4  13
ATOM     13  O   UNL     1      -6.557   6.243 132.182  0.00  0.00    +0.000 OA
BRANCH  13  14
ATOM     14  C   UNL     1      -6.054   4.944 132.507  0.00  0.00    +0.000 C 
BRANCH  14  15
ATOM     15  C   UNL     1      -5.183   4.428 131.359  0.00  0.00    +0.000 C 
BRANCH  15  16
ATOM     16  O   UNL     1      -5.988   3.957 130.269  0.00  0.00    +0.000 OA
ATOM     17  H   UNL     1      -5.407   3.836 129.500  0.00  0.00    +0.000 HD
ENDBRANCH  15  16
BRANCH  15  18
ATOM     18  C   UNL     1      -4.285   5.571 130.869  0.00  0.00    +0.000 C 
BRANCH  18  19
ATOM     19  N   UNL     1      -4.794   6.144 129.622  0.00  0.00    +0.000 NA
ATOM     20  H   UNL     1      -5.719   6.548 129.800  0.00  0.00    +0.000 HD
BRANCH  19  21
ATOM     21  C   UNL     1      -3.885   7.138 129.048  0.00  0.00    +0.000 C 
ATOM     22  C   UNL     1      -3.944   8.452 129.832  0.00  0.00    +0.000 C 
ATOM     23  C   UNL     1      -2.459   6.591 129.090  0.00  0.00    +0.000 C 
ENDBRANCH  19  21
ENDBRANCH  18  19
ENDBRANCH  15  18
ENDBRANCH  14  15
ENDBRANCH  13  14
ENDBRANCH   4  13
TORSDOF 11
ENDMDL
