MODEL 1
REMARK VINA RESULT:      -7.2      0.000      0.000
REMARK  Name = Esomeprazole
REMARK  9 active torsions:
REMARK  status: ('A' for Active; 'I' for Inactive)
REMARK    1  A    between atoms: C_1  and  O_2
REMARK    2  A    between atoms: O_2  and  C_3
REMARK    3  A    between atoms: C_8  and  S_10
REMARK    4  A    between atoms: S_10  and  C_12
REMARK    5  A    between atoms: C_12  and  C_13
REMARK    6  A    between atoms: C_16  and  C_17
REMARK    7  A    between atoms: C_18  and  O_19
REMARK    8  A    between atoms: O_19  and  C_20
REMARK    9  A    between atoms: C_21  and  C_22
REMARK                            x       y       z     vdW  Elec       q    Type
REMARK                         _______ _______ _______ _____ _____    ______ ____
ROOT
ATOM      1  S   UNL     1      -8.175   4.082 129.196  0.00  0.00    +0.000 S 
ATOM      2  O   UNL     1      -7.422   4.678 128.041  0.00  0.00    +0.000 OA
ENDROOT
BRANCH   1   8
ATOM      3  C   UNL     1     -12.481   8.584 129.649  0.00  0.00    +0.000 A 
ATOM      4  C   UNL     1     -11.474   8.042 128.840  0.00  0.00    +0.000 A 
ATOM      5  C   UNL     1     -10.785   6.901 129.290  0.00  0.00    +0.000 A 
ATOM      6  C   UNL     1     -11.139   6.321 130.501  0.00  0.00    +0.000 A 
ATOM      7  N   UNL     1     -10.276   5.257 130.644  0.00  0.00    +0.000 N 
ATOM      8  C   UNL     1      -9.453   5.221 129.545  0.00  0.00    +0.000 A 
ATOM      9  N   UNL     1      -9.753   6.202 128.715  0.00  0.00    +0.000 NA
ATOM     10  C   UNL     1     -12.170   6.813 131.304  0.00  0.00    +0.000 A 
ATOM     11  C   UNL     1     -12.840   7.957 130.846  0.00  0.00    +0.000 A 
ATOM     12  H   UNL     1     -10.241   4.648 131.442  0.00  0.00    +0.000 HD
BRANCH   3  14
ATOM     13  C   UNL     1     -13.339  10.719 130.142  0.00  0.00    +0.000 C 
ATOM     14  O   UNL     1     -13.126   9.696 129.167  0.00  0.00    +0.000 OA
ENDBRANCH   3  14
ENDBRANCH   1   8
BRANCH   1  15
ATOM     15  C   UNL     1      -7.125   4.098 130.694  0.00  0.00    +0.000 C 
BRANCH  15  16
ATOM     16  C   UNL     1      -5.791   4.792 130.445  0.00  0.00    +0.000 A 
ATOM     17  N   UNL     1      -4.824   4.006 129.932  0.00  0.00    +0.000 NA
ATOM     18  C   UNL     1      -3.609   4.528 129.698  0.00  0.00    +0.000 A 
ATOM     19  C   UNL     1      -3.259   5.854 129.913  0.00  0.00    +0.000 A 
ATOM     20  C   UNL     1      -1.853   6.228 129.552  0.00  0.00    +0.000 C 
ATOM     21  C   UNL     1      -4.263   6.696 130.415  0.00  0.00    +0.000 A 
ATOM     22  C   UNL     1      -5.564   6.163 130.666  0.00  0.00    +0.000 A 
ATOM     23  C   UNL     1      -6.701   7.042 131.122  0.00  0.00    +0.000 C 
BRANCH  21  24
ATOM     24  O   UNL     1      -4.142   8.035 130.706  0.00  0.00    +0.000 OA
ATOM     25  C   UNL     1      -4.023   8.994 129.665  0.00  0.00    +0.000 C 
ENDBRANCH  21  24
ENDBRANCH  15  16
ENDBRANCH   1  15
TORSDOF 5
ENDMDL
MODEL 2
REMARK VINA RESULT:      -7.2      2.323      2.790
REMARK  Name = Esomeprazole
REMARK  9 active torsions:
REMARK  status: ('A' for Active; 'I' for Inactive)
REMARK    1  A    between atoms: C_1  and  O_2
REMARK    2  A    between atoms: O_2  and  C_3
REMARK    3  A    between atoms: C_8  and  S_10
REMARK    4  A    between atoms: S_10  and  C_12
REMARK    5  A    between atoms: C_12  and  C_13
REMARK    6  A    between atoms: C_16  and  C_17
REMARK    7  A    between atoms: C_18  and  O_19
REMARK    8  A    between atoms: O_19  and  C_20
REMARK    9  A    between atoms: C_21  and  C_22
REMARK                            x       y       z     vdW  Elec       q    Type
REMARK                         _______ _______ _______ _____ _____    ______ ____
ROOT
ATOM      1  S   UNL     1      -8.258   4.810 133.587  0.00  0.00    +0.000 S 
ATOM      2  O   UNL     1      -9.048   3.686 134.195  0.00  0.00    +0.000 OA
ENDROOT
BRANCH   1   8
ATOM      3  C   UNL     1     -11.530   8.003 129.330  0.00  0.00    +0.000 A 
ATOM      4  C   UNL     1     -10.264   7.499 129.658  0.00  0.00    +0.000 A 
ATOM      5  C   UNL     1     -10.114   6.771 130.852  0.00  0.00    +0.000 A 
ATOM      6  C   UNL     1     -11.222   6.539 131.656  0.00  0.00    +0.000 A 
ATOM      7  N   UNL     1     -10.733   5.826 132.728  0.00  0.00    +0.000 N 
ATOM      8  C   UNL     1      -9.383   5.646 132.544  0.00  0.00    +0.000 A 
ATOM      9  N   UNL     1      -8.997   6.203 131.412  0.00  0.00    +0.000 NA
ATOM     10  C   UNL     1     -12.503   6.989 131.329  0.00  0.00    +0.000 A 
ATOM     11  C   UNL     1     -12.634   7.722 130.141  0.00  0.00    +0.000 A 
ATOM     12  H   UNL     1     -11.276   5.532 133.520  0.00  0.00    +0.000 HD
BRANCH   3  14
ATOM     13  C   UNL     1     -11.065   8.037 127.024  0.00  0.00    +0.000 C 
ATOM     14  O   UNL     1     -11.628   8.706 128.155  0.00  0.00    +0.000 OA
ENDBRANCH   3  14
ENDBRANCH   1   8
BRANCH   1  15
ATOM     15  C   UNL     1      -6.995   4.135 132.450  0.00  0.00    +0.000 C 
BRANCH  15  16
ATOM     16  C   UNL     1      -5.928   5.169 132.108  0.00  0.00    +0.000 A 
ATOM     17  N   UNL     1      -5.256   5.669 133.164  0.00  0.00    +0.000 NA
ATOM     18  C   UNL     1      -4.310   6.599 132.959  0.00  0.00    +0.000 A 
ATOM     19  C   UNL     1      -3.927   7.084 131.716  0.00  0.00    +0.000 A 
ATOM     20  C   UNL     1      -2.825   8.099 131.718  0.00  0.00    +0.000 C 
ATOM     21  C   UNL     1      -4.591   6.550 130.601  0.00  0.00    +0.000 A 
ATOM     22  C   UNL     1      -5.597   5.554 130.795  0.00  0.00    +0.000 A 
ATOM     23  C   UNL     1      -6.279   4.885 129.629  0.00  0.00    +0.000 C 
BRANCH  21  24
ATOM     24  O   UNL     1      -4.380   6.881 129.283  0.00  0.00    +0.000 OA
ATOM     25  C   UNL     1      -3.215   6.439 128.603  0.00  0.00    +0.000 C 
ENDBRANCH  21  24
ENDBRANCH  15  16
ENDBRANCH   1  15
TORSDOF 5
ENDMDL
MODEL 3
REMARK VINA RESULT:      -7.1      8.235     10.251
REMARK  Name = Esomeprazole
REMARK  9 active torsions:
REMARK  status: ('A' for Active; 'I' for Inactive)
REMARK    1  A    between atoms: C_1  and  O_2
REMARK    2  A    between atoms: O_2  and  C_3
REMARK    3  A    between atoms: C_8  and  S_10
REMARK    4  A    between atoms: S_10  and  C_12
REMARK    5  A    between atoms: C_12  and  C_13
REMARK    6  A    between atoms: C_16  and  C_17
REMARK    7  A    between atoms: C_18  and  O_19
REMARK    8  A    between atoms: O_19  and  C_20
REMARK    9  A    between atoms: C_21  and  C_22
REMARK                            x       y       z     vdW  Elec       q    Type
REMARK                         _______ _______ _______ _____ _____    ______ ____
ROOT
ATOM      1  S   UNL     1      -6.582   2.549 125.108  0.00  0.00    +0.000 S 
ATOM      2  O   UNL     1      -6.223   3.823 125.821  0.00  0.00    +0.000 OA
ENDROOT
BRANCH   1   8
ATOM      3  C   UNL     1      -7.111   4.475 119.190  0.00  0.00    +0.000 A 
ATOM      4  C   UNL     1      -6.210   4.193 120.225  0.00  0.00    +0.000 A 
ATOM      5  C   UNL     1      -6.713   3.726 121.453  0.00  0.00    +0.000 A 
ATOM      6  C   UNL     1      -8.078   3.523 121.599  0.00  0.00    +0.000 A 
ATOM      7  N   UNL     1      -8.229   3.087 122.898  0.00  0.00    +0.000 N 
ATOM      8  C   UNL     1      -6.986   3.036 123.480  0.00  0.00    +0.000 A 
ATOM      9  N   UNL     1      -6.060   3.410 122.618  0.00  0.00    +0.000 NA
ATOM     10  C   UNL     1      -8.993   3.750 120.570  0.00  0.00    +0.000 A 
ATOM     11  C   UNL     1      -8.477   4.224 119.355  0.00  0.00    +0.000 A 
ATOM     12  H   UNL     1      -9.108   2.887 123.339  0.00  0.00    +0.000 HD
BRANCH   3  14
ATOM     13  C   UNL     1      -5.936   6.201 118.106  0.00  0.00    +0.000 C 
ATOM     14  O   UNL     1      -6.573   4.925 118.010  0.00  0.00    +0.000 OA
ENDBRANCH   3  14
ENDBRANCH   1   8
BRANCH   1  15
ATOM     15  C   UNL     1      -8.141   1.879 125.787  0.00  0.00    +0.000 C 
BRANCH  15  16
ATOM     16  C   UNL     1      -8.369   0.432 125.365  0.00  0.00    +0.000 A 
ATOM     17  N   UNL     1      -8.895   0.271 124.135  0.00  0.00    +0.000 NA
ATOM     18  C   UNL     1      -9.148  -0.970 123.686  0.00  0.00    +0.000 A 
ATOM     19  C   UNL     1      -8.877  -2.138 124.385  0.00  0.00    +0.000 A 
ATOM     20  C   UNL     1      -9.212  -3.417 123.680  0.00  0.00    +0.000 C 
ATOM     21  C   UNL     1      -8.297  -1.992 125.655  0.00  0.00    +0.000 A 
ATOM     22  C   UNL     1      -8.014  -0.682 126.149  0.00  0.00    +0.000 A 
ATOM     23  C   UNL     1      -7.313  -0.472 127.467  0.00  0.00    +0.000 C 
BRANCH  21  24
ATOM     24  O   UNL     1      -7.949  -3.003 126.519  0.00  0.00    +0.000 OA
ATOM     25  C   UNL     1      -8.934  -3.648 127.313  0.00  0.00    +0.000 C 
ENDBRANCH  21  24
ENDBRANCH  15  16
ENDBRANCH   1  15
TORSDOF 5
ENDMDL
MODEL 4
REMARK VINA RESULT:      -6.9      3.742      4.294
REMARK  Name = Esomeprazole
REMARK  9 active torsions:
REMARK  status: ('A' for Active; 'I' for Inactive)
REMARK    1  A    between atoms: C_1  and  O_2
REMARK    2  A    between atoms: O_2  and  C_3
REMARK    3  A    between atoms: C_8  and  S_10
REMARK    4  A    between atoms: S_10  and  C_12
REMARK    5  A    between atoms: C_12  and  C_13
REMARK    6  A    between atoms: C_16  and  C_17
REMARK    7  A    between atoms: C_18  and  O_19
REMARK    8  A    between atoms: O_19  and  C_20
REMARK    9  A    between atoms: C_21  and  C_22
REMARK                            x       y       z     vdW  Elec       q    Type
REMARK                         _______ _______ _______ _____ _____    ______ ____
ROOT
ATOM      1  S   UNL     1      -9.109   3.010 131.036  0.00  0.00    +0.000 S 
ATOM      2  O   UNL     1      -7.720   3.529 130.800  0.00  0.00    +0.000 OA
ENDROOT
BRANCH   1   8
ATOM      3  C   UNL     1     -12.618   7.910 129.393  0.00  0.00    +0.000 A 
ATOM      4  C   UNL     1     -11.801   6.876 128.915  0.00  0.00    +0.000 A 
ATOM      5  C   UNL     1     -11.243   5.973 129.838  0.00  0.00    +0.000 A 
ATOM      6  C   UNL     1     -11.540   6.104 131.188  0.00  0.00    +0.000 A 
ATOM      7  N   UNL     1     -10.834   5.091 131.801  0.00  0.00    +0.000 N 
ATOM      8  C   UNL     1     -10.155   4.394 130.831  0.00  0.00    +0.000 A 
ATOM      9  N   UNL     1     -10.399   4.908 129.640  0.00  0.00    +0.000 NA
ATOM     10  C   UNL     1     -12.388   7.095 131.685  0.00  0.00    +0.000 A 
ATOM     11  C   UNL     1     -12.928   7.993 130.753  0.00  0.00    +0.000 A 
ATOM     12  H   UNL     1     -10.800   4.931 132.791  0.00  0.00    +0.000 HD
BRANCH   3  14
ATOM     13  C   UNL     1     -13.474  10.058 128.961  0.00  0.00    +0.000 C 
ATOM     14  O   UNL     1     -13.141   8.764 128.454  0.00  0.00    +0.000 OA
ENDBRANCH   3  14
ENDBRANCH   1   8
BRANCH   1  15
ATOM     15  C   UNL     1      -9.306   2.543 132.793  0.00  0.00    +0.000 C 
BRANCH  15  16
ATOM     16  C   UNL     1      -8.284   3.239 133.684  0.00  0.00    +0.000 A 
ATOM     17  N   UNL     1      -8.677   4.426 134.187  0.00  0.00    +0.000 NA
ATOM     18  C   UNL     1      -7.833   5.120 134.968  0.00  0.00    +0.000 A 
ATOM     19  C   UNL     1      -6.565   4.697 135.341  0.00  0.00    +0.000 A 
ATOM     20  C   UNL     1      -5.806   5.619 136.246  0.00  0.00    +0.000 C 
ATOM     21  C   UNL     1      -6.151   3.447 134.855  0.00  0.00    +0.000 A 
ATOM     22  C   UNL     1      -7.035   2.689 134.028  0.00  0.00    +0.000 A 
ATOM     23  C   UNL     1      -6.675   1.304 133.551  0.00  0.00    +0.000 C 
BRANCH  21  24
ATOM     24  O   UNL     1      -4.943   2.834 135.092  0.00  0.00    +0.000 OA
ATOM     25  C   UNL     1      -3.768   3.267 134.423  0.00  0.00    +0.000 C 
ENDBRANCH  21  24
ENDBRANCH  15  16
ENDBRANCH   1  15
TORSDOF 5
ENDMDL
MODEL 5
REMARK VINA RESULT:      -6.9      6.287      9.553
REMARK  Name = Esomeprazole
REMARK  9 active torsions:
REMARK  status: ('A' for Active; 'I' for Inactive)
REMARK    1  A    between atoms: C_1  and  O_2
REMARK    2  A    between atoms: O_2  and  C_3
REMARK    3  A    between atoms: C_8  and  S_10
REMARK    4  A    between atoms: S_10  and  C_12
REMARK    5  A    between atoms: C_12  and  C_13
REMARK    6  A    between atoms: C_16  and  C_17
REMARK    7  A    between atoms: C_18  and  O_19
REMARK    8  A    between atoms: O_19  and  C_20
REMARK    9  A    between atoms: C_21  and  C_22
REMARK                            x       y       z     vdW  Elec       q    Type
REMARK                         _______ _______ _______ _____ _____    ______ ____
ROOT
ATOM      1  S   UNL     1      -8.045   2.806 125.532  0.00  0.00    +0.000 S 
ATOM      2  O   UNL     1      -8.843   4.075 125.428  0.00  0.00    +0.000 OA
ENDROOT
BRANCH   1   8
ATOM      3  C   UNL     1      -2.840   5.414 127.797  0.00  0.00    +0.000 A 
ATOM      4  C   UNL     1      -4.203   5.615 127.541  0.00  0.00    +0.000 A 
ATOM      5  C   UNL     1      -4.951   4.562 126.984  0.00  0.00    +0.000 A 
ATOM      6  C   UNL     1      -4.334   3.344 126.733  0.00  0.00    +0.000 A 
ATOM      7  N   UNL     1      -5.324   2.557 126.186  0.00  0.00    +0.000 N 
ATOM      8  C   UNL     1      -6.479   3.299 126.129  0.00  0.00    +0.000 A 
ATOM      9  N   UNL     1      -6.272   4.509 126.615  0.00  0.00    +0.000 NA
ATOM     10  C   UNL     1      -2.990   3.101 127.022  0.00  0.00    +0.000 A 
ATOM     11  C   UNL     1      -2.256   4.164 127.568  0.00  0.00    +0.000 A 
ATOM     12  H   UNL     1      -5.195   1.619 125.853  0.00  0.00    +0.000 HD
BRANCH   3  14
ATOM     13  C   UNL     1      -1.964   6.377 129.757  0.00  0.00    +0.000 C 
ATOM     14  O   UNL     1      -2.153   6.469 128.343  0.00  0.00    +0.000 OA
ENDBRANCH   3  14
ENDBRANCH   1   8
BRANCH   1  15
ATOM     15  C   UNL     1      -7.711   2.147 123.859  0.00  0.00    +0.000 C 
BRANCH  15  16
ATOM     16  C   UNL     1      -7.453   0.645 123.881  0.00  0.00    +0.000 A 
ATOM     17  N   UNL     1      -6.329   0.266 124.521  0.00  0.00    +0.000 NA
ATOM     18  C   UNL     1      -6.012  -1.038 124.574  0.00  0.00    +0.000 A 
ATOM     19  C   UNL     1      -6.778  -2.065 124.041  0.00  0.00    +0.000 A 
ATOM     20  C   UNL     1      -6.249  -3.453 124.244  0.00  0.00    +0.000 C 
ATOM     21  C   UNL     1      -7.971  -1.693 123.400  0.00  0.00    +0.000 A 
ATOM     22  C   UNL     1      -8.331  -0.312 123.337  0.00  0.00    +0.000 A 
ATOM     23  C   UNL     1      -9.641   0.134 122.739  0.00  0.00    +0.000 C 
BRANCH  21  24
ATOM     24  O   UNL     1      -8.878  -2.535 122.801  0.00  0.00    +0.000 OA
ATOM     25  C   UNL     1      -9.660  -3.429 123.579  0.00  0.00    +0.000 C 
ENDBRANCH  21  24
ENDBRANCH  15  16
ENDBRANCH   1  15
TORSDOF 5
ENDMDL
MODEL 6
REMARK VINA RESULT:      -6.9      7.086      9.417
REMARK  Name = Esomeprazole
REMARK  9 active torsions:
REMARK  status: ('A' for Active; 'I' for Inactive)
REMARK    1  A    between atoms: C_1  and  O_2
REMARK    2  A    between atoms: O_2  and  C_3
REMARK    3  A    between atoms: C_8  and  S_10
REMARK    4  A    between atoms: S_10  and  C_12
REMARK    5  A    between atoms: C_12  and  C_13
REMARK    6  A    between atoms: C_16  and  C_17
REMARK    7  A    between atoms: C_18  and  O_19
REMARK    8  A    between atoms: O_19  and  C_20
REMARK    9  A    between atoms: C_21  and  C_22
REMARK                            x       y       z     vdW  Elec       q    Type
REMARK                         _______ _______ _______ _____ _____    ______ ____
ROOT
ATOM      1  S   UNL     1      -9.792   0.320 123.227  0.00  0.00    +0.000 S 
ATOM      2  O   UNL     1     -10.270   0.719 121.860  0.00  0.00    +0.000 OA
ENDROOT
BRANCH   1   8
ATOM      3  C   UNL     1      -5.942   4.595 125.659  0.00  0.00    +0.000 A 
ATOM      4  C   UNL     1      -6.964   3.680 125.946  0.00  0.00    +0.000 A 
ATOM      5  C   UNL     1      -7.486   2.898 124.901  0.00  0.00    +0.000 A 
ATOM      6  C   UNL     1      -6.957   3.023 123.623  0.00  0.00    +0.000 A 
ATOM      7  N   UNL     1      -7.689   2.144 122.854  0.00  0.00    +0.000 N 
ATOM      8  C   UNL     1      -8.609   1.527 123.667  0.00  0.00    +0.000 A 
ATOM      9  N   UNL     1      -8.492   1.965 124.907  0.00  0.00    +0.000 NA
ATOM     10  C   UNL     1      -5.907   3.892 123.319  0.00  0.00    +0.000 A 
ATOM     11  C   UNL     1      -5.404   4.672 124.371  0.00  0.00    +0.000 A 
ATOM     12  H   UNL     1      -7.583   2.021 121.864  0.00  0.00    +0.000 HD
BRANCH   3  14
ATOM     13  C   UNL     1      -4.160   4.949 127.155  0.00  0.00    +0.000 C 
ATOM     14  O   UNL     1      -5.463   5.335 126.711  0.00  0.00    +0.000 OA
ENDBRANCH   3  14
ENDBRANCH   1   8
BRANCH   1  15
ATOM     15  C   UNL     1      -8.840  -1.237 123.121  0.00  0.00    +0.000 C 
BRANCH  15  16
ATOM     16  C   UNL     1      -8.601  -1.852 124.495  0.00  0.00    +0.000 A 
ATOM     17  N   UNL     1      -9.650  -2.522 125.013  0.00  0.00    +0.000 NA
ATOM     18  C   UNL     1      -9.536  -3.081 126.228  0.00  0.00    +0.000 A 
ATOM     19  C   UNL     1      -8.389  -3.058 127.010  0.00  0.00    +0.000 A 
ATOM     20  C   UNL     1      -8.476  -3.774 128.323  0.00  0.00    +0.000 C 
ATOM     21  C   UNL     1      -7.275  -2.395 126.473  0.00  0.00    +0.000 A 
ATOM     22  C   UNL     1      -7.372  -1.798 125.178  0.00  0.00    +0.000 A 
ATOM     23  C   UNL     1      -6.181  -1.150 124.519  0.00  0.00    +0.000 C 
BRANCH  21  24
ATOM     24  O   UNL     1      -6.044  -2.245 127.067  0.00  0.00    +0.000 OA
ATOM     25  C   UNL     1      -5.850  -1.290 128.100  0.00  0.00    +0.000 C 
ENDBRANCH  21  24
ENDBRANCH  15  16
ENDBRANCH   1  15
TORSDOF 5
ENDMDL
MODEL 7
REMARK VINA RESULT:      -6.9      7.800      9.635
REMARK  Name = Esomeprazole
REMARK  9 active torsions:
REMARK  status: ('A' for Active; 'I' for Inactive)
REMARK    1  A    between atoms: C_1  and  O_2
REMARK    2  A    between atoms: O_2  and  C_3
REMARK    3  A    between atoms: C_8  and  S_10
REMARK    4  A    between atoms: S_10  and  C_12
REMARK    5  A    between atoms: C_12  and  C_13
REMARK    6  A    between atoms: C_16  and  C_17
REMARK    7  A    between atoms: C_18  and  O_19
REMARK    8  A    between atoms: O_19  and  C_20
REMARK    9  A    between atoms: C_21  and  C_22
REMARK                            x       y       z     vdW  Elec       q    Type
REMARK                         _______ _______ _______ _____ _____    ______ ____
ROOT
ATOM      1  S   UNL     1      -9.097  -0.899 124.248  0.00  0.00    +0.000 S 
ATOM      2  O   UNL     1      -9.739  -1.082 122.902  0.00  0.00    +0.000 OA
ENDROOT
BRANCH   1   8
ATOM      3  C   UNL     1      -5.632   4.077 122.750  0.00  0.00    +0.000 A 
ATOM      4  C   UNL     1      -6.445   3.054 122.243  0.00  0.00    +0.000 A 
ATOM      5  C   UNL     1      -7.030   2.146 123.143  0.00  0.00    +0.000 A 
ATOM      6  C   UNL     1      -6.820   2.303 124.506  0.00  0.00    +0.000 A 
ATOM      7  N   UNL     1      -7.508   1.260 125.088  0.00  0.00    +0.000 N 
ATOM      8  C   UNL     1      -8.101   0.527 124.089  0.00  0.00    +0.000 A 
ATOM      9  N   UNL     1      -7.830   1.055 122.910  0.00  0.00    +0.000 NA
ATOM     10  C   UNL     1      -6.054   3.340 125.041  0.00  0.00    +0.000 A 
ATOM     11  C   UNL     1      -5.469   4.232 124.130  0.00  0.00    +0.000 A 
ATOM     12  H   UNL     1      -7.525   1.060 126.071  0.00  0.00    +0.000 HD
BRANCH   3  14
ATOM     13  C   UNL     1      -5.402   4.631 120.475  0.00  0.00    +0.000 C 
ATOM     14  O   UNL     1      -5.084   4.940 121.834  0.00  0.00    +0.000 OA
ENDBRANCH   3  14
ENDBRANCH   1   8
BRANCH   1  15
ATOM     15  C   UNL     1      -7.909  -2.255 124.557  0.00  0.00    +0.000 C 
BRANCH  15  16
ATOM     16  C   UNL     1      -7.657  -2.461 126.046  0.00  0.00    +0.000 A 
ATOM     17  N   UNL     1      -8.622  -3.134 126.703  0.00  0.00    +0.000 NA
ATOM     18  C   UNL     1      -8.493  -3.346 128.022  0.00  0.00    +0.000 A 
ATOM     19  C   UNL     1      -7.405  -2.950 128.789  0.00  0.00    +0.000 A 
ATOM     20  C   UNL     1      -7.456  -3.319 130.240  0.00  0.00    +0.000 C 
ATOM     21  C   UNL     1      -6.373  -2.278 128.116  0.00  0.00    +0.000 A 
ATOM     22  C   UNL     1      -6.487  -2.047 126.710  0.00  0.00    +0.000 A 
ATOM     23  C   UNL     1      -5.370  -1.409 125.924  0.00  0.00    +0.000 C 
BRANCH  21  24
ATOM     24  O   UNL     1      -5.211  -1.795 128.669  0.00  0.00    +0.000 OA
ATOM     25  C   UNL     1      -4.184  -2.683 129.087  0.00  0.00    +0.000 C 
ENDBRANCH  21  24
ENDBRANCH  15  16
ENDBRANCH   1  15
TORSDOF 5
ENDMDL
MODEL 8
REMARK VINA RESULT:      -6.8      3.784      5.299
REMARK  Name = Esomeprazole
REMARK  9 active torsions:
REMARK  status: ('A' for Active; 'I' for Inactive)
REMARK    1  A    between atoms: C_1  and  O_2
REMARK    2  A    between atoms: O_2  and  C_3
REMARK    3  A    between atoms: C_8  and  S_10
REMARK    4  A    between atoms: S_10  and  C_12
REMARK    5  A    between atoms: C_12  and  C_13
REMARK    6  A    between atoms: C_16  and  C_17
REMARK    7  A    between atoms: C_18  and  O_19
REMARK    8  A    between atoms: O_19  and  C_20
REMARK    9  A    between atoms: C_21  and  C_22
REMARK                            x       y       z     vdW  Elec       q    Type
REMARK                         _______ _______ _______ _____ _____    ______ ____
ROOT
ATOM      1  S   UNL     1      -8.433   4.843 133.620  0.00  0.00    +0.000 S 
ATOM      2  O   UNL     1      -9.268   3.765 134.249  0.00  0.00    +0.000 OA
ENDROOT
BRANCH   1   8
ATOM      3  C   UNL     1     -11.531   8.017 129.221  0.00  0.00    +0.000 A 
ATOM      4  C   UNL     1     -10.287   7.485 129.586  0.00  0.00    +0.000 A 
ATOM      5  C   UNL     1     -10.180   6.784 130.800  0.00  0.00    +0.000 A 
ATOM      6  C   UNL     1     -11.309   6.605 131.588  0.00  0.00    +0.000 A 
ATOM      7  N   UNL     1     -10.861   5.906 132.688  0.00  0.00    +0.000 N 
ATOM      8  C   UNL     1      -9.514   5.684 132.535  0.00  0.00    +0.000 A 
ATOM      9  N   UNL     1      -9.090   6.199 131.396  0.00  0.00    +0.000 NA
ATOM     10  C   UNL     1     -12.570   7.083 131.226  0.00  0.00    +0.000 A 
ATOM     11  C   UNL     1     -12.657   7.788 130.017  0.00  0.00    +0.000 A 
ATOM     12  H   UNL     1     -11.427   5.649 133.476  0.00  0.00    +0.000 HD
BRANCH   3  14
ATOM     13  C   UNL     1     -10.993   7.990 126.930  0.00  0.00    +0.000 C 
ATOM     14  O   UNL     1     -11.586   8.690 128.026  0.00  0.00    +0.000 OA
ENDBRANCH   3  14
ENDBRANCH   1   8
BRANCH   1  15
ATOM     15  C   UNL     1      -7.176   4.093 132.524  0.00  0.00    +0.000 C 
BRANCH  15  16
ATOM     16  C   UNL     1      -7.140   2.575 132.656  0.00  0.00    +0.000 A 
ATOM     17  N   UNL     1      -6.370   2.105 133.657  0.00  0.00    +0.000 NA
ATOM     18  C   UNL     1      -6.263   0.779 133.837  0.00  0.00    +0.000 A 
ATOM     19  C   UNL     1      -6.922  -0.181 133.081  0.00  0.00    +0.000 A 
ATOM     20  C   UNL     1      -6.682  -1.607 133.476  0.00  0.00    +0.000 C 
ATOM     21  C   UNL     1      -7.756   0.289 132.055  0.00  0.00    +0.000 A 
ATOM     22  C   UNL     1      -7.889   1.697 131.850  0.00  0.00    +0.000 A 
ATOM     23  C   UNL     1      -8.838   2.257 130.821  0.00  0.00    +0.000 C 
BRANCH  21  24
ATOM     24  O   UNL     1      -8.498  -0.475 131.185  0.00  0.00    +0.000 OA
ATOM     25  C   UNL     1      -7.877  -1.141 130.096  0.00  0.00    +0.000 C 
ENDBRANCH  21  24
ENDBRANCH  15  16
ENDBRANCH   1  15
TORSDOF 5
ENDMDL
MODEL 9
REMARK VINA RESULT:      -6.8      3.728      4.854
REMARK  Name = Esomeprazole
REMARK  9 active torsions:
REMARK  status: ('A' for Active; 'I' for Inactive)
REMARK    1  A    between atoms: C_1  and  O_2
REMARK    2  A    between atoms: O_2  and  C_3
REMARK    3  A    between atoms: C_8  and  S_10
REMARK    4  A    between atoms: S_10  and  C_12
REMARK    5  A    between atoms: C_12  and  C_13
REMARK    6  A    between atoms: C_16  and  C_17
REMARK    7  A    between atoms: C_18  and  O_19
REMARK    8  A    between atoms: O_19  and  C_20
REMARK    9  A    between atoms: C_21  and  C_22
REMARK                            x       y       z     vdW  Elec       q    Type
REMARK                         _______ _______ _______ _____ _____    ______ ____
ROOT
ATOM      1  S   UNL     1      -7.670   3.989 129.425  0.00  0.00    +0.000 S 
ATOM      2  O   UNL     1      -7.538   3.291 130.748  0.00  0.00    +0.000 OA
ENDROOT
BRANCH   1   8
ATOM      3  C   UNL     1     -12.267   8.215 129.269  0.00  0.00    +0.000 A 
ATOM      4  C   UNL     1     -11.188   7.672 128.560  0.00  0.00    +0.000 A 
ATOM      5  C   UNL     1     -10.452   6.624 129.142  0.00  0.00    +0.000 A 
ATOM      6  C   UNL     1     -10.832   6.130 130.383  0.00  0.00    +0.000 A 
ATOM      7  N   UNL     1      -9.912   5.143 130.662  0.00  0.00    +0.000 N 
ATOM      8  C   UNL     1      -9.033   5.066 129.610  0.00  0.00    +0.000 A 
ATOM      9  N   UNL     1      -9.351   5.948 128.681  0.00  0.00    +0.000 NA
ATOM     10  C   UNL     1     -11.932   6.620 131.090  0.00  0.00    +0.000 A 
ATOM     11  C   UNL     1     -12.648   7.671 130.500  0.00  0.00    +0.000 A 
ATOM     12  H   UNL     1      -9.881   4.610 131.512  0.00  0.00    +0.000 HD
BRANCH   3  14
ATOM     13  C   UNL     1     -13.306  10.310 129.533  0.00  0.00    +0.000 C 
ATOM     14  O   UNL     1     -12.956   9.234 128.660  0.00  0.00    +0.000 OA
ENDBRANCH   3  14
ENDBRANCH   1   8
BRANCH   1  15
ATOM     15  C   UNL     1      -8.200   2.796 128.145  0.00  0.00    +0.000 C 
BRANCH  15  16
ATOM     16  C   UNL     1      -7.583   3.107 126.787  0.00  0.00    +0.000 A 
ATOM     17  N   UNL     1      -6.589   4.017 126.804  0.00  0.00    +0.000 NA
ATOM     18  C   UNL     1      -5.999   4.367 125.650  0.00  0.00    +0.000 A 
ATOM     19  C   UNL     1      -6.309   3.836 124.405  0.00  0.00    +0.000 A 
ATOM     20  C   UNL     1      -5.502   4.351 123.252  0.00  0.00    +0.000 C 
ATOM     21  C   UNL     1      -7.319   2.862 124.371  0.00  0.00    +0.000 A 
ATOM     22  C   UNL     1      -7.956   2.470 125.588  0.00  0.00    +0.000 A 
ATOM     23  C   UNL     1      -8.984   1.367 125.620  0.00  0.00    +0.000 C 
BRANCH  21  24
ATOM     24  O   UNL     1      -7.790   2.207 123.257  0.00  0.00    +0.000 OA
ATOM     25  C   UNL     1      -8.650   2.866 122.339  0.00  0.00    +0.000 C 
ENDBRANCH  21  24
ENDBRANCH  15  16
ENDBRANCH   1  15
TORSDOF 5
ENDMDL
