MODEL 1
REMARK VINA RESULT:      -8.0      0.000      0.000
REMARK  Name = Estazolam
REMARK  1 active torsions:
REMARK  status: ('A' for Active; 'I' for Inactive)
REMARK    1  A    between atoms: C_15  and  C_16
REMARK                            x       y       z     vdW  Elec       q    Type
REMARK                         _______ _______ _______ _____ _____    ______ ____
ROOT
ATOM      1 CL   UNL     1      -7.560  -1.806 122.741  0.00  0.00    +0.000 Cl
ATOM      2  C   UNL     1      -7.456  -0.361 123.665  0.00  0.00    +0.000 A 
ATOM      3  C   UNL     1      -6.971   0.805 123.074  0.00  0.00    +0.000 A 
ATOM      4  C   UNL     1      -6.871   1.995 123.818  0.00  0.00    +0.000 A 
ATOM      5  C   UNL     1      -7.266   1.987 125.167  0.00  0.00    +0.000 A 
ATOM      6  C   UNL     1      -7.776   0.813 125.747  0.00  0.00    +0.000 A 
ATOM      7  C   UNL     1      -7.859  -0.361 124.996  0.00  0.00    +0.000 A 
ATOM      8  N   UNL     1      -7.129   3.134 125.972  0.00  0.00    +0.000 N 
ATOM      9  C   UNL     1      -7.887   3.500 127.051  0.00  0.00    +0.000 A 
ATOM     10  N   UNL     1      -7.399   4.588 127.599  0.00  0.00    +0.000 NA
ATOM     11  N   UNL     1      -6.296   4.958 126.869  0.00  0.00    +0.000 NA
ATOM     12  C   UNL     1      -6.153   4.097 125.881  0.00  0.00    +0.000 A 
ATOM     13  C   UNL     1      -5.084   4.045 124.857  0.00  0.00    +0.000 C 
ATOM     14  N   UNL     1      -5.655   4.152 123.518  0.00  0.00    +0.000 NA
ATOM     15  C   UNL     1      -6.460   3.241 123.085  0.00  0.00    +0.000 C 
ENDROOT
BRANCH  15  16
ATOM     16  C   UNL     1      -7.047   3.424 121.732  0.00  0.00    +0.000 A 
ATOM     17  C   UNL     1      -6.208   3.736 120.657  0.00  0.00    +0.000 A 
ATOM     18  C   UNL     1      -6.763   4.213 119.472  0.00  0.00    +0.000 A 
ATOM     19  C   UNL     1      -8.150   4.279 119.333  0.00  0.00    +0.000 A 
ATOM     20  C   UNL     1      -8.985   3.837 120.364  0.00  0.00    +0.000 A 
ATOM     21  C   UNL     1      -8.435   3.437 121.582  0.00  0.00    +0.000 A 
ENDBRANCH  15  16
TORSDOF 1
ENDMDL
MODEL 2
REMARK VINA RESULT:      -7.8      3.023      4.328
REMARK  Name = Estazolam
REMARK  1 active torsions:
REMARK  status: ('A' for Active; 'I' for Inactive)
REMARK    1  A    between atoms: C_15  and  C_16
REMARK                            x       y       z     vdW  Elec       q    Type
REMARK                         _______ _______ _______ _____ _____    ______ ____
ROOT
ATOM      1 CL   UNL     1      -4.693   4.314 126.095  0.00  0.00    +0.000 Cl
ATOM      2  C   UNL     1      -5.615   3.027 125.426  0.00  0.00    +0.000 A 
ATOM      3  C   UNL     1      -6.490   3.279 124.370  0.00  0.00    +0.000 A 
ATOM      4  C   UNL     1      -7.259   2.239 123.815  0.00  0.00    +0.000 A 
ATOM      5  C   UNL     1      -7.131   0.944 124.345  0.00  0.00    +0.000 A 
ATOM      6  C   UNL     1      -6.228   0.695 125.394  0.00  0.00    +0.000 A 
ATOM      7  C   UNL     1      -5.481   1.741 125.938  0.00  0.00    +0.000 A 
ATOM      8  N   UNL     1      -7.921  -0.119 123.868  0.00  0.00    +0.000 N 
ATOM      9  C   UNL     1      -7.611  -1.452 123.840  0.00  0.00    +0.000 A 
ATOM     10  N   UNL     1      -8.636  -2.147 123.406  0.00  0.00    +0.000 NA
ATOM     11  N   UNL     1      -9.649  -1.260 123.132  0.00  0.00    +0.000 NA
ATOM     12  C   UNL     1      -9.207  -0.045 123.389  0.00  0.00    +0.000 A 
ATOM     13  C   UNL     1      -9.943   1.237 123.298  0.00  0.00    +0.000 C 
ATOM     14  N   UNL     1      -9.283   2.141 122.360  0.00  0.00    +0.000 NA
ATOM     15  C   UNL     1      -8.085   2.557 122.600  0.00  0.00    +0.000 C 
ENDROOT
BRANCH  15  16
ATOM     16  C   UNL     1      -7.444   3.437 121.589  0.00  0.00    +0.000 A 
ATOM     17  C   UNL     1      -8.197   3.894 120.502  0.00  0.00    +0.000 A 
ATOM     18  C   UNL     1      -7.545   4.447 119.402  0.00  0.00    +0.000 A 
ATOM     19  C   UNL     1      -6.162   4.631 119.436  0.00  0.00    +0.000 A 
ATOM     20  C   UNL     1      -5.433   4.296 120.580  0.00  0.00    +0.000 A 
ATOM     21  C   UNL     1      -6.068   3.667 121.652  0.00  0.00    +0.000 A 
ENDBRANCH  15  16
TORSDOF 1
ENDMDL
MODEL 3
REMARK VINA RESULT:      -7.7      2.151      4.115
REMARK  Name = Estazolam
REMARK  1 active torsions:
REMARK  status: ('A' for Active; 'I' for Inactive)
REMARK    1  A    between atoms: C_15  and  C_16
REMARK                            x       y       z     vdW  Elec       q    Type
REMARK                         _______ _______ _______ _____ _____    ______ ____
ROOT
ATOM      1 CL   UNL     1      -6.781   3.814 119.333  0.00  0.00    +0.000 Cl
ATOM      2  C   UNL     1      -6.431   3.891 121.015  0.00  0.00    +0.000 A 
ATOM      3  C   UNL     1      -7.371   3.438 121.938  0.00  0.00    +0.000 A 
ATOM      4  C   UNL     1      -7.105   3.502 123.319  0.00  0.00    +0.000 A 
ATOM      5  C   UNL     1      -5.876   4.031 123.749  0.00  0.00    +0.000 A 
ATOM      6  C   UNL     1      -4.924   4.462 122.809  0.00  0.00    +0.000 A 
ATOM      7  C   UNL     1      -5.210   4.401 121.444  0.00  0.00    +0.000 A 
ATOM      8  N   UNL     1      -5.585   4.173 125.120  0.00  0.00    +0.000 N 
ATOM      9  C   UNL     1      -4.359   4.141 125.727  0.00  0.00    +0.000 A 
ATOM     10  N   UNL     1      -4.481   4.401 127.007  0.00  0.00    +0.000 NA
ATOM     11  N   UNL     1      -5.816   4.604 127.261  0.00  0.00    +0.000 NA
ATOM     12  C   UNL     1      -6.475   4.443 126.131  0.00  0.00    +0.000 A 
ATOM     13  C   UNL     1      -7.926   4.606 125.884  0.00  0.00    +0.000 C 
ATOM     14  N   UNL     1      -8.502   3.363 125.381  0.00  0.00    +0.000 NA
ATOM     15  C   UNL     1      -8.109   2.881 124.250  0.00  0.00    +0.000 C 
ENDROOT
BRANCH  15  16
ATOM     16  C   UNL     1      -8.695   1.589 123.808  0.00  0.00    +0.000 A 
ATOM     17  C   UNL     1      -7.943   0.416 123.938  0.00  0.00    +0.000 A 
ATOM     18  C   UNL     1      -8.341  -0.730 123.253  0.00  0.00    +0.000 A 
ATOM     19  C   UNL     1      -9.534  -0.727 122.529  0.00  0.00    +0.000 A 
ATOM     20  C   UNL     1     -10.348   0.409 122.515  0.00  0.00    +0.000 A 
ATOM     21  C   UNL     1      -9.915   1.584 123.130  0.00  0.00    +0.000 A 
ENDBRANCH  15  16
TORSDOF 1
ENDMDL
MODEL 4
REMARK VINA RESULT:      -7.2      3.765      6.970
REMARK  Name = Estazolam
REMARK  1 active torsions:
REMARK  status: ('A' for Active; 'I' for Inactive)
REMARK    1  A    between atoms: C_15  and  C_16
REMARK                            x       y       z     vdW  Elec       q    Type
REMARK                         _______ _______ _______ _____ _____    ______ ____
ROOT
ATOM      1 CL   UNL     1      -3.991   2.383 126.661  0.00  0.00    +0.000 Cl
ATOM      2  C   UNL     1      -5.400   1.821 125.853  0.00  0.00    +0.000 A 
ATOM      3  C   UNL     1      -5.695   0.458 125.842  0.00  0.00    +0.000 A 
ATOM      4  C   UNL     1      -6.840  -0.020 125.179  0.00  0.00    +0.000 A 
ATOM      5  C   UNL     1      -7.679   0.898 124.526  0.00  0.00    +0.000 A 
ATOM      6  C   UNL     1      -7.387   2.273 124.563  0.00  0.00    +0.000 A 
ATOM      7  C   UNL     1      -6.241   2.728 125.217  0.00  0.00    +0.000 A 
ATOM      8  N   UNL     1      -8.803   0.466 123.795  0.00  0.00    +0.000 N 
ATOM      9  C   UNL     1      -9.970   1.144 123.567  0.00  0.00    +0.000 A 
ATOM     10  N   UNL     1     -10.747   0.452 122.768  0.00  0.00    +0.000 NA
ATOM     11  N   UNL     1     -10.088  -0.714 122.461  0.00  0.00    +0.000 NA
ATOM     12  C   UNL     1      -8.934  -0.711 123.098  0.00  0.00    +0.000 A 
ATOM     13  C   UNL     1      -7.855  -1.723 123.047  0.00  0.00    +0.000 C 
ATOM     14  N   UNL     1      -7.593  -2.260 124.379  0.00  0.00    +0.000 NA
ATOM     15  C   UNL     1      -7.162  -1.483 125.314  0.00  0.00    +0.000 C 
ENDROOT
BRANCH  15  16
ATOM     16  C   UNL     1      -6.957  -2.072 126.664  0.00  0.00    +0.000 A 
ATOM     17  C   UNL     1      -8.060  -2.254 127.505  0.00  0.00    +0.000 A 
ATOM     18  C   UNL     1      -7.851  -2.503 128.860  0.00  0.00    +0.000 A 
ATOM     19  C   UNL     1      -6.553  -2.668 129.343  0.00  0.00    +0.000 A 
ATOM     20  C   UNL     1      -5.463  -2.618 128.470  0.00  0.00    +0.000 A 
ATOM     21  C   UNL     1      -5.659  -2.288 127.129  0.00  0.00    +0.000 A 
ENDBRANCH  15  16
TORSDOF 1
ENDMDL
MODEL 5
REMARK VINA RESULT:      -7.2      3.646      7.087
REMARK  Name = Estazolam
REMARK  1 active torsions:
REMARK  status: ('A' for Active; 'I' for Inactive)
REMARK    1  A    between atoms: C_15  and  C_16
REMARK                            x       y       z     vdW  Elec       q    Type
REMARK                         _______ _______ _______ _____ _____    ______ ____
ROOT
ATOM      1 CL   UNL     1      -4.533  -5.003 123.661  0.00  0.00    +0.000 Cl
ATOM      2  C   UNL     1      -5.414  -3.537 123.839  0.00  0.00    +0.000 A 
ATOM      3  C   UNL     1      -6.132  -3.300 125.010  0.00  0.00    +0.000 A 
ATOM      4  C   UNL     1      -6.866  -2.110 125.169  0.00  0.00    +0.000 A 
ATOM      5  C   UNL     1      -6.862  -1.166 124.127  0.00  0.00    +0.000 A 
ATOM      6  C   UNL     1      -6.114  -1.403 122.961  0.00  0.00    +0.000 A 
ATOM      7  C   UNL     1      -5.401  -2.595 122.817  0.00  0.00    +0.000 A 
ATOM      8  N   UNL     1      -7.628   0.013 124.211  0.00  0.00    +0.000 N 
ATOM      9  C   UNL     1      -7.373   1.225 123.628  0.00  0.00    +0.000 A 
ATOM     10  N   UNL     1      -8.361   2.056 123.861  0.00  0.00    +0.000 NA
ATOM     11  N   UNL     1      -9.292   1.388 124.619  0.00  0.00    +0.000 NA
ATOM     12  C   UNL     1      -8.836   0.172 124.846  0.00  0.00    +0.000 A 
ATOM     13  C   UNL     1      -9.500  -0.936 125.570  0.00  0.00    +0.000 C 
ATOM     14  N   UNL     1      -8.686  -1.365 126.704  0.00  0.00    +0.000 NA
ATOM     15  C   UNL     1      -7.513  -1.865 126.504  0.00  0.00    +0.000 C 
ENDROOT
BRANCH  15  16
ATOM     16  C   UNL     1      -6.709  -2.241 127.696  0.00  0.00    +0.000 A 
ATOM     17  C   UNL     1      -5.339  -1.956 127.716  0.00  0.00    +0.000 A 
ATOM     18  C   UNL     1      -4.527  -2.571 128.666  0.00  0.00    +0.000 A 
ATOM     19  C   UNL     1      -5.099  -3.383 129.646  0.00  0.00    +0.000 A 
ATOM     20  C   UNL     1      -6.485  -3.554 129.701  0.00  0.00    +0.000 A 
ATOM     21  C   UNL     1      -7.294  -3.009 128.704  0.00  0.00    +0.000 A 
ENDBRANCH  15  16
TORSDOF 1
ENDMDL
MODEL 6
REMARK VINA RESULT:      -7.2      8.389      9.522
REMARK  Name = Estazolam
REMARK  1 active torsions:
REMARK  status: ('A' for Active; 'I' for Inactive)
REMARK    1  A    between atoms: C_15  and  C_16
REMARK                            x       y       z     vdW  Elec       q    Type
REMARK                         _______ _______ _______ _____ _____    ______ ____
ROOT
ATOM      1 CL   UNL     1      -6.019   5.243 136.092  0.00  0.00    +0.000 Cl
ATOM      2  C   UNL     1      -7.022   5.079 134.706  0.00  0.00    +0.000 A 
ATOM      3  C   UNL     1      -6.738   5.811 133.555  0.00  0.00    +0.000 A 
ATOM      4  C   UNL     1      -7.553   5.696 132.414  0.00  0.00    +0.000 A 
ATOM      5  C   UNL     1      -8.659   4.831 132.456  0.00  0.00    +0.000 A 
ATOM      6  C   UNL     1      -8.924   4.077 133.613  0.00  0.00    +0.000 A 
ATOM      7  C   UNL     1      -8.110   4.213 134.738  0.00  0.00    +0.000 A 
ATOM      8  N   UNL     1      -9.542   4.724 131.363  0.00  0.00    +0.000 N 
ATOM      9  C   UNL     1     -10.293   3.642 130.991  0.00  0.00    +0.000 A 
ATOM     10  N   UNL     1     -11.061   3.953 129.973  0.00  0.00    +0.000 NA
ATOM     11  N   UNL     1     -10.814   5.267 129.656  0.00  0.00    +0.000 NA
ATOM     12  C   UNL     1      -9.886   5.717 130.478  0.00  0.00    +0.000 A 
ATOM     13  C   UNL     1      -9.322   7.084 130.564  0.00  0.00    +0.000 C 
ATOM     14  N   UNL     1      -7.879   7.056 130.348  0.00  0.00    +0.000 NA
ATOM     15  C   UNL     1      -7.116   6.418 131.170  0.00  0.00    +0.000 C 
ENDROOT
BRANCH  15  16
ATOM     16  C   UNL     1      -5.659   6.383 130.875  0.00  0.00    +0.000 A 
ATOM     17  C   UNL     1      -4.963   7.587 130.722  0.00  0.00    +0.000 A 
ATOM     18  C   UNL     1      -3.695   7.574 130.146  0.00  0.00    +0.000 A 
ATOM     19  C   UNL     1      -3.092   6.358 129.821  0.00  0.00    +0.000 A 
ATOM     20  C   UNL     1      -3.740   5.152 130.102  0.00  0.00    +0.000 A 
ATOM     21  C   UNL     1      -5.042   5.161 130.603  0.00  0.00    +0.000 A 
ENDBRANCH  15  16
TORSDOF 1
ENDMDL
MODEL 7
REMARK VINA RESULT:      -7.1      7.285      9.325
REMARK  Name = Estazolam
REMARK  1 active torsions:
REMARK  status: ('A' for Active; 'I' for Inactive)
REMARK    1  A    between atoms: C_15  and  C_16
REMARK                            x       y       z     vdW  Elec       q    Type
REMARK                         _______ _______ _______ _____ _____    ______ ____
ROOT
ATOM      1 CL   UNL     1      -9.927   1.261 131.922  0.00  0.00    +0.000 Cl
ATOM      2  C   UNL     1      -8.422   0.431 131.937  0.00  0.00    +0.000 A 
ATOM      3  C   UNL     1      -8.301  -0.795 131.286  0.00  0.00    +0.000 A 
ATOM      4  C   UNL     1      -7.079  -1.492 131.295  0.00  0.00    +0.000 A 
ATOM      5  C   UNL     1      -5.983  -0.930 131.973  0.00  0.00    +0.000 A 
ATOM      6  C   UNL     1      -6.107   0.319 132.606  0.00  0.00    +0.000 A 
ATOM      7  C   UNL     1      -7.331   0.990 132.595  0.00  0.00    +0.000 A 
ATOM      8  N   UNL     1      -4.755  -1.615 132.064  0.00  0.00    +0.000 N 
ATOM      9  C   UNL     1      -3.501  -1.080 132.177  0.00  0.00    +0.000 A 
ATOM     10  N   UNL     1      -2.614  -2.035 132.328  0.00  0.00    +0.000 NA
ATOM     11  N   UNL     1      -3.289  -3.232 132.310  0.00  0.00    +0.000 NA
ATOM     12  C   UNL     1      -4.569  -2.974 132.128  0.00  0.00    +0.000 A 
ATOM     13  C   UNL     1      -5.699  -3.930 132.087  0.00  0.00    +0.000 C 
ATOM     14  N   UNL     1      -6.397  -3.842 130.807  0.00  0.00    +0.000 NA
ATOM     15  C   UNL     1      -6.985  -2.744 130.469  0.00  0.00    +0.000 C 
ENDROOT
BRANCH  15  16
ATOM     16  C   UNL     1      -7.641  -2.695 129.135  0.00  0.00    +0.000 A 
ATOM     17  C   UNL     1      -8.658  -3.608 128.838  0.00  0.00    +0.000 A 
ATOM     18  C   UNL     1      -9.055  -3.780 127.514  0.00  0.00    +0.000 A 
ATOM     19  C   UNL     1      -8.511  -2.972 126.515  0.00  0.00    +0.000 A 
ATOM     20  C   UNL     1      -7.594  -1.969 126.840  0.00  0.00    +0.000 A 
ATOM     21  C   UNL     1      -7.130  -1.847 128.150  0.00  0.00    +0.000 A 
ENDBRANCH  15  16
TORSDOF 1
ENDMDL
MODEL 8
REMARK VINA RESULT:      -6.8      6.581      8.531
REMARK  Name = Estazolam
REMARK  1 active torsions:
REMARK  status: ('A' for Active; 'I' for Inactive)
REMARK    1  A    between atoms: C_15  and  C_16
REMARK                            x       y       z     vdW  Elec       q    Type
REMARK                         _______ _______ _______ _____ _____    ______ ____
ROOT
ATOM      1 CL   UNL     1      -2.948  -4.242 128.496  0.00  0.00    +0.000 Cl
ATOM      2  C   UNL     1      -3.826  -3.343 129.669  0.00  0.00    +0.000 A 
ATOM      3  C   UNL     1      -4.919  -2.573 129.274  0.00  0.00    +0.000 A 
ATOM      4  C   UNL     1      -5.644  -1.824 130.219  0.00  0.00    +0.000 A 
ATOM      5  C   UNL     1      -5.247  -1.864 131.566  0.00  0.00    +0.000 A 
ATOM      6  C   UNL     1      -4.159  -2.663 131.959  0.00  0.00    +0.000 A 
ATOM      7  C   UNL     1      -3.445  -3.391 131.005  0.00  0.00    +0.000 A 
ATOM      8  N   UNL     1      -5.900  -1.086 132.542  0.00  0.00    +0.000 N 
ATOM      9  C   UNL     1      -6.044  -1.357 133.876  0.00  0.00    +0.000 A 
ATOM     10  N   UNL     1      -6.635  -0.352 134.480  0.00  0.00    +0.000 NA
ATOM     11  N   UNL     1      -6.896   0.605 133.529  0.00  0.00    +0.000 NA
ATOM     12  C   UNL     1      -6.475   0.149 132.366  0.00  0.00    +0.000 A 
ATOM     13  C   UNL     1      -6.490   0.834 131.053  0.00  0.00    +0.000 C 
ATOM     14  N   UNL     1      -7.267   0.066 130.084  0.00  0.00    +0.000 NA
ATOM     15  C   UNL     1      -6.884  -1.118 129.744  0.00  0.00    +0.000 C 
ENDROOT
BRANCH  15  16
ATOM     16  C   UNL     1      -7.738  -1.873 128.790  0.00  0.00    +0.000 A 
ATOM     17  C   UNL     1      -8.330  -3.072 129.202  0.00  0.00    +0.000 A 
ATOM     18  C   UNL     1      -8.861  -3.935 128.247  0.00  0.00    +0.000 A 
ATOM     19  C   UNL     1      -8.888  -3.553 126.905  0.00  0.00    +0.000 A 
ATOM     20  C   UNL     1      -8.417  -2.296 126.519  0.00  0.00    +0.000 A 
ATOM     21  C   UNL     1      -7.809  -1.462 127.458  0.00  0.00    +0.000 A 
ENDBRANCH  15  16
TORSDOF 1
ENDMDL
MODEL 9
REMARK VINA RESULT:      -6.8      4.766      6.030
REMARK  Name = Estazolam
REMARK  1 active torsions:
REMARK  status: ('A' for Active; 'I' for Inactive)
REMARK    1  A    between atoms: C_15  and  C_16
REMARK                            x       y       z     vdW  Elec       q    Type
REMARK                         _______ _______ _______ _____ _____    ______ ____
ROOT
ATOM      1 CL   UNL     1      -6.371  -4.050 130.303  0.00  0.00    +0.000 Cl
ATOM      2  C   UNL     1      -6.902  -2.471 129.878  0.00  0.00    +0.000 A 
ATOM      3  C   UNL     1      -6.812  -2.044 128.554  0.00  0.00    +0.000 A 
ATOM      4  C   UNL     1      -7.233  -0.751 128.190  0.00  0.00    +0.000 A 
ATOM      5  C   UNL     1      -7.744   0.100 129.184  0.00  0.00    +0.000 A 
ATOM      6  C   UNL     1      -7.854  -0.348 130.512  0.00  0.00    +0.000 A 
ATOM      7  C   UNL     1      -7.421  -1.630 130.856  0.00  0.00    +0.000 A 
ATOM      8  N   UNL     1      -8.123   1.424 128.885  0.00  0.00    +0.000 N 
ATOM      9  C   UNL     1      -9.077   2.186 129.503  0.00  0.00    +0.000 A 
ATOM     10  N   UNL     1      -9.080   3.399 129.002  0.00  0.00    +0.000 NA
ATOM     11  N   UNL     1      -8.114   3.446 128.027  0.00  0.00    +0.000 NA
ATOM     12  C   UNL     1      -7.560   2.253 127.944  0.00  0.00    +0.000 A 
ATOM     13  C   UNL     1      -6.440   1.819 127.078  0.00  0.00    +0.000 C 
ATOM     14  N   UNL     1      -6.859   0.721 126.212  0.00  0.00    +0.000 NA
ATOM     15  C   UNL     1      -7.225  -0.403 126.728  0.00  0.00    +0.000 C 
ENDROOT
BRANCH  15  16
ATOM     16  C   UNL     1      -7.686  -1.471 125.802  0.00  0.00    +0.000 A 
ATOM     17  C   UNL     1      -9.028  -1.867 125.828  0.00  0.00    +0.000 A 
ATOM     18  C   UNL     1      -9.401  -3.057 125.207  0.00  0.00    +0.000 A 
ATOM     19  C   UNL     1      -8.458  -3.787 124.483  0.00  0.00    +0.000 A 
ATOM     20  C   UNL     1      -7.150  -3.314 124.349  0.00  0.00    +0.000 A 
ATOM     21  C   UNL     1      -6.750  -2.167 125.036  0.00  0.00    +0.000 A 
ENDBRANCH  15  16
TORSDOF 1
ENDMDL
