MODEL 1
REMARK VINA RESULT:      -8.2      0.000      0.000
REMARK  Name = Estetrol
REMARK  5 active torsions:
REMARK  status: ('A' for Active; 'I' for Inactive)
REMARK    1  A    between atoms: C_3  and  O_4
REMARK    2  A    between atoms: C_5  and  O_6
REMARK    3  A    between atoms: C_7  and  O_8
REMARK    4  A    between atoms: C_9  and  C_10
REMARK    5  A    between atoms: C_18  and  O_19
REMARK                            x       y       z     vdW  Elec       q    Type
REMARK                         _______ _______ _______ _____ _____    ______ ____
ROOT
ATOM      1  C   UNL     1      -6.769   1.895 125.230  0.00  0.00    +0.000 C 
ATOM      2  C   UNL     1      -7.295   2.853 126.152  0.00  0.00    +0.000 C 
ATOM      3  C   UNL     1      -8.333   2.669 125.035  0.00  0.00    +0.000 C 
ATOM      4  C   UNL     1      -7.819   0.940 123.959  0.00  0.00    +0.000 C 
ATOM      5  C   UNL     1      -8.372   0.949 125.197  0.00  0.00    +0.000 C 
ATOM      6  C   UNL     1      -8.669   0.080 126.315  0.00  0.00    +0.000 C 
ATOM      7  C   UNL     1      -9.720   1.406 123.971  0.00  0.00    +0.000 C 
ATOM      8  C   UNL     1      -8.993   2.150 122.531  0.00  0.00    +0.000 C 
ATOM      9  C   UNL     1      -7.685   3.167 122.710  0.00  0.00    +0.000 C 
ATOM     10  C   UNL     1      -7.198   3.755 121.431  0.00  0.00    +0.000 A 
ATOM     11  C   UNL     1      -8.103   3.902 120.375  0.00  0.00    +0.000 A 
ATOM     12  C   UNL     1      -7.678   4.450 119.189  0.00  0.00    +0.000 A 
ATOM     13  C   UNL     1      -6.370   4.904 119.099  0.00  0.00    +0.000 A 
ATOM     14  C   UNL     1      -5.494   4.849 120.173  0.00  0.00    +0.000 A 
ATOM     15  C   UNL     1      -5.901   4.294 121.370  0.00  0.00    +0.000 A 
ATOM     16  C   UNL     1      -4.903   4.254 122.505  0.00  0.00    +0.000 C 
ATOM     17  C   UNL     1      -5.517   3.886 123.827  0.00  0.00    +0.000 C 
ATOM     18  C   UNL     1      -6.409   2.687 123.634  0.00  0.00    +0.000 C 
ENDROOT
BRANCH   2  19
ATOM     19  O   UNL     1      -6.487   3.926 126.476  0.00  0.00    +0.000 OA
ATOM     20  H   UNL     1      -5.703   3.643 126.952  0.00  0.00    +0.000 HD
ENDBRANCH   2  19
BRANCH   3  21
ATOM     21  O   UNL     1      -9.045   3.910 124.657  0.00  0.00    +0.000 OA
ATOM     22  H   UNL     1      -8.516   4.735 124.695  0.00  0.00    +0.000 HD
ENDBRANCH   3  21
BRANCH   4  23
ATOM     23  O   UNL     1      -8.352  -0.401 123.563  0.00  0.00    +0.000 OA
ATOM     24  H   UNL     1      -7.829  -1.206 123.742  0.00  0.00    +0.000 HD
ENDBRANCH   4  23
BRANCH  13  25
ATOM     25  O   UNL     1      -5.888   5.426 117.941  0.00  0.00    +0.000 OA
ATOM     26  H   UNL     1      -6.196   4.861 117.217  0.00  0.00    +0.000 HD
ENDBRANCH  13  25
TORSDOF 4
ENDMDL
MODEL 2
REMARK VINA RESULT:      -8.1      1.008      3.140
REMARK  Name = Estetrol
REMARK  5 active torsions:
REMARK  status: ('A' for Active; 'I' for Inactive)
REMARK    1  A    between atoms: C_3  and  O_4
REMARK    2  A    between atoms: C_5  and  O_6
REMARK    3  A    between atoms: C_7  and  O_8
REMARK    4  A    between atoms: C_9  and  C_10
REMARK    5  A    between atoms: C_18  and  O_19
REMARK                            x       y       z     vdW  Elec       q    Type
REMARK                         _______ _______ _______ _____ _____    ______ ____
ROOT
ATOM      1  C   UNL     1      -9.339   1.972 124.461  0.00  0.00    +0.000 C 
ATOM      2  C   UNL     1      -9.238   0.561 124.260  0.00  0.00    +0.000 C 
ATOM      3  C   UNL     1      -7.811   1.110 124.400  0.00  0.00    +0.000 C 
ATOM      4  C   UNL     1      -7.944   3.056 125.177  0.00  0.00    +0.000 C 
ATOM      5  C   UNL     1      -8.145   1.920 125.889  0.00  0.00    +0.000 C 
ATOM      6  C   UNL     1      -8.636   1.451 127.167  0.00  0.00    +0.000 C 
ATOM      7  C   UNL     1      -6.298   2.081 125.590  0.00  0.00    +0.000 C 
ATOM      8  C   UNL     1      -6.010   3.020 124.109  0.00  0.00    +0.000 C 
ATOM      9  C   UNL     1      -7.026   2.814 122.803  0.00  0.00    +0.000 C 
ATOM     10  C   UNL     1      -6.651   3.628 121.614  0.00  0.00    +0.000 A 
ATOM     11  C   UNL     1      -5.313   3.999 121.451  0.00  0.00    +0.000 A 
ATOM     12  C   UNL     1      -4.943   4.742 120.356  0.00  0.00    +0.000 A 
ATOM     13  C   UNL     1      -5.906   5.048 119.407  0.00  0.00    +0.000 A 
ATOM     14  C   UNL     1      -7.215   4.603 119.512  0.00  0.00    +0.000 A 
ATOM     15  C   UNL     1      -7.607   3.861 120.610  0.00  0.00    +0.000 A 
ATOM     16  C   UNL     1      -9.048   3.407 120.676  0.00  0.00    +0.000 C 
ATOM     17  C   UNL     1      -9.304   2.393 121.756  0.00  0.00    +0.000 C 
ATOM     18  C   UNL     1      -8.656   2.864 123.032  0.00  0.00    +0.000 C 
ENDROOT
BRANCH   2  19
ATOM     19  O   UNL     1      -9.907   0.030 123.174  0.00  0.00    +0.000 OA
ATOM     20  H   UNL     1     -10.491   0.676 122.772  0.00  0.00    +0.000 HD
ENDBRANCH   2  19
BRANCH   3  21
ATOM     21  O   UNL     1      -6.816   0.444 123.530  0.00  0.00    +0.000 OA
ATOM     22  H   UNL     1      -6.768  -0.534 123.605  0.00  0.00    +0.000 HD
ENDBRANCH   3  21
BRANCH   4  23
ATOM     23  O   UNL     1      -7.509   3.890 126.341  0.00  0.00    +0.000 OA
ATOM     24  H   UNL     1      -7.452   4.861 126.252  0.00  0.00    +0.000 HD
ENDBRANCH   4  23
BRANCH  13  25
ATOM     25  O   UNL     1      -5.603   5.806 118.320  0.00  0.00    +0.000 OA
ATOM     26  H   UNL     1      -5.653   6.735 118.591  0.00  0.00    +0.000 HD
ENDBRANCH  13  25
TORSDOF 4
ENDMDL
MODEL 3
REMARK VINA RESULT:      -7.5      4.932      8.579
REMARK  Name = Estetrol
REMARK  5 active torsions:
REMARK  status: ('A' for Active; 'I' for Inactive)
REMARK    1  A    between atoms: C_3  and  O_4
REMARK    2  A    between atoms: C_5  and  O_6
REMARK    3  A    between atoms: C_7  and  O_8
REMARK    4  A    between atoms: C_9  and  C_10
REMARK    5  A    between atoms: C_18  and  O_19
REMARK                            x       y       z     vdW  Elec       q    Type
REMARK                         _______ _______ _______ _____ _____    ______ ____
ROOT
ATOM      1  C   UNL     1      -7.692  -3.215 124.385  0.00  0.00    +0.000 C 
ATOM      2  C   UNL     1      -8.887  -2.674 123.819  0.00  0.00    +0.000 C 
ATOM      3  C   UNL     1      -8.101  -1.508 124.437  0.00  0.00    +0.000 C 
ATOM      4  C   UNL     1      -6.151  -2.183 124.826  0.00  0.00    +0.000 C 
ATOM      5  C   UNL     1      -6.643  -1.895 123.596  0.00  0.00    +0.000 C 
ATOM      6  C   UNL     1      -6.332  -2.027 122.188  0.00  0.00    +0.000 C 
ATOM      7  C   UNL     1      -6.338  -0.266 124.480  0.00  0.00    +0.000 C 
ATOM      8  C   UNL     1      -6.447  -0.509 126.237  0.00  0.00    +0.000 C 
ATOM      9  C   UNL     1      -7.588  -1.560 126.846  0.00  0.00    +0.000 C 
ATOM     10  C   UNL     1      -7.600  -1.641 128.333  0.00  0.00    +0.000 A 
ATOM     11  C   UNL     1      -7.151  -0.539 129.068  0.00  0.00    +0.000 A 
ATOM     12  C   UNL     1      -7.161  -0.588 130.440  0.00  0.00    +0.000 A 
ATOM     13  C   UNL     1      -7.682  -1.715 131.059  0.00  0.00    +0.000 A 
ATOM     14  C   UNL     1      -8.218  -2.772 130.339  0.00  0.00    +0.000 A 
ATOM     15  C   UNL     1      -8.208  -2.743 128.958  0.00  0.00    +0.000 A 
ATOM     16  C   UNL     1      -8.800  -3.925 128.224  0.00  0.00    +0.000 C 
ATOM     17  C   UNL     1      -8.986  -3.681 126.753  0.00  0.00    +0.000 C 
ATOM     18  C   UNL     1      -7.728  -3.067 126.196  0.00  0.00    +0.000 C 
ENDROOT
BRANCH   2  19
ATOM     19  O   UNL     1     -10.082  -3.262 124.187  0.00  0.00    +0.000 OA
ATOM     20  H   UNL     1     -10.404  -2.910 125.020  0.00  0.00    +0.000 HD
ENDBRANCH   2  19
BRANCH   3  21
ATOM     21  O   UNL     1      -8.947  -0.472 125.069  0.00  0.00    +0.000 OA
ATOM     22  H   UNL     1      -9.907  -0.672 125.115  0.00  0.00    +0.000 HD
ENDBRANCH   3  21
BRANCH   4  23
ATOM     23  O   UNL     1      -4.720  -1.905 124.488  0.00  0.00    +0.000 OA
ATOM     24  H   UNL     1      -4.196  -2.566 123.997  0.00  0.00    +0.000 HD
ENDBRANCH   4  23
BRANCH  13  25
ATOM     25  O   UNL     1      -7.689  -1.831 132.413  0.00  0.00    +0.000 OA
ATOM     26  H   UNL     1      -7.185  -2.626 132.640  0.00  0.00    +0.000 HD
ENDBRANCH  13  25
TORSDOF 4
ENDMDL
MODEL 4
REMARK VINA RESULT:      -7.3      6.433      8.280
REMARK  Name = Estetrol
REMARK  5 active torsions:
REMARK  status: ('A' for Active; 'I' for Inactive)
REMARK    1  A    between atoms: C_3  and  O_4
REMARK    2  A    between atoms: C_5  and  O_6
REMARK    3  A    between atoms: C_7  and  O_8
REMARK    4  A    between atoms: C_9  and  C_10
REMARK    5  A    between atoms: C_18  and  O_19
REMARK                            x       y       z     vdW  Elec       q    Type
REMARK                         _______ _______ _______ _____ _____    ______ ____
ROOT
ATOM      1  C   UNL     1      -4.297  -2.215 129.462  0.00  0.00    +0.000 C 
ATOM      2  C   UNL     1      -4.436  -0.904 130.015  0.00  0.00    +0.000 C 
ATOM      3  C   UNL     1      -5.747  -1.659 130.282  0.00  0.00    +0.000 C 
ATOM      4  C   UNL     1      -5.395  -3.700 129.931  0.00  0.00    +0.000 C 
ATOM      5  C   UNL     1      -4.954  -3.009 131.012  0.00  0.00    +0.000 C 
ATOM      6  C   UNL     1      -4.063  -3.123 132.146  0.00  0.00    +0.000 C 
ATOM      7  C   UNL     1      -6.799  -3.284 131.231  0.00  0.00    +0.000 C 
ATOM      8  C   UNL     1      -7.572  -3.456 129.639  0.00  0.00    +0.000 C 
ATOM      9  C   UNL     1      -7.039  -2.519 128.369  0.00  0.00    +0.000 C 
ATOM     10  C   UNL     1      -7.796  -2.732 127.104  0.00  0.00    +0.000 A 
ATOM     11  C   UNL     1      -9.119  -3.177 127.182  0.00  0.00    +0.000 A 
ATOM     12  C   UNL     1      -9.840  -3.371 126.029  0.00  0.00    +0.000 A 
ATOM     13  C   UNL     1      -9.247  -3.053 124.816  0.00  0.00    +0.000 A 
ATOM     14  C   UNL     1      -7.969  -2.520 124.735  0.00  0.00    +0.000 A 
ATOM     15  C   UNL     1      -7.227  -2.326 125.884  0.00  0.00    +0.000 A 
ATOM     16  C   UNL     1      -5.838  -1.748 125.737  0.00  0.00    +0.000 C 
ATOM     17  C   UNL     1      -5.226  -1.328 127.044  0.00  0.00    +0.000 C 
ATOM     18  C   UNL     1      -5.425  -2.428 128.053  0.00  0.00    +0.000 C 
ENDROOT
BRANCH   2  19
ATOM     19  O   UNL     1      -4.153   0.164 129.185  0.00  0.00    +0.000 OA
ATOM     20  H   UNL     1      -3.209   0.250 129.034  0.00  0.00    +0.000 HD
ENDBRANCH   2  19
BRANCH   3  21
ATOM     21  O   UNL     1      -6.962  -0.820 130.184  0.00  0.00    +0.000 OA
ATOM     22  H   UNL     1      -7.758  -1.165 130.642  0.00  0.00    +0.000 HD
ENDBRANCH   3  21
BRANCH   4  23
ATOM     23  O   UNL     1      -5.436  -5.034 130.608  0.00  0.00    +0.000 OA
ATOM     24  H   UNL     1      -5.796  -5.112 131.512  0.00  0.00    +0.000 HD
ENDBRANCH   4  23
BRANCH  13  25
ATOM     25  O   UNL     1      -9.902  -3.254 123.642  0.00  0.00    +0.000 OA
ATOM     26  H   UNL     1      -9.233  -3.347 122.948  0.00  0.00    +0.000 HD
ENDBRANCH  13  25
TORSDOF 4
ENDMDL
MODEL 5
REMARK VINA RESULT:      -7.3      1.626      2.223
REMARK  Name = Estetrol
REMARK  5 active torsions:
REMARK  status: ('A' for Active; 'I' for Inactive)
REMARK    1  A    between atoms: C_3  and  O_4
REMARK    2  A    between atoms: C_5  and  O_6
REMARK    3  A    between atoms: C_7  and  O_8
REMARK    4  A    between atoms: C_9  and  C_10
REMARK    5  A    between atoms: C_18  and  O_19
REMARK                            x       y       z     vdW  Elec       q    Type
REMARK                         _______ _______ _______ _____ _____    ______ ____
ROOT
ATOM      1  C   UNL     1      -7.586   0.637 126.254  0.00  0.00    +0.000 C 
ATOM      2  C   UNL     1      -8.774   1.236 126.776  0.00  0.00    +0.000 C 
ATOM      3  C   UNL     1      -8.954   1.105 125.257  0.00  0.00    +0.000 C 
ATOM      4  C   UNL     1      -7.468  -0.197 124.545  0.00  0.00    +0.000 C 
ATOM      5  C   UNL     1      -8.567  -0.579 125.241  0.00  0.00    +0.000 C 
ATOM      6  C   UNL     1      -9.141  -1.720 125.921  0.00  0.00    +0.000 C 
ATOM      7  C   UNL     1      -9.123  -0.138 123.502  0.00  0.00    +0.000 C 
ATOM      8  C   UNL     1      -7.999   1.043 122.795  0.00  0.00    +0.000 C 
ATOM      9  C   UNL     1      -7.352   2.235 123.764  0.00  0.00    +0.000 C 
ATOM     10  C   UNL     1      -6.459   3.181 123.040  0.00  0.00    +0.000 A 
ATOM     11  C   UNL     1      -6.661   3.379 121.671  0.00  0.00    +0.000 A 
ATOM     12  C   UNL     1      -5.855   4.254 120.985  0.00  0.00    +0.000 A 
ATOM     13  C   UNL     1      -4.900   4.969 121.692  0.00  0.00    +0.000 A 
ATOM     14  C   UNL     1      -4.756   4.850 123.066  0.00  0.00    +0.000 A 
ATOM     15  C   UNL     1      -5.552   3.969 123.771  0.00  0.00    +0.000 A 
ATOM     16  C   UNL     1      -5.348   3.876 125.266  0.00  0.00    +0.000 C 
ATOM     17  C   UNL     1      -6.430   3.103 125.968  0.00  0.00    +0.000 C 
ATOM     18  C   UNL     1      -6.685   1.824 125.214  0.00  0.00    +0.000 C 
ENDROOT
BRANCH   2  19
ATOM     19  O   UNL     1      -8.618   2.348 127.582  0.00  0.00    +0.000 OA
ATOM     20  H   UNL     1      -7.710   2.442 127.877  0.00  0.00    +0.000 HD
ENDBRANCH   2  19
BRANCH   3  21
ATOM     21  O   UNL     1      -9.684   2.230 124.632  0.00  0.00    +0.000 OA
ATOM     22  H   UNL     1     -10.069   2.886 125.251  0.00  0.00    +0.000 HD
ENDBRANCH   3  21
BRANCH   4  23
ATOM     23  O   UNL     1      -7.289  -1.494 123.819  0.00  0.00    +0.000 OA
ATOM     24  H   UNL     1      -7.848  -2.261 124.045  0.00  0.00    +0.000 HD
ENDBRANCH   4  23
BRANCH  13  25
ATOM     25  O   UNL     1      -4.055   5.825 121.060  0.00  0.00    +0.000 OA
ATOM     26  H   UNL     1      -4.235   6.715 121.397  0.00  0.00    +0.000 HD
ENDBRANCH  13  25
TORSDOF 4
ENDMDL
MODEL 6
REMARK VINA RESULT:      -7.1      4.571      8.339
REMARK  Name = Estetrol
REMARK  5 active torsions:
REMARK  status: ('A' for Active; 'I' for Inactive)
REMARK    1  A    between atoms: C_3  and  O_4
REMARK    2  A    between atoms: C_5  and  O_6
REMARK    3  A    between atoms: C_7  and  O_8
REMARK    4  A    between atoms: C_9  and  C_10
REMARK    5  A    between atoms: C_18  and  O_19
REMARK                            x       y       z     vdW  Elec       q    Type
REMARK                         _______ _______ _______ _____ _____    ______ ____
ROOT
ATOM      1  C   UNL     1      -8.344  -0.298 125.101  0.00  0.00    +0.000 C 
ATOM      2  C   UNL     1      -7.030  -0.126 124.565  0.00  0.00    +0.000 C 
ATOM      3  C   UNL     1      -7.086  -1.518 125.214  0.00  0.00    +0.000 C 
ATOM      4  C   UNL     1      -9.104  -1.985 125.560  0.00  0.00    +0.000 C 
ATOM      5  C   UNL     1      -8.502  -1.992 124.346  0.00  0.00    +0.000 C 
ATOM      6  C   UNL     1      -8.798  -2.079 122.932  0.00  0.00    +0.000 C 
ATOM      7  C   UNL     1      -7.909  -3.510 125.280  0.00  0.00    +0.000 C 
ATOM      8  C   UNL     1      -7.994  -3.207 127.029  0.00  0.00    +0.000 C 
ATOM      9  C   UNL     1      -7.610  -1.695 127.615  0.00  0.00    +0.000 C 
ATOM     10  C   UNL     1      -7.682  -1.586 129.099  0.00  0.00    +0.000 A 
ATOM     11  C   UNL     1      -7.490  -2.740 129.865  0.00  0.00    +0.000 A 
ATOM     12  C   UNL     1      -7.544  -2.662 131.235  0.00  0.00    +0.000 A 
ATOM     13  C   UNL     1      -7.723  -1.418 131.821  0.00  0.00    +0.000 A 
ATOM     14  C   UNL     1      -7.819  -0.255 131.072  0.00  0.00    +0.000 A 
ATOM     15  C   UNL     1      -7.776  -0.315 129.693  0.00  0.00    +0.000 A 
ATOM     16  C   UNL     1      -7.890   0.982 128.925  0.00  0.00    +0.000 C 
ATOM     17  C   UNL     1      -7.564   0.843 127.465  0.00  0.00    +0.000 C 
ATOM     18  C   UNL     1      -8.282  -0.363 126.917  0.00  0.00    +0.000 C 
ENDROOT
BRANCH   2  19
ATOM     19  O   UNL     1      -6.347   1.019 124.925  0.00  0.00    +0.000 OA
ATOM     20  H   UNL     1      -6.299   1.113 125.879  0.00  0.00    +0.000 HD
ENDBRANCH   2  19
BRANCH   3  21
ATOM     21  O   UNL     1      -5.833  -1.924 125.888  0.00  0.00    +0.000 OA
ATOM     22  H   UNL     1      -5.001  -1.696 125.420  0.00  0.00    +0.000 HD
ENDBRANCH   3  21
BRANCH   4  23
ATOM     23  O   UNL     1     -10.153  -2.995 125.218  0.00  0.00    +0.000 OA
ATOM     24  H   UNL     1     -11.061  -2.892 125.561  0.00  0.00    +0.000 HD
ENDBRANCH   4  23
BRANCH  13  25
ATOM     25  O   UNL     1      -7.816  -1.286 133.171  0.00  0.00    +0.000 OA
ATOM     26  H   UNL     1      -8.327  -0.483 133.350  0.00  0.00    +0.000 HD
ENDBRANCH  13  25
TORSDOF 4
ENDMDL
MODEL 7
REMARK VINA RESULT:      -7.0      6.867      8.943
REMARK  Name = Estetrol
REMARK  5 active torsions:
REMARK  status: ('A' for Active; 'I' for Inactive)
REMARK    1  A    between atoms: C_3  and  O_4
REMARK    2  A    between atoms: C_5  and  O_6
REMARK    3  A    between atoms: C_7  and  O_8
REMARK    4  A    between atoms: C_9  and  C_10
REMARK    5  A    between atoms: C_18  and  O_19
REMARK                            x       y       z     vdW  Elec       q    Type
REMARK                         _______ _______ _______ _____ _____    ______ ____
ROOT
ATOM      1  C   UNL     1      -8.386   4.401 131.942  0.00  0.00    +0.000 C 
ATOM      2  C   UNL     1      -9.002   3.112 131.906  0.00  0.00    +0.000 C 
ATOM      3  C   UNL     1      -8.809   3.571 130.453  0.00  0.00    +0.000 C 
ATOM      4  C   UNL     1      -7.484   5.200 130.465  0.00  0.00    +0.000 C 
ATOM      5  C   UNL     1      -7.127   3.907 130.662  0.00  0.00    +0.000 C 
ATOM      6  C   UNL     1      -6.013   3.088 131.088  0.00  0.00    +0.000 C 
ATOM      7  C   UNL     1      -7.496   4.120 128.833  0.00  0.00    +0.000 C 
ATOM      8  C   UNL     1      -8.652   5.451 128.606  0.00  0.00    +0.000 C 
ATOM      9  C   UNL     1      -9.883   5.660 129.709  0.00  0.00    +0.000 C 
ATOM     10  C   UNL     1     -10.803   6.784 129.381  0.00  0.00    +0.000 A 
ATOM     11  C   UNL     1     -10.945   7.165 128.044  0.00  0.00    +0.000 A 
ATOM     12  C   UNL     1     -11.795   8.193 127.717  0.00  0.00    +0.000 A 
ATOM     13  C   UNL     1     -12.540   8.783 128.727  0.00  0.00    +0.000 A 
ATOM     14  C   UNL     1     -12.477   8.348 130.043  0.00  0.00    +0.000 A 
ATOM     15  C   UNL     1     -11.622   7.321 130.390  0.00  0.00    +0.000 A 
ATOM     16  C   UNL     1     -11.589   6.891 131.839  0.00  0.00    +0.000 C 
ATOM     17  C   UNL     1     -10.842   5.606 132.063  0.00  0.00    +0.000 C 
ATOM     18  C   UNL     1      -9.533   5.666 131.319  0.00  0.00    +0.000 C 
ENDROOT
BRANCH   2  19
ATOM     19  O   UNL     1     -10.145   2.938 132.661  0.00  0.00    +0.000 OA
ATOM     20  H   UNL     1     -10.934   2.978 132.117  0.00  0.00    +0.000 HD
ENDBRANCH   2  19
BRANCH   3  21
ATOM     21  O   UNL     1      -9.906   3.177 129.541  0.00  0.00    +0.000 OA
ATOM     22  H   UNL     1      -9.632   2.738 128.707  0.00  0.00    +0.000 HD
ENDBRANCH   3  21
BRANCH   4  23
ATOM     23  O   UNL     1      -6.160   5.644 129.927  0.00  0.00    +0.000 OA
ATOM     24  H   UNL     1      -6.122   6.241 129.156  0.00  0.00    +0.000 HD
ENDBRANCH   4  23
BRANCH  13  25
ATOM     25  O   UNL     1     -13.373   9.825 128.466  0.00  0.00    +0.000 OA
ATOM     26  H   UNL     1     -13.226  10.494 129.151  0.00  0.00    +0.000 HD
ENDBRANCH  13  25
TORSDOF 4
ENDMDL
MODEL 8
REMARK VINA RESULT:      -6.9      3.674      5.320
REMARK  Name = Estetrol
REMARK  5 active torsions:
REMARK  status: ('A' for Active; 'I' for Inactive)
REMARK    1  A    between atoms: C_3  and  O_4
REMARK    2  A    between atoms: C_5  and  O_6
REMARK    3  A    between atoms: C_7  and  O_8
REMARK    4  A    between atoms: C_9  and  C_10
REMARK    5  A    between atoms: C_18  and  O_19
REMARK                            x       y       z     vdW  Elec       q    Type
REMARK                         _______ _______ _______ _____ _____    ______ ____
ROOT
ATOM      1  C   UNL     1      -7.855  -2.718 125.239  0.00  0.00    +0.000 C 
ATOM      2  C   UNL     1      -8.993  -2.674 126.102  0.00  0.00    +0.000 C 
ATOM      3  C   UNL     1      -9.108  -1.494 125.126  0.00  0.00    +0.000 C 
ATOM      4  C   UNL     1      -7.743  -1.817 123.563  0.00  0.00    +0.000 C 
ATOM      5  C   UNL     1      -8.912  -2.485 123.724  0.00  0.00    +0.000 C 
ATOM      6  C   UNL     1      -9.645  -3.629 123.226  0.00  0.00    +0.000 C 
ATOM      7  C   UNL     1      -9.326  -0.759 123.110  0.00  0.00    +0.000 C 
ATOM      8  C   UNL     1      -8.042   0.372 123.591  0.00  0.00    +0.000 C 
ATOM      9  C   UNL     1      -7.316   0.196 125.080  0.00  0.00    +0.000 C 
ATOM     10  C   UNL     1      -6.286   1.231 125.375  0.00  0.00    +0.000 A 
ATOM     11  C   UNL     1      -6.395   2.479 124.755  0.00  0.00    +0.000 A 
ATOM     12  C   UNL     1      -5.461   3.452 125.019  0.00  0.00    +0.000 A 
ATOM     13  C   UNL     1      -4.470   3.183 125.951  0.00  0.00    +0.000 A 
ATOM     14  C   UNL     1      -4.411   1.982 126.642  0.00  0.00    +0.000 A 
ATOM     15  C   UNL     1      -5.335   0.990 126.383  0.00  0.00    +0.000 A 
ATOM     16  C   UNL     1      -5.221  -0.302 127.160  0.00  0.00    +0.000 C 
ATOM     17  C   UNL     1      -6.416  -1.200 127.006  0.00  0.00    +0.000 C 
ATOM     18  C   UNL     1      -6.775  -1.289 125.545  0.00  0.00    +0.000 C 
ENDROOT
BRANCH   2  19
ATOM     19  O   UNL     1      -8.755  -2.710 127.462  0.00  0.00    +0.000 OA
ATOM     20  H   UNL     1      -9.488  -2.335 127.956  0.00  0.00    +0.000 HD
ENDBRANCH   2  19
BRANCH   3  21
ATOM     21  O   UNL     1      -9.675  -0.264 125.723  0.00  0.00    +0.000 OA
ATOM     22  H   UNL     1     -10.649  -0.256 125.843  0.00  0.00    +0.000 HD
ENDBRANCH   3  21
BRANCH   4  23
ATOM     23  O   UNL     1      -7.674  -1.987 122.078  0.00  0.00    +0.000 OA
ATOM     24  H   UNL     1      -6.807  -2.025 121.631  0.00  0.00    +0.000 HD
ENDBRANCH   4  23
BRANCH  13  25
ATOM     25  O   UNL     1      -3.503   4.097 126.228  0.00  0.00    +0.000 OA
ATOM     26  H   UNL     1      -2.841   3.661 126.786  0.00  0.00    +0.000 HD
ENDBRANCH  13  25
TORSDOF 4
ENDMDL
MODEL 9
REMARK VINA RESULT:      -6.8      5.612      8.276
REMARK  Name = Estetrol
REMARK  5 active torsions:
REMARK  status: ('A' for Active; 'I' for Inactive)
REMARK    1  A    between atoms: C_3  and  O_4
REMARK    2  A    between atoms: C_5  and  O_6
REMARK    3  A    between atoms: C_7  and  O_8
REMARK    4  A    between atoms: C_9  and  C_10
REMARK    5  A    between atoms: C_18  and  O_19
REMARK                            x       y       z     vdW  Elec       q    Type
REMARK                         _______ _______ _______ _____ _____    ______ ____
ROOT
ATOM      1  C   UNL     1      -6.772  -2.442 130.840  0.00  0.00    +0.000 C 
ATOM      2  C   UNL     1      -5.677  -3.359 130.880  0.00  0.00    +0.000 C 
ATOM      3  C   UNL     1      -5.310  -2.248 129.886  0.00  0.00    +0.000 C 
ATOM      4  C   UNL     1      -6.654  -0.660 130.173  0.00  0.00    +0.000 C 
ATOM      5  C   UNL     1      -5.635  -0.977 131.009  0.00  0.00    +0.000 C 
ATOM      6  C   UNL     1      -5.108  -0.676 132.323  0.00  0.00    +0.000 C 
ATOM      7  C   UNL     1      -4.888  -0.172 129.486  0.00  0.00    +0.000 C 
ATOM      8  C   UNL     1      -5.958  -0.424 128.089  0.00  0.00    +0.000 C 
ATOM      9  C   UNL     1      -6.758  -1.876 127.926  0.00  0.00    +0.000 C 
ATOM     10  C   UNL     1      -7.589  -1.972 126.694  0.00  0.00    +0.000 A 
ATOM     11  C   UNL     1      -7.229  -1.204 125.582  0.00  0.00    +0.000 A 
ATOM     12  C   UNL     1      -7.975  -1.283 124.432  0.00  0.00    +0.000 A 
ATOM     13  C   UNL     1      -9.033  -2.180 124.389  0.00  0.00    +0.000 A 
ATOM     14  C   UNL     1      -9.338  -3.015 125.454  0.00  0.00    +0.000 A 
ATOM     15  C   UNL     1      -8.603  -2.943 126.621  0.00  0.00    +0.000 A 
ATOM     16  C   UNL     1      -8.983  -3.872 127.752  0.00  0.00    +0.000 C 
ATOM     17  C   UNL     1      -7.968  -3.907 128.861  0.00  0.00    +0.000 C 
ATOM     18  C   UNL     1      -7.580  -2.495 129.213  0.00  0.00    +0.000 C 
ENDROOT
BRANCH   2  19
ATOM     19  O   UNL     1      -5.967  -4.696 130.686  0.00  0.00    +0.000 OA
ATOM     20  H   UNL     1      -6.111  -5.148 131.520  0.00  0.00    +0.000 HD
ENDBRANCH   2  19
BRANCH   3  21
ATOM     21  O   UNL     1      -4.549  -2.716 128.706  0.00  0.00    +0.000 OA
ATOM     22  H   UNL     1      -3.698  -3.166 128.897  0.00  0.00    +0.000 HD
ENDBRANCH   3  21
BRANCH   4  23
ATOM     23  O   UNL     1      -6.700   0.792 130.531  0.00  0.00    +0.000 OA
ATOM     24  H   UNL     1      -6.358   1.460 129.906  0.00  0.00    +0.000 HD
ENDBRANCH   4  23
BRANCH  13  25
ATOM     25  O   UNL     1      -9.824  -2.277 123.288  0.00  0.00    +0.000 OA
ATOM     26  H   UNL     1      -9.621  -3.121 122.857  0.00  0.00    +0.000 HD
ENDBRANCH  13  25
TORSDOF 4
ENDMDL
