MODEL 1
REMARK VINA RESULT:      -7.2      0.000      0.000
REMARK  Name = Estradiol dienanthate
REMARK  17 active torsions:
REMARK  status: ('A' for Active; 'I' for Inactive)
REMARK    1  A    between atoms: C_1  and  C_2
REMARK    2  A    between atoms: C_2  and  C_3
REMARK    3  A    between atoms: C_3  and  C_4
REMARK    4  A    between atoms: C_4  and  C_5
REMARK    5  A    between atoms: C_5  and  C_6
REMARK    6  A    between atoms: C_6  and  C_7
REMARK    7  A    between atoms: C_7  and  O_9
REMARK    8  A    between atoms: O_9  and  C_10
REMARK    9  A    between atoms: C_19  and  O_20
REMARK   10  A    between atoms: O_20  and  C_21
REMARK   11  A    between atoms: C_21  and  C_23
REMARK   12  A    between atoms: C_23  and  C_24
REMARK   13  A    between atoms: C_24  and  C_25
REMARK   14  A    between atoms: C_25  and  C_26
REMARK   15  A    between atoms: C_26  and  C_27
REMARK   16  A    between atoms: C_27  and  C_28
REMARK   17  A    between atoms: C_35  and  C_36
REMARK                            x       y       z     vdW  Elec       q    Type
REMARK                         _______ _______ _______ _____ _____    ______ ____
ROOT
ATOM      1  C   UNL     1      -8.645  -0.421 124.002  0.00  0.00    +0.000 C 
ATOM      2  C   UNL     1      -9.538   0.653 123.314  0.00  0.00    +0.000 C 
ATOM      3  C   UNL     1      -8.869   2.025 123.577  0.00  0.00    +0.000 C 
ATOM      4  C   UNL     1      -7.553   1.674 124.260  0.00  0.00    +0.000 C 
ATOM      5  C   UNL     1      -6.867   2.724 125.134  0.00  0.00    +0.000 C 
ATOM      6  C   UNL     1      -6.478   3.996 124.379  0.00  0.00    +0.000 C 
ATOM      7  C   UNL     1      -5.990   5.049 125.382  0.00  0.00    +0.000 C 
ATOM      8  C   UNL     1      -4.974   4.518 126.370  0.00  0.00    +0.000 A 
ATOM      9  C   UNL     1      -4.183   5.416 127.125  0.00  0.00    +0.000 A 
ATOM     10  C   UNL     1      -3.239   4.926 128.035  0.00  0.00    +0.000 A 
ATOM     11  C   UNL     1      -3.143   3.554 128.227  0.00  0.00    +0.000 A 
ATOM     12  C   UNL     1      -3.912   2.671 127.504  0.00  0.00    +0.000 A 
ATOM     13  C   UNL     1      -4.830   3.129 126.568  0.00  0.00    +0.000 A 
ATOM     14  C   UNL     1      -5.567   2.121 125.717  0.00  0.00    +0.000 C 
ATOM     15  C   UNL     1      -5.807   0.787 126.437  0.00  0.00    +0.000 C 
ATOM     16  C   UNL     1      -6.600  -0.191 125.597  0.00  0.00    +0.000 C 
ATOM     17  C   UNL     1      -7.905   0.412 125.075  0.00  0.00    +0.000 C 
ATOM     18  C   UNL     1      -8.860   0.666 126.270  0.00  0.00    +0.000 C 
ENDROOT
BRANCH   1  19
ATOM     19  O   UNL     1      -9.419  -1.497 124.575  0.00  0.00    +0.000 OA
BRANCH  19  20
ATOM     20  C   UNL     1      -9.025  -2.749 124.197  0.00  0.00    +0.000 C 
ATOM     21  O   UNL     1      -9.124  -3.197 123.056  0.00  0.00    +0.000 OA
BRANCH  20  22
ATOM     22  C   UNL     1      -8.471  -3.566 125.335  0.00  0.00    +0.000 C 
BRANCH  22  23
ATOM     23  C   UNL     1      -9.087  -3.075 126.655  0.00  0.00    +0.000 C 
BRANCH  23  24
ATOM     24  C   UNL     1      -8.796  -4.021 127.809  0.00  0.00    +0.000 C 
BRANCH  24  25
ATOM     25  C   UNL     1      -8.432  -3.238 129.069  0.00  0.00    +0.000 C 
BRANCH  25  27
ATOM     26  C   UNL     1      -7.630  -1.012 129.892  0.00  0.00    +0.000 C 
ATOM     27  C   UNL     1      -7.690  -1.957 128.705  0.00  0.00    +0.000 C 
ENDBRANCH  25  27
ENDBRANCH  24  25
ENDBRANCH  23  24
ENDBRANCH  22  23
ENDBRANCH  20  22
ENDBRANCH  19  20
ENDBRANCH   1  19
BRANCH  10  28
ATOM     28  O   UNL     1      -2.396   5.850 128.709  0.00  0.00    +0.000 OA
BRANCH  28  29
ATOM     29  C   UNL     1      -2.632   6.159 130.052  0.00  0.00    +0.000 C 
ATOM     30  O   UNL     1      -2.040   5.706 131.027  0.00  0.00    +0.000 OA
BRANCH  29  31
ATOM     31  C   UNL     1      -3.737   7.156 130.241  0.00  0.00    +0.000 C 
BRANCH  31  32
ATOM     32  C   UNL     1      -4.735   6.504 131.213  0.00  0.00    +0.000 C 
BRANCH  32  33
ATOM     33  C   UNL     1      -5.839   5.754 130.504  0.00  0.00    +0.000 C 
BRANCH  33  34
ATOM     34  C   UNL     1      -5.731   4.261 130.801  0.00  0.00    +0.000 C 
BRANCH  34  35
ATOM     35  C   UNL     1      -6.593   3.473 129.827  0.00  0.00    +0.000 C 
ATOM     36  C   UNL     1      -7.508   4.397 129.048  0.00  0.00    +0.000 C 
ENDBRANCH  34  35
ENDBRANCH  33  34
ENDBRANCH  32  33
ENDBRANCH  31  32
ENDBRANCH  29  31
ENDBRANCH  28  29
ENDBRANCH  10  28
TORSDOF 14
ENDMDL
MODEL 2
REMARK VINA RESULT:      -7.1      4.745      9.457
REMARK  Name = Estradiol dienanthate
REMARK  17 active torsions:
REMARK  status: ('A' for Active; 'I' for Inactive)
REMARK    1  A    between atoms: C_1  and  C_2
REMARK    2  A    between atoms: C_2  and  C_3
REMARK    3  A    between atoms: C_3  and  C_4
REMARK    4  A    between atoms: C_4  and  C_5
REMARK    5  A    between atoms: C_5  and  C_6
REMARK    6  A    between atoms: C_6  and  C_7
REMARK    7  A    between atoms: C_7  and  O_9
REMARK    8  A    between atoms: O_9  and  C_10
REMARK    9  A    between atoms: C_19  and  O_20
REMARK   10  A    between atoms: O_20  and  C_21
REMARK   11  A    between atoms: C_21  and  C_23
REMARK   12  A    between atoms: C_23  and  C_24
REMARK   13  A    between atoms: C_24  and  C_25
REMARK   14  A    between atoms: C_25  and  C_26
REMARK   15  A    between atoms: C_26  and  C_27
REMARK   16  A    between atoms: C_27  and  C_28
REMARK   17  A    between atoms: C_35  and  C_36
REMARK                            x       y       z     vdW  Elec       q    Type
REMARK                         _______ _______ _______ _____ _____    ______ ____
ROOT
ATOM      1  C   UNL     1      -3.755  -3.176 132.857  0.00  0.00    +0.000 C 
ATOM      2  C   UNL     1      -3.125  -1.752 132.841  0.00  0.00    +0.000 C 
ATOM      3  C   UNL     1      -3.899  -0.933 131.778  0.00  0.00    +0.000 C 
ATOM      4  C   UNL     1      -5.029  -1.859 131.344  0.00  0.00    +0.000 C 
ATOM      5  C   UNL     1      -5.677  -1.648 129.976  0.00  0.00    +0.000 C 
ATOM      6  C   UNL     1      -6.337  -0.278 129.812  0.00  0.00    +0.000 C 
ATOM      7  C   UNL     1      -6.772  -0.099 128.351  0.00  0.00    +0.000 C 
ATOM      8  C   UNL     1      -7.535  -1.283 127.797  0.00  0.00    +0.000 A 
ATOM      9  C   UNL     1      -8.289  -1.147 126.607  0.00  0.00    +0.000 A 
ATOM     10  C   UNL     1      -9.000  -2.239 126.097  0.00  0.00    +0.000 A 
ATOM     11  C   UNL     1      -8.898  -3.465 126.743  0.00  0.00    +0.000 A 
ATOM     12  C   UNL     1      -8.162  -3.611 127.896  0.00  0.00    +0.000 A 
ATOM     13  C   UNL     1      -7.477  -2.535 128.444  0.00  0.00    +0.000 A 
ATOM     14  C   UNL     1      -6.780  -2.715 129.773  0.00  0.00    +0.000 C 
ATOM     15  C   UNL     1      -6.264  -4.144 129.993  0.00  0.00    +0.000 C 
ATOM     16  C   UNL     1      -5.513  -4.296 131.298  0.00  0.00    +0.000 C 
ATOM     17  C   UNL     1      -4.396  -3.262 131.452  0.00  0.00    +0.000 C 
ATOM     18  C   UNL     1      -3.290  -3.549 130.404  0.00  0.00    +0.000 C 
ENDROOT
BRANCH   1  19
ATOM     19  O   UNL     1      -2.772  -4.211 133.079  0.00  0.00    +0.000 OA
BRANCH  19  20
ATOM     20  C   UNL     1      -2.910  -4.887 134.258  0.00  0.00    +0.000 C 
ATOM     21  O   UNL     1      -2.233  -4.680 135.264  0.00  0.00    +0.000 OA
BRANCH  20  22
ATOM     22  C   UNL     1      -3.970  -5.955 134.209  0.00  0.00    +0.000 C 
BRANCH  22  23
ATOM     23  C   UNL     1      -5.104  -5.586 135.180  0.00  0.00    +0.000 C 
BRANCH  23  24
ATOM     24  C   UNL     1      -6.475  -5.744 134.544  0.00  0.00    +0.000 C 
BRANCH  24  25
ATOM     25  C   UNL     1      -7.417  -4.635 135.010  0.00  0.00    +0.000 C 
BRANCH  25  27
ATOM     26  C   UNL     1      -7.890  -2.590 133.642  0.00  0.00    +0.000 C 
ATOM     27  C   UNL     1      -6.897  -3.273 134.566  0.00  0.00    +0.000 C 
ENDBRANCH  25  27
ENDBRANCH  24  25
ENDBRANCH  23  24
ENDBRANCH  22  23
ENDBRANCH  20  22
ENDBRANCH  19  20
ENDBRANCH   1  19
BRANCH  10  28
ATOM     28  O   UNL     1      -9.821  -2.047 124.954  0.00  0.00    +0.000 OA
BRANCH  28  29
ATOM     29  C   UNL     1      -9.380  -2.473 123.698  0.00  0.00    +0.000 C 
ATOM     30  O   UNL     1      -9.506  -3.594 123.215  0.00  0.00    +0.000 OA
BRANCH  29  31
ATOM     31  C   UNL     1      -8.690  -1.393 122.918  0.00  0.00    +0.000 C 
BRANCH  31  32
ATOM     32  C   UNL     1      -7.309  -1.956 122.544  0.00  0.00    +0.000 C 
BRANCH  32  33
ATOM     33  C   UNL     1      -6.277  -1.746 123.626  0.00  0.00    +0.000 C 
BRANCH  33  34
ATOM     34  C   UNL     1      -5.065  -2.637 123.372  0.00  0.00    +0.000 C 
BRANCH  34  35
ATOM     35  C   UNL     1      -5.269  -3.994 124.029  0.00  0.00    +0.000 C 
ATOM     36  C   UNL     1      -4.235  -4.990 123.542  0.00  0.00    +0.000 C 
ENDBRANCH  34  35
ENDBRANCH  33  34
ENDBRANCH  32  33
ENDBRANCH  31  32
ENDBRANCH  29  31
ENDBRANCH  28  29
ENDBRANCH  10  28
TORSDOF 14
ENDMDL
MODEL 3
REMARK VINA RESULT:      -7.0      3.676      9.504
REMARK  Name = Estradiol dienanthate
REMARK  17 active torsions:
REMARK  status: ('A' for Active; 'I' for Inactive)
REMARK    1  A    between atoms: C_1  and  C_2
REMARK    2  A    between atoms: C_2  and  C_3
REMARK    3  A    between atoms: C_3  and  C_4
REMARK    4  A    between atoms: C_4  and  C_5
REMARK    5  A    between atoms: C_5  and  C_6
REMARK    6  A    between atoms: C_6  and  C_7
REMARK    7  A    between atoms: C_7  and  O_9
REMARK    8  A    between atoms: O_9  and  C_10
REMARK    9  A    between atoms: C_19  and  O_20
REMARK   10  A    between atoms: O_20  and  C_21
REMARK   11  A    between atoms: C_21  and  C_23
REMARK   12  A    between atoms: C_23  and  C_24
REMARK   13  A    between atoms: C_24  and  C_25
REMARK   14  A    between atoms: C_25  and  C_26
REMARK   15  A    between atoms: C_26  and  C_27
REMARK   16  A    between atoms: C_27  and  C_28
REMARK   17  A    between atoms: C_35  and  C_36
REMARK                            x       y       z     vdW  Elec       q    Type
REMARK                         _______ _______ _______ _____ _____    ______ ____
ROOT
ATOM      1  C   UNL     1      -7.645   3.481 132.637  0.00  0.00    +0.000 C 
ATOM      2  C   UNL     1      -7.194   2.343 133.598  0.00  0.00    +0.000 C 
ATOM      3  C   UNL     1      -7.069   1.059 132.742  0.00  0.00    +0.000 C 
ATOM      4  C   UNL     1      -7.298   1.539 131.314  0.00  0.00    +0.000 C 
ATOM      5  C   UNL     1      -7.774   0.536 130.262  0.00  0.00    +0.000 C 
ATOM      6  C   UNL     1      -6.804  -0.623 130.032  0.00  0.00    +0.000 C 
ATOM      7  C   UNL     1      -7.467  -1.662 129.118  0.00  0.00    +0.000 C 
ATOM      8  C   UNL     1      -8.101  -1.063 127.882  0.00  0.00    +0.000 A 
ATOM      9  C   UNL     1      -8.445  -1.893 126.789  0.00  0.00    +0.000 A 
ATOM     10  C   UNL     1      -9.027  -1.340 125.642  0.00  0.00    +0.000 A 
ATOM     11  C   UNL     1      -9.317   0.019 125.627  0.00  0.00    +0.000 A 
ATOM     12  C   UNL     1      -8.993   0.835 126.687  0.00  0.00    +0.000 A 
ATOM     13  C   UNL     1      -8.382   0.318 127.822  0.00  0.00    +0.000 A 
ATOM     14  C   UNL     1      -7.941   1.270 128.909  0.00  0.00    +0.000 C 
ATOM     15  C   UNL     1      -8.834   2.513 129.019  0.00  0.00    +0.000 C 
ATOM     16  C   UNL     1      -8.420   3.427 130.152  0.00  0.00    +0.000 C 
ATOM     17  C   UNL     1      -8.311   2.690 131.487  0.00  0.00    +0.000 C 
ATOM     18  C   UNL     1      -9.726   2.238 131.934  0.00  0.00    +0.000 C 
ENDROOT
BRANCH   1  19
ATOM     19  O   UNL     1      -8.556   4.408 133.268  0.00  0.00    +0.000 OA
BRANCH  19  20
ATOM     20  C   UNL     1      -8.671   5.615 132.640  0.00  0.00    +0.000 C 
ATOM     21  O   UNL     1      -7.722   6.292 132.249  0.00  0.00    +0.000 OA
BRANCH  20  22
ATOM     22  C   UNL     1     -10.099   6.072 132.490  0.00  0.00    +0.000 C 
BRANCH  22  23
ATOM     23  C   UNL     1     -10.348   6.476 131.028  0.00  0.00    +0.000 C 
BRANCH  23  24
ATOM     24  C   UNL     1     -11.428   5.628 130.376  0.00  0.00    +0.000 C 
BRANCH  24  25
ATOM     25  C   UNL     1     -12.362   6.496 129.536  0.00  0.00    +0.000 C 
BRANCH  25  27
ATOM     26  C   UNL     1     -12.662   8.983 129.493  0.00  0.00    +0.000 C 
ATOM     27  C   UNL     1     -12.805   7.722 130.326  0.00  0.00    +0.000 C 
ENDBRANCH  25  27
ENDBRANCH  24  25
ENDBRANCH  23  24
ENDBRANCH  22  23
ENDBRANCH  20  22
ENDBRANCH  19  20
ENDBRANCH   1  19
BRANCH  10  28
ATOM     28  O   UNL     1      -9.275  -2.184 124.526  0.00  0.00    +0.000 OA
BRANCH  28  29
ATOM     29  C   UNL     1      -9.061  -1.707 123.229  0.00  0.00    +0.000 C 
ATOM     30  O   UNL     1      -9.826  -1.017 122.563  0.00  0.00    +0.000 OA
BRANCH  29  31
ATOM     31  C   UNL     1      -7.735  -2.121 122.662  0.00  0.00    +0.000 C 
BRANCH  31  32
ATOM     32  C   UNL     1      -6.730  -1.045 123.103  0.00  0.00    +0.000 C 
BRANCH  32  33
ATOM     33  C   UNL     1      -5.787  -1.529 124.178  0.00  0.00    +0.000 C 
BRANCH  33  34
ATOM     34  C   UNL     1      -5.770  -3.055 124.211  0.00  0.00    +0.000 C 
BRANCH  34  35
ATOM     35  C   UNL     1      -4.382  -3.569 123.857  0.00  0.00    +0.000 C 
ATOM     36  C   UNL     1      -4.441  -5.018 123.415  0.00  0.00    +0.000 C 
ENDBRANCH  34  35
ENDBRANCH  33  34
ENDBRANCH  32  33
ENDBRANCH  31  32
ENDBRANCH  29  31
ENDBRANCH  28  29
ENDBRANCH  10  28
TORSDOF 14
ENDMDL
MODEL 4
REMARK VINA RESULT:      -6.9      2.080      4.715
REMARK  Name = Estradiol dienanthate
REMARK  17 active torsions:
REMARK  status: ('A' for Active; 'I' for Inactive)
REMARK    1  A    between atoms: C_1  and  C_2
REMARK    2  A    between atoms: C_2  and  C_3
REMARK    3  A    between atoms: C_3  and  C_4
REMARK    4  A    between atoms: C_4  and  C_5
REMARK    5  A    between atoms: C_5  and  C_6
REMARK    6  A    between atoms: C_6  and  C_7
REMARK    7  A    between atoms: C_7  and  O_9
REMARK    8  A    between atoms: O_9  and  C_10
REMARK    9  A    between atoms: C_19  and  O_20
REMARK   10  A    between atoms: O_20  and  C_21
REMARK   11  A    between atoms: C_21  and  C_23
REMARK   12  A    between atoms: C_23  and  C_24
REMARK   13  A    between atoms: C_24  and  C_25
REMARK   14  A    between atoms: C_25  and  C_26
REMARK   15  A    between atoms: C_26  and  C_27
REMARK   16  A    between atoms: C_27  and  C_28
REMARK   17  A    between atoms: C_35  and  C_36
REMARK                            x       y       z     vdW  Elec       q    Type
REMARK                         _______ _______ _______ _____ _____    ______ ____
ROOT
ATOM      1  C   UNL     1      -8.308  -2.695 127.609  0.00  0.00    +0.000 C 
ATOM      2  C   UNL     1      -7.837  -3.558 128.816  0.00  0.00    +0.000 C 
ATOM      3  C   UNL     1      -7.335  -2.572 129.900  0.00  0.00    +0.000 C 
ATOM      4  C   UNL     1      -7.680  -1.196 129.342  0.00  0.00    +0.000 C 
ATOM      5  C   UNL     1      -6.900   0.021 129.838  0.00  0.00    +0.000 C 
ATOM      6  C   UNL     1      -7.034   0.270 131.340  0.00  0.00    +0.000 C 
ATOM      7  C   UNL     1      -6.060   1.380 131.757  0.00  0.00    +0.000 C 
ATOM      8  C   UNL     1      -6.119   2.603 130.867  0.00  0.00    +0.000 A 
ATOM      9  C   UNL     1      -5.551   3.824 131.301  0.00  0.00    +0.000 A 
ATOM     10  C   UNL     1      -5.610   4.957 130.481  0.00  0.00    +0.000 A 
ATOM     11  C   UNL     1      -6.175   4.840 129.217  0.00  0.00    +0.000 A 
ATOM     12  C   UNL     1      -6.724   3.656 128.782  0.00  0.00    +0.000 A 
ATOM     13  C   UNL     1      -6.712   2.526 129.590  0.00  0.00    +0.000 A 
ATOM     14  C   UNL     1      -7.429   1.284 129.115  0.00  0.00    +0.000 C 
ATOM     15  C   UNL     1      -7.426   1.134 127.587  0.00  0.00    +0.000 C 
ATOM     16  C   UNL     1      -8.092  -0.146 127.129  0.00  0.00    +0.000 C 
ATOM     17  C   UNL     1      -7.517  -1.383 127.819  0.00  0.00    +0.000 C 
ATOM     18  C   UNL     1      -6.053  -1.592 127.352  0.00  0.00    +0.000 C 
ENDROOT
BRANCH   1  19
ATOM     19  O   UNL     1      -8.017  -3.318 126.339  0.00  0.00    +0.000 OA
BRANCH  19  20
ATOM     20  C   UNL     1      -8.929  -3.065 125.354  0.00  0.00    +0.000 C 
ATOM     21  O   UNL     1     -10.140  -2.955 125.537  0.00  0.00    +0.000 OA
BRANCH  20  22
ATOM     22  C   UNL     1      -8.310  -2.957 123.985  0.00  0.00    +0.000 C 
BRANCH  22  23
ATOM     23  C   UNL     1      -7.883  -1.502 123.738  0.00  0.00    +0.000 C 
BRANCH  23  24
ATOM     24  C   UNL     1      -6.379  -1.369 123.562  0.00  0.00    +0.000 C 
BRANCH  24  25
ATOM     25  C   UNL     1      -5.787  -2.656 122.992  0.00  0.00    +0.000 C 
BRANCH  25  27
ATOM     26  C   UNL     1      -4.343  -4.613 123.592  0.00  0.00    +0.000 C 
ATOM     27  C   UNL     1      -4.643  -3.151 123.870  0.00  0.00    +0.000 C 
ENDBRANCH  25  27
ENDBRANCH  24  25
ENDBRANCH  23  24
ENDBRANCH  22  23
ENDBRANCH  20  22
ENDBRANCH  19  20
ENDBRANCH   1  19
BRANCH  10  28
ATOM     28  O   UNL     1      -5.114   6.190 130.983  0.00  0.00    +0.000 OA
BRANCH  28  29
ATOM     29  C   UNL     1      -4.179   6.919 130.242  0.00  0.00    +0.000 C 
ATOM     30  O   UNL     1      -4.381   7.957 129.620  0.00  0.00    +0.000 OA
BRANCH  29  31
ATOM     31  C   UNL     1      -2.810   6.306 130.256  0.00  0.00    +0.000 C 
BRANCH  31  32
ATOM     32  C   UNL     1      -2.259   6.465 128.829  0.00  0.00    +0.000 C 
BRANCH  32  33
ATOM     33  C   UNL     1      -2.918   5.534 127.839  0.00  0.00    +0.000 C 
BRANCH  33  34
ATOM     34  C   UNL     1      -2.737   4.085 128.283  0.00  0.00    +0.000 C 
BRANCH  34  35
ATOM     35  C   UNL     1      -2.849   3.155 127.084  0.00  0.00    +0.000 C 
ATOM     36  C   UNL     1      -1.493   2.939 126.442  0.00  0.00    +0.000 C 
ENDBRANCH  34  35
ENDBRANCH  33  34
ENDBRANCH  32  33
ENDBRANCH  31  32
ENDBRANCH  29  31
ENDBRANCH  28  29
ENDBRANCH  10  28
TORSDOF 14
ENDMDL
MODEL 5
REMARK VINA RESULT:      -6.8      2.494      4.766
REMARK  Name = Estradiol dienanthate
REMARK  17 active torsions:
REMARK  status: ('A' for Active; 'I' for Inactive)
REMARK    1  A    between atoms: C_1  and  C_2
REMARK    2  A    between atoms: C_2  and  C_3
REMARK    3  A    between atoms: C_3  and  C_4
REMARK    4  A    between atoms: C_4  and  C_5
REMARK    5  A    between atoms: C_5  and  C_6
REMARK    6  A    between atoms: C_6  and  C_7
REMARK    7  A    between atoms: C_7  and  O_9
REMARK    8  A    between atoms: O_9  and  C_10
REMARK    9  A    between atoms: C_19  and  O_20
REMARK   10  A    between atoms: O_20  and  C_21
REMARK   11  A    between atoms: C_21  and  C_23
REMARK   12  A    between atoms: C_23  and  C_24
REMARK   13  A    between atoms: C_24  and  C_25
REMARK   14  A    between atoms: C_25  and  C_26
REMARK   15  A    between atoms: C_26  and  C_27
REMARK   16  A    between atoms: C_27  and  C_28
REMARK   17  A    between atoms: C_35  and  C_36
REMARK                            x       y       z     vdW  Elec       q    Type
REMARK                         _______ _______ _______ _____ _____    ______ ____
ROOT
ATOM      1  C   UNL     1      -8.698  -3.050 126.750  0.00  0.00    +0.000 C 
ATOM      2  C   UNL     1      -8.537  -3.995 127.977  0.00  0.00    +0.000 C 
ATOM      3  C   UNL     1      -8.182  -3.098 129.189  0.00  0.00    +0.000 C 
ATOM      4  C   UNL     1      -8.307  -1.678 128.650  0.00  0.00    +0.000 C 
ATOM      5  C   UNL     1      -7.548  -0.550 129.350  0.00  0.00    +0.000 C 
ATOM      6  C   UNL     1      -7.952  -0.349 130.811  0.00  0.00    +0.000 C 
ATOM      7  C   UNL     1      -6.997   0.658 131.466  0.00  0.00    +0.000 C 
ATOM      8  C   UNL     1      -6.789   1.914 130.648  0.00  0.00    +0.000 A 
ATOM      9  C   UNL     1      -6.226   3.065 131.248  0.00  0.00    +0.000 A 
ATOM     10  C   UNL     1      -6.039   4.230 130.494  0.00  0.00    +0.000 A 
ATOM     11  C   UNL     1      -6.354   4.210 129.142  0.00  0.00    +0.000 A 
ATOM     12  C   UNL     1      -6.896   3.095 128.546  0.00  0.00    +0.000 A 
ATOM     13  C   UNL     1      -7.127   1.938 129.279  0.00  0.00    +0.000 A 
ATOM     14  C   UNL     1      -7.830   0.780 128.610  0.00  0.00    +0.000 C 
ATOM     15  C   UNL     1      -7.542   0.689 127.105  0.00  0.00    +0.000 C 
ATOM     16  C   UNL     1      -8.200  -0.511 126.459  0.00  0.00    +0.000 C 
ATOM     17  C   UNL     1      -7.866  -1.819 127.179  0.00  0.00    +0.000 C 
ATOM     18  C   UNL     1      -6.359  -2.132 126.987  0.00  0.00    +0.000 C 
ENDROOT
BRANCH   1  19
ATOM     19  O   UNL     1      -8.213  -3.646 125.527  0.00  0.00    +0.000 OA
BRANCH  19  20
ATOM     20  C   UNL     1      -8.942  -3.340 124.413  0.00  0.00    +0.000 C 
ATOM     21  O   UNL     1     -10.170  -3.296 124.373  0.00  0.00    +0.000 OA
BRANCH  20  22
ATOM     22  C   UNL     1      -8.089  -3.082 123.199  0.00  0.00    +0.000 C 
BRANCH  22  23
ATOM     23  C   UNL     1      -7.656  -1.607 123.190  0.00  0.00    +0.000 C 
BRANCH  23  24
ATOM     24  C   UNL     1      -6.153  -1.451 123.360  0.00  0.00    +0.000 C 
BRANCH  24  25
ATOM     25  C   UNL     1      -5.418  -2.665 122.795  0.00  0.00    +0.000 C 
BRANCH  25  27
ATOM     26  C   UNL     1      -4.312  -4.792 123.521  0.00  0.00    +0.000 C 
ATOM     27  C   UNL     1      -4.597  -3.346 123.884  0.00  0.00    +0.000 C 
ENDBRANCH  25  27
ENDBRANCH  24  25
ENDBRANCH  23  24
ENDBRANCH  22  23
ENDBRANCH  20  22
ENDBRANCH  19  20
ENDBRANCH   1  19
BRANCH  10  28
ATOM     28  O   UNL     1      -5.558   5.397 131.147  0.00  0.00    +0.000 OA
BRANCH  28  29
ATOM     29  C   UNL     1      -6.270   6.596 131.047  0.00  0.00    +0.000 C 
ATOM     30  O   UNL     1      -5.922   7.610 130.450  0.00  0.00    +0.000 OA
BRANCH  29  31
ATOM     31  C   UNL     1      -7.585   6.562 131.767  0.00  0.00    +0.000 C 
BRANCH  31  32
ATOM     32  C   UNL     1      -8.667   6.576 130.675  0.00  0.00    +0.000 C 
BRANCH  32  33
ATOM     33  C   UNL     1     -10.064   6.703 131.236  0.00  0.00    +0.000 C 
BRANCH  33  34
ATOM     34  C   UNL     1     -10.881   5.462 130.890  0.00  0.00    +0.000 C 
BRANCH  34  35
ATOM     35  C   UNL     1      -9.988   4.414 130.242  0.00  0.00    +0.000 C 
ATOM     36  C   UNL     1     -10.303   3.032 130.780  0.00  0.00    +0.000 C 
ENDBRANCH  34  35
ENDBRANCH  33  34
ENDBRANCH  32  33
ENDBRANCH  31  32
ENDBRANCH  29  31
ENDBRANCH  28  29
ENDBRANCH  10  28
TORSDOF 14
ENDMDL
MODEL 6
REMARK VINA RESULT:      -6.8      4.197      7.210
REMARK  Name = Estradiol dienanthate
REMARK  17 active torsions:
REMARK  status: ('A' for Active; 'I' for Inactive)
REMARK    1  A    between atoms: C_1  and  C_2
REMARK    2  A    between atoms: C_2  and  C_3
REMARK    3  A    between atoms: C_3  and  C_4
REMARK    4  A    between atoms: C_4  and  C_5
REMARK    5  A    between atoms: C_5  and  C_6
REMARK    6  A    between atoms: C_6  and  C_7
REMARK    7  A    between atoms: C_7  and  O_9
REMARK    8  A    between atoms: O_9  and  C_10
REMARK    9  A    between atoms: C_19  and  O_20
REMARK   10  A    between atoms: O_20  and  C_21
REMARK   11  A    between atoms: C_21  and  C_23
REMARK   12  A    between atoms: C_23  and  C_24
REMARK   13  A    between atoms: C_24  and  C_25
REMARK   14  A    between atoms: C_25  and  C_26
REMARK   15  A    between atoms: C_26  and  C_27
REMARK   16  A    between atoms: C_27  and  C_28
REMARK   17  A    between atoms: C_35  and  C_36
REMARK                            x       y       z     vdW  Elec       q    Type
REMARK                         _______ _______ _______ _____ _____    ______ ____
ROOT
ATOM      1  C   UNL     1      -8.981  -0.971 124.245  0.00  0.00    +0.000 C 
ATOM      2  C   UNL     1      -8.812  -2.475 123.877  0.00  0.00    +0.000 C 
ATOM      3  C   UNL     1      -8.512  -3.227 125.197  0.00  0.00    +0.000 C 
ATOM      4  C   UNL     1      -8.677  -2.164 126.278  0.00  0.00    +0.000 C 
ATOM      5  C   UNL     1      -7.972  -2.357 127.621  0.00  0.00    +0.000 C 
ATOM      6  C   UNL     1      -8.412  -3.613 128.373  0.00  0.00    +0.000 C 
ATOM      7  C   UNL     1      -7.506  -3.813 129.595  0.00  0.00    +0.000 C 
ATOM      8  C   UNL     1      -7.327  -2.562 130.426  0.00  0.00    +0.000 A 
ATOM      9  C   UNL     1      -6.816  -2.653 131.743  0.00  0.00    +0.000 A 
ATOM     10  C   UNL     1      -6.655  -1.496 132.515  0.00  0.00    +0.000 A 
ATOM     11  C   UNL     1      -6.943  -0.264 131.943  0.00  0.00    +0.000 A 
ATOM     12  C   UNL     1      -7.433  -0.162 130.662  0.00  0.00    +0.000 A 
ATOM     13  C   UNL     1      -7.637  -1.297 129.887  0.00  0.00    +0.000 A 
ATOM     14  C   UNL     1      -8.286  -1.144 128.530  0.00  0.00    +0.000 C 
ATOM     15  C   UNL     1      -7.965   0.197 127.856  0.00  0.00    +0.000 C 
ATOM     16  C   UNL     1      -8.568   0.310 126.473  0.00  0.00    +0.000 C 
ATOM     17  C   UNL     1      -8.202  -0.874 125.577  0.00  0.00    +0.000 C 
ATOM     18  C   UNL     1      -6.681  -0.830 125.275  0.00  0.00    +0.000 C 
ENDROOT
BRANCH   1  19
ATOM     19  O   UNL     1      -8.452  -0.091 123.230  0.00  0.00    +0.000 OA
BRANCH  19  20
ATOM     20  C   UNL     1      -9.330   0.851 122.774  0.00  0.00    +0.000 C 
ATOM     21  O   UNL     1     -10.447   0.604 122.324  0.00  0.00    +0.000 OA
BRANCH  20  22
ATOM     22  C   UNL     1      -8.785   2.253 122.846  0.00  0.00    +0.000 C 
BRANCH  22  23
ATOM     23  C   UNL     1      -7.286   2.196 123.180  0.00  0.00    +0.000 C 
BRANCH  23  24
ATOM     24  C   UNL     1      -6.464   3.102 122.277  0.00  0.00    +0.000 C 
BRANCH  24  25
ATOM     25  C   UNL     1      -7.330   3.679 121.160  0.00  0.00    +0.000 C 
BRANCH  25  27
ATOM     26  C   UNL     1      -7.285   4.504 118.795  0.00  0.00    +0.000 C 
ATOM     27  C   UNL     1      -6.457   4.223 120.035  0.00  0.00    +0.000 C 
ENDBRANCH  25  27
ENDBRANCH  24  25
ENDBRANCH  23  24
ENDBRANCH  22  23
ENDBRANCH  20  22
ENDBRANCH  19  20
ENDBRANCH   1  19
BRANCH  10  28
ATOM     28  O   UNL     1      -6.229  -1.629 133.864  0.00  0.00    +0.000 OA
BRANCH  28  29
ATOM     29  C   UNL     1      -4.990  -1.114 134.258  0.00  0.00    +0.000 C 
ATOM     30  O   UNL     1      -4.788  -0.067 134.866  0.00  0.00    +0.000 OA
BRANCH  29  31
ATOM     31  C   UNL     1      -3.837  -1.987 133.862  0.00  0.00    +0.000 C 
BRANCH  31  32
ATOM     32  C   UNL     1      -3.163  -1.286 132.672  0.00  0.00    +0.000 C 
BRANCH  32  33
ATOM     33  C   UNL     1      -3.171  -2.125 131.416  0.00  0.00    +0.000 C 
BRANCH  33  34
ATOM     34  C   UNL     1      -3.732  -1.316 130.250  0.00  0.00    +0.000 C 
BRANCH  34  35
ATOM     35  C   UNL     1      -4.148  -2.248 129.122  0.00  0.00    +0.000 C 
ATOM     36  C   UNL     1      -3.507  -3.612 129.286  0.00  0.00    +0.000 C 
ENDBRANCH  34  35
ENDBRANCH  33  34
ENDBRANCH  32  33
ENDBRANCH  31  32
ENDBRANCH  29  31
ENDBRANCH  28  29
ENDBRANCH  10  28
TORSDOF 14
ENDMDL
MODEL 7
REMARK VINA RESULT:      -6.8      5.097      9.552
REMARK  Name = Estradiol dienanthate
REMARK  17 active torsions:
REMARK  status: ('A' for Active; 'I' for Inactive)
REMARK    1  A    between atoms: C_1  and  C_2
REMARK    2  A    between atoms: C_2  and  C_3
REMARK    3  A    between atoms: C_3  and  C_4
REMARK    4  A    between atoms: C_4  and  C_5
REMARK    5  A    between atoms: C_5  and  C_6
REMARK    6  A    between atoms: C_6  and  C_7
REMARK    7  A    between atoms: C_7  and  O_9
REMARK    8  A    between atoms: O_9  and  C_10
REMARK    9  A    between atoms: C_19  and  O_20
REMARK   10  A    between atoms: O_20  and  C_21
REMARK   11  A    between atoms: C_21  and  C_23
REMARK   12  A    between atoms: C_23  and  C_24
REMARK   13  A    between atoms: C_24  and  C_25
REMARK   14  A    between atoms: C_25  and  C_26
REMARK   15  A    between atoms: C_26  and  C_27
REMARK   16  A    between atoms: C_27  and  C_28
REMARK   17  A    between atoms: C_35  and  C_36
REMARK                            x       y       z     vdW  Elec       q    Type
REMARK                         _______ _______ _______ _____ _____    ______ ____
ROOT
ATOM      1  C   UNL     1      -9.095   5.141 131.181  0.00  0.00    +0.000 C 
ATOM      2  C   UNL     1      -7.745   5.903 131.319  0.00  0.00    +0.000 C 
ATOM      3  C   UNL     1      -6.650   4.832 131.555  0.00  0.00    +0.000 C 
ATOM      4  C   UNL     1      -7.383   3.507 131.387  0.00  0.00    +0.000 C 
ATOM      5  C   UNL     1      -6.806   2.252 132.043  0.00  0.00    +0.000 C 
ATOM      6  C   UNL     1      -5.409   1.883 131.543  0.00  0.00    +0.000 C 
ATOM      7  C   UNL     1      -4.850   0.742 132.404  0.00  0.00    +0.000 C 
ATOM      8  C   UNL     1      -5.820  -0.404 132.593  0.00  0.00    +0.000 A 
ATOM      9  C   UNL     1      -5.355  -1.657 133.058  0.00  0.00    +0.000 A 
ATOM     10  C   UNL     1      -6.250  -2.720 133.228  0.00  0.00    +0.000 A 
ATOM     11  C   UNL     1      -7.601  -2.501 132.994  0.00  0.00    +0.000 A 
ATOM     12  C   UNL     1      -8.066  -1.285 132.548  0.00  0.00    +0.000 A 
ATOM     13  C   UNL     1      -7.195  -0.225 132.336  0.00  0.00    +0.000 A 
ATOM     14  C   UNL     1      -7.735   1.053 131.735  0.00  0.00    +0.000 C 
ATOM     15  C   UNL     1      -9.196   1.326 132.116  0.00  0.00    +0.000 C 
ATOM     16  C   UNL     1      -9.705   2.639 131.561  0.00  0.00    +0.000 C 
ATOM     17  C   UNL     1      -8.797   3.816 131.921  0.00  0.00    +0.000 C 
ATOM     18  C   UNL     1      -8.867   4.061 133.451  0.00  0.00    +0.000 C 
ENDROOT
BRANCH   1  19
ATOM     19  O   UNL     1     -10.199   5.865 131.768  0.00  0.00    +0.000 OA
BRANCH  19  20
ATOM     20  C   UNL     1     -11.312   5.949 130.980  0.00  0.00    +0.000 C 
ATOM     21  O   UNL     1     -11.462   5.347 129.918  0.00  0.00    +0.000 OA
BRANCH  20  22
ATOM     22  C   UNL     1     -12.354   6.891 131.523  0.00  0.00    +0.000 C 
BRANCH  22  23
ATOM     23  C   UNL     1     -13.202   7.431 130.361  0.00  0.00    +0.000 C 
BRANCH  23  24
ATOM     24  C   UNL     1     -12.723   8.794 129.888  0.00  0.00    +0.000 C 
BRANCH  24  25
ATOM     25  C   UNL     1     -12.887   8.928 128.376  0.00  0.00    +0.000 C 
BRANCH  25  27
ATOM     26  C   UNL     1     -10.451   8.406 128.118  0.00  0.00    +0.000 C 
ATOM     27  C   UNL     1     -11.855   8.074 127.648  0.00  0.00    +0.000 C 
ENDBRANCH  25  27
ENDBRANCH  24  25
ENDBRANCH  23  24
ENDBRANCH  22  23
ENDBRANCH  20  22
ENDBRANCH  19  20
ENDBRANCH   1  19
BRANCH  10  28
ATOM     28  O   UNL     1      -5.738  -3.990 133.607  0.00  0.00    +0.000 OA
BRANCH  28  29
ATOM     29  C   UNL     1      -4.846  -4.662 132.766  0.00  0.00    +0.000 C 
ATOM     30  O   UNL     1      -3.666  -4.911 132.994  0.00  0.00    +0.000 OA
BRANCH  29  31
ATOM     31  C   UNL     1      -5.469  -5.094 131.472  0.00  0.00    +0.000 C 
BRANCH  31  32
ATOM     32  C   UNL     1      -4.754  -4.293 130.370  0.00  0.00    +0.000 C 
BRANCH  32  33
ATOM     33  C   UNL     1      -5.634  -3.233 129.751  0.00  0.00    +0.000 C 
BRANCH  33  34
ATOM     34  C   UNL     1      -7.070  -3.740 129.650  0.00  0.00    +0.000 C 
BRANCH  34  35
ATOM     35  C   UNL     1      -7.968  -2.651 129.081  0.00  0.00    +0.000 C 
ATOM     36  C   UNL     1      -7.190  -1.366 128.871  0.00  0.00    +0.000 C 
ENDBRANCH  34  35
ENDBRANCH  33  34
ENDBRANCH  32  33
ENDBRANCH  31  32
ENDBRANCH  29  31
ENDBRANCH  28  29
ENDBRANCH  10  28
TORSDOF 14
ENDMDL
MODEL 8
REMARK VINA RESULT:      -6.6      1.579      2.710
REMARK  Name = Estradiol dienanthate
REMARK  17 active torsions:
REMARK  status: ('A' for Active; 'I' for Inactive)
REMARK    1  A    between atoms: C_1  and  C_2
REMARK    2  A    between atoms: C_2  and  C_3
REMARK    3  A    between atoms: C_3  and  C_4
REMARK    4  A    between atoms: C_4  and  C_5
REMARK    5  A    between atoms: C_5  and  C_6
REMARK    6  A    between atoms: C_6  and  C_7
REMARK    7  A    between atoms: C_7  and  O_9
REMARK    8  A    between atoms: O_9  and  C_10
REMARK    9  A    between atoms: C_19  and  O_20
REMARK   10  A    between atoms: O_20  and  C_21
REMARK   11  A    between atoms: C_21  and  C_23
REMARK   12  A    between atoms: C_23  and  C_24
REMARK   13  A    between atoms: C_24  and  C_25
REMARK   14  A    between atoms: C_25  and  C_26
REMARK   15  A    between atoms: C_26  and  C_27
REMARK   16  A    between atoms: C_27  and  C_28
REMARK   17  A    between atoms: C_35  and  C_36
REMARK                            x       y       z     vdW  Elec       q    Type
REMARK                         _______ _______ _______ _____ _____    ______ ____
ROOT
ATOM      1  C   UNL     1      -8.823  -0.480 123.900  0.00  0.00    +0.000 C 
ATOM      2  C   UNL     1      -9.738   0.591 123.238  0.00  0.00    +0.000 C 
ATOM      3  C   UNL     1      -9.066   1.965 123.481  0.00  0.00    +0.000 C 
ATOM      4  C   UNL     1      -7.729   1.617 124.126  0.00  0.00    +0.000 C 
ATOM      5  C   UNL     1      -7.022   2.670 124.979  0.00  0.00    +0.000 C 
ATOM      6  C   UNL     1      -6.658   3.942 124.213  0.00  0.00    +0.000 C 
ATOM      7  C   UNL     1      -6.143   4.997 125.202  0.00  0.00    +0.000 C 
ATOM      8  C   UNL     1      -5.098   4.468 126.160  0.00  0.00    +0.000 A 
ATOM      9  C   UNL     1      -4.288   5.369 126.892  0.00  0.00    +0.000 A 
ATOM     10  C   UNL     1      -3.316   4.882 127.774  0.00  0.00    +0.000 A 
ATOM     11  C   UNL     1      -3.212   3.509 127.963  0.00  0.00    +0.000 A 
ATOM     12  C   UNL     1      -3.999   2.625 127.263  0.00  0.00    +0.000 A 
ATOM     13  C   UNL     1      -4.945   3.080 126.354  0.00  0.00    +0.000 A 
ATOM     14  C   UNL     1      -5.703   2.069 125.524  0.00  0.00    +0.000 C 
ATOM     15  C   UNL     1      -5.919   0.735 126.251  0.00  0.00    +0.000 C 
ATOM     16  C   UNL     1      -6.734  -0.245 125.435  0.00  0.00    +0.000 C 
ATOM     17  C   UNL     1      -8.055   0.354 124.951  0.00  0.00    +0.000 C 
ATOM     18  C   UNL     1      -8.976   0.606 126.173  0.00  0.00    +0.000 C 
ENDROOT
BRANCH   1  19
ATOM     19  O   UNL     1      -9.577  -1.559 124.495  0.00  0.00    +0.000 OA
BRANCH  19  20
ATOM     20  C   UNL     1      -9.140  -2.811 124.170  0.00  0.00    +0.000 C 
ATOM     21  O   UNL     1      -9.318  -3.351 123.080  0.00  0.00    +0.000 OA
BRANCH  20  22
ATOM     22  C   UNL     1      -8.426  -3.503 125.302  0.00  0.00    +0.000 C 
BRANCH  22  23
ATOM     23  C   UNL     1      -9.217  -3.289 126.602  0.00  0.00    +0.000 C 
BRANCH  23  24
ATOM     24  C   UNL     1      -8.529  -3.922 127.801  0.00  0.00    +0.000 C 
BRANCH  24  25
ATOM     25  C   UNL     1      -8.440  -2.929 128.958  0.00  0.00    +0.000 C 
BRANCH  25  27
ATOM     26  C   UNL     1      -6.038  -2.560 128.351  0.00  0.00    +0.000 C 
ATOM     27  C   UNL     1      -7.358  -1.890 128.688  0.00  0.00    +0.000 C 
ENDBRANCH  25  27
ENDBRANCH  24  25
ENDBRANCH  23  24
ENDBRANCH  22  23
ENDBRANCH  20  22
ENDBRANCH  19  20
ENDBRANCH   1  19
BRANCH  10  28
ATOM     28  O   UNL     1      -2.457   5.808 128.423  0.00  0.00    +0.000 OA
BRANCH  28  29
ATOM     29  C   UNL     1      -2.998   6.825 129.216  0.00  0.00    +0.000 C 
ATOM     30  O   UNL     1      -3.256   7.972 128.865  0.00  0.00    +0.000 OA
BRANCH  29  31
ATOM     31  C   UNL     1      -3.264   6.393 130.627  0.00  0.00    +0.000 C 
BRANCH  31  32
ATOM     32  C   UNL     1      -1.947   6.608 131.392  0.00  0.00    +0.000 C 
BRANCH  32  33
ATOM     33  C   UNL     1      -2.097   7.544 132.567  0.00  0.00    +0.000 C 
BRANCH  33  34
ATOM     34  C   UNL     1      -1.302   7.020 133.759  0.00  0.00    +0.000 C 
BRANCH  34  35
ATOM     35  C   UNL     1       0.135   7.514 133.685  0.00  0.00    +0.000 C 
ATOM     36  C   UNL     1       0.178   9.019 133.501  0.00  0.00    +0.000 C 
ENDBRANCH  34  35
ENDBRANCH  33  34
ENDBRANCH  32  33
ENDBRANCH  31  32
ENDBRANCH  29  31
ENDBRANCH  28  29
ENDBRANCH  10  28
TORSDOF 14
ENDMDL
MODEL 9
REMARK VINA RESULT:      -6.6      3.245      5.512
REMARK  Name = Estradiol dienanthate
REMARK  17 active torsions:
REMARK  status: ('A' for Active; 'I' for Inactive)
REMARK    1  A    between atoms: C_1  and  C_2
REMARK    2  A    between atoms: C_2  and  C_3
REMARK    3  A    between atoms: C_3  and  C_4
REMARK    4  A    between atoms: C_4  and  C_5
REMARK    5  A    between atoms: C_5  and  C_6
REMARK    6  A    between atoms: C_6  and  C_7
REMARK    7  A    between atoms: C_7  and  O_9
REMARK    8  A    between atoms: O_9  and  C_10
REMARK    9  A    between atoms: C_19  and  O_20
REMARK   10  A    between atoms: O_20  and  C_21
REMARK   11  A    between atoms: C_21  and  C_23
REMARK   12  A    between atoms: C_23  and  C_24
REMARK   13  A    between atoms: C_24  and  C_25
REMARK   14  A    between atoms: C_25  and  C_26
REMARK   15  A    between atoms: C_26  and  C_27
REMARK   16  A    between atoms: C_27  and  C_28
REMARK   17  A    between atoms: C_35  and  C_36
REMARK                            x       y       z     vdW  Elec       q    Type
REMARK                         _______ _______ _______ _____ _____    ______ ____
ROOT
ATOM      1  C   UNL     1      -8.482  -2.565 127.230  0.00  0.00    +0.000 C 
ATOM      2  C   UNL     1      -8.463  -3.844 128.117  0.00  0.00    +0.000 C 
ATOM      3  C   UNL     1      -8.094  -3.388 129.551  0.00  0.00    +0.000 C 
ATOM      4  C   UNL     1      -8.072  -1.866 129.463  0.00  0.00    +0.000 C 
ATOM      5  C   UNL     1      -7.257  -1.077 130.488  0.00  0.00    +0.000 C 
ATOM      6  C   UNL     1      -7.715  -1.284 131.932  0.00  0.00    +0.000 C 
ATOM      7  C   UNL     1      -6.712  -0.614 132.881  0.00  0.00    +0.000 C 
ATOM      8  C   UNL     1      -6.359   0.803 132.486  0.00  0.00    +0.000 A 
ATOM      9  C   UNL     1      -5.731   1.663 133.417  0.00  0.00    +0.000 A 
ATOM     10  C   UNL     1      -5.410   2.977 133.055  0.00  0.00    +0.000 A 
ATOM     11  C   UNL     1      -5.658   3.392 131.753  0.00  0.00    +0.000 A 
ATOM     12  C   UNL     1      -6.261   2.562 130.836  0.00  0.00    +0.000 A 
ATOM     13  C   UNL     1      -6.625   1.266 131.180  0.00  0.00    +0.000 A 
ATOM     14  C   UNL     1      -7.389   0.434 130.177  0.00  0.00    +0.000 C 
ATOM     15  C   UNL     1      -7.034   0.769 128.722  0.00  0.00    +0.000 C 
ATOM     16  C   UNL     1      -7.758  -0.115 127.730  0.00  0.00    +0.000 C 
ATOM     17  C   UNL     1      -7.572  -1.603 128.028  0.00  0.00    +0.000 C 
ATOM     18  C   UNL     1      -6.089  -1.987 127.785  0.00  0.00    +0.000 C 
ENDROOT
BRANCH   1  19
ATOM     19  O   UNL     1      -7.989  -2.812 125.895  0.00  0.00    +0.000 OA
BRANCH  19  20
ATOM     20  C   UNL     1      -8.809  -2.380 124.892  0.00  0.00    +0.000 C 
ATOM     21  O   UNL     1      -9.737  -3.034 124.419  0.00  0.00    +0.000 OA
BRANCH  20  22
ATOM     22  C   UNL     1      -8.452  -1.008 124.382  0.00  0.00    +0.000 C 
BRANCH  22  23
ATOM     23  C   UNL     1      -6.935  -0.936 124.151  0.00  0.00    +0.000 C 
BRANCH  23  24
ATOM     24  C   UNL     1      -6.562  -1.220 122.705  0.00  0.00    +0.000 C 
BRANCH  24  25
ATOM     25  C   UNL     1      -5.743  -2.505 122.602  0.00  0.00    +0.000 C 
BRANCH  25  27
ATOM     26  C   UNL     1      -4.490  -4.226 123.922  0.00  0.00    +0.000 C 
ATOM     27  C   UNL     1      -5.095  -2.834 123.941  0.00  0.00    +0.000 C 
ENDBRANCH  25  27
ENDBRANCH  24  25
ENDBRANCH  23  24
ENDBRANCH  22  23
ENDBRANCH  20  22
ENDBRANCH  19  20
ENDBRANCH   1  19
BRANCH  10  28
ATOM     28  O   UNL     1      -4.866   3.844 134.040  0.00  0.00    +0.000 OA
BRANCH  28  29
ATOM     29  C   UNL     1      -5.594   4.958 134.468  0.00  0.00    +0.000 C 
ATOM     30  O   UNL     1      -5.444   6.119 134.103  0.00  0.00    +0.000 OA
BRANCH  29  31
ATOM     31  C   UNL     1      -6.651   4.618 135.477  0.00  0.00    +0.000 C 
BRANCH  31  32
ATOM     32  C   UNL     1      -7.988   5.046 134.852  0.00  0.00    +0.000 C 
BRANCH  32  33
ATOM     33  C   UNL     1      -8.704   3.908 134.162  0.00  0.00    +0.000 C 
BRANCH  33  34
ATOM     34  C   UNL     1      -9.140   4.336 132.764  0.00  0.00    +0.000 C 
BRANCH  34  35
ATOM     35  C   UNL     1      -9.178   5.854 132.671  0.00  0.00    +0.000 C 
ATOM     36  C   UNL     1      -8.330   6.345 131.514  0.00  0.00    +0.000 C 
ENDBRANCH  34  35
ENDBRANCH  33  34
ENDBRANCH  32  33
ENDBRANCH  31  32
ENDBRANCH  29  31
ENDBRANCH  28  29
ENDBRANCH  10  28
TORSDOF 14
ENDMDL
