MODEL 1
REMARK VINA RESULT:      -7.7      0.000      0.000
REMARK  Name = Estramustine
REMARK  8 active torsions:
REMARK  status: ('A' for Active; 'I' for Inactive)
REMARK    1  A    between atoms: C_5  and  O_6
REMARK    2  A    between atoms: C_7  and  C_8
REMARK    3  A    between atoms: C_16  and  O_17
REMARK    4  A    between atoms: O_17  and  C_18
REMARK    5  A    between atoms: N_20  and  C_21
REMARK    6  A    between atoms: N_20  and  C_24
REMARK    7  A    between atoms: C_21  and  C_22
REMARK    8  A    between atoms: C_24  and  C_25
REMARK                            x       y       z     vdW  Elec       q    Type
REMARK                         _______ _______ _______ _____ _____    ______ ____
ROOT
ATOM      1  C   UNL     1      -7.875  -2.448 125.001  0.00  0.00    +0.000 C 
ATOM      2  C   UNL     1      -8.764  -3.188 124.007  0.00  0.00    +0.000 C 
ATOM      3  C   UNL     1      -8.278  -2.689 122.627  0.00  0.00    +0.000 C 
ATOM      4  C   UNL     1      -7.062  -1.788 122.903  0.00  0.00    +0.000 C 
ATOM      5  C   UNL     1      -6.533  -2.311 124.247  0.00  0.00    +0.000 C 
ATOM      6  C   UNL     1      -5.774  -3.650 124.069  0.00  0.00    +0.000 C 
ATOM      7  C   UNL     1      -5.636  -1.322 124.989  0.00  0.00    +0.000 C 
ATOM      8  C   UNL     1      -5.459  -1.734 126.450  0.00  0.00    +0.000 C 
ATOM      9  C   UNL     1      -6.807  -1.966 127.181  0.00  0.00    +0.000 C 
ATOM     10  C   UNL     1      -6.647  -2.344 128.635  0.00  0.00    +0.000 A 
ATOM     11  C   UNL     1      -5.572  -1.810 129.344  0.00  0.00    +0.000 A 
ATOM     12  C   UNL     1      -5.384  -2.086 130.676  0.00  0.00    +0.000 A 
ATOM     13  C   UNL     1      -6.280  -2.883 131.357  0.00  0.00    +0.000 A 
ATOM     14  C   UNL     1      -7.394  -3.419 130.688  0.00  0.00    +0.000 A 
ATOM     15  C   UNL     1      -7.590  -3.143 129.314  0.00  0.00    +0.000 A 
ATOM     16  C   UNL     1      -8.764  -3.750 128.574  0.00  0.00    +0.000 C 
ATOM     17  C   UNL     1      -9.011  -3.152 127.181  0.00  0.00    +0.000 C 
ATOM     18  C   UNL     1      -7.693  -2.986 126.421  0.00  0.00    +0.000 C 
ENDROOT
BRANCH   4  19
ATOM     19  O   UNL     1      -6.111  -1.788 121.858  0.00  0.00    +0.000 OA
ATOM     20  H   UNL     1      -6.517  -1.425 121.055  0.00  0.00    +0.000 HD
ENDBRANCH   4  19
BRANCH  13  21
ATOM     21  O   UNL     1      -6.079  -3.159 132.732  0.00  0.00    +0.000 OA
BRANCH  21  22
ATOM     22  C   UNL     1      -7.059  -3.121 133.741  0.00  0.00    +0.000 C 
ATOM     23  O   UNL     1      -7.800  -2.162 133.961  0.00  0.00    +0.000 OA
ATOM     24  N   UNL     1      -7.160  -4.272 134.521  0.00  0.00    +0.000 N 
BRANCH  24  25
ATOM     25  C   UNL     1      -6.348  -5.493 134.381  0.00  0.00    +0.000 C 
BRANCH  25  26
ATOM     26  C   UNL     1      -4.944  -5.473 134.963  0.00  0.00    +0.000 C 
ATOM     27 CL   UNL     1      -3.703  -5.718 133.722  0.00  0.00    +0.000 Cl
ENDBRANCH  25  26
ENDBRANCH  24  25
BRANCH  24  28
ATOM     28  C   UNL     1      -8.194  -4.211 135.574  0.00  0.00    +0.000 C 
BRANCH  28  29
ATOM     29  C   UNL     1      -8.427  -5.496 136.356  0.00  0.00    +0.000 C 
ATOM     30 CL   UNL     1     -10.138  -5.970 136.347  0.00  0.00    +0.000 Cl
ENDBRANCH  28  29
ENDBRANCH  24  28
ENDBRANCH  21  22
ENDBRANCH  13  21
TORSDOF 7
ENDMDL
MODEL 2
REMARK VINA RESULT:      -7.5      2.771      3.779
REMARK  Name = Estramustine
REMARK  8 active torsions:
REMARK  status: ('A' for Active; 'I' for Inactive)
REMARK    1  A    between atoms: C_5  and  O_6
REMARK    2  A    between atoms: C_7  and  C_8
REMARK    3  A    between atoms: C_16  and  O_17
REMARK    4  A    between atoms: O_17  and  C_18
REMARK    5  A    between atoms: N_20  and  C_21
REMARK    6  A    between atoms: N_20  and  C_24
REMARK    7  A    between atoms: C_21  and  C_22
REMARK    8  A    between atoms: C_24  and  C_25
REMARK                            x       y       z     vdW  Elec       q    Type
REMARK                         _______ _______ _______ _____ _____    ______ ____
ROOT
ATOM      1  C   UNL     1      -7.947  -2.510 125.347  0.00  0.00    +0.000 C 
ATOM      2  C   UNL     1      -8.969  -3.232 124.475  0.00  0.00    +0.000 C 
ATOM      3  C   UNL     1      -8.685  -2.705 123.050  0.00  0.00    +0.000 C 
ATOM      4  C   UNL     1      -7.441  -1.806 123.167  0.00  0.00    +0.000 C 
ATOM      5  C   UNL     1      -6.726  -2.355 124.411  0.00  0.00    +0.000 C 
ATOM      6  C   UNL     1      -6.001  -3.688 124.100  0.00  0.00    +0.000 C 
ATOM      7  C   UNL     1      -5.732  -1.379 125.037  0.00  0.00    +0.000 C 
ATOM      8  C   UNL     1      -5.348  -1.819 126.449  0.00  0.00    +0.000 C 
ATOM      9  C   UNL     1      -6.578  -2.068 127.360  0.00  0.00    +0.000 C 
ATOM     10  C   UNL     1      -6.212  -2.474 128.769  0.00  0.00    +0.000 A 
ATOM     11  C   UNL     1      -5.047  -1.951 129.327  0.00  0.00    +0.000 A 
ATOM     12  C   UNL     1      -4.671  -2.253 130.614  0.00  0.00    +0.000 A 
ATOM     13  C   UNL     1      -5.460  -3.065 131.399  0.00  0.00    +0.000 A 
ATOM     14  C   UNL     1      -6.659  -3.591 130.886  0.00  0.00    +0.000 A 
ATOM     15  C   UNL     1      -7.049  -3.288 129.560  0.00  0.00    +0.000 A 
ATOM     16  C   UNL     1      -8.317  -3.883 128.983  0.00  0.00    +0.000 C 
ATOM     17  C   UNL     1      -8.761  -3.258 127.651  0.00  0.00    +0.000 C 
ATOM     18  C   UNL     1      -7.564  -3.075 126.715  0.00  0.00    +0.000 C 
ENDROOT
BRANCH   4  19
ATOM     19  O   UNL     1      -6.649  -1.784 121.997  0.00  0.00    +0.000 OA
ATOM     20  H   UNL     1      -6.468  -0.864 121.750  0.00  0.00    +0.000 HD
ENDBRANCH   4  19
BRANCH  13  21
ATOM     21  O   UNL     1      -5.065  -3.368 132.726  0.00  0.00    +0.000 OA
BRANCH  21  22
ATOM     22  C   UNL     1      -3.756  -3.305 133.240  0.00  0.00    +0.000 C 
ATOM     23  O   UNL     1      -2.861  -4.107 132.975  0.00  0.00    +0.000 OA
ATOM     24  N   UNL     1      -3.505  -2.243 134.107  0.00  0.00    +0.000 N 
BRANCH  24  25
ATOM     25  C   UNL     1      -4.469  -1.208 134.519  0.00  0.00    +0.000 C 
BRANCH  25  26
ATOM     26  C   UNL     1      -4.664  -0.020 133.591  0.00  0.00    +0.000 C 
ATOM     27 CL   UNL     1      -6.321   0.078 132.971  0.00  0.00    +0.000 Cl
ENDBRANCH  25  26
ENDBRANCH  24  25
BRANCH  24  28
ATOM     28  C   UNL     1      -2.126  -2.195 134.636  0.00  0.00    +0.000 C 
BRANCH  28  29
ATOM     29  C   UNL     1      -1.187  -1.206 133.960  0.00  0.00    +0.000 C 
ATOM     30 CL   UNL     1       0.511  -1.532 134.363  0.00  0.00    +0.000 Cl
ENDBRANCH  28  29
ENDBRANCH  24  28
ENDBRANCH  21  22
ENDBRANCH  13  21
TORSDOF 7
ENDMDL
MODEL 3
REMARK VINA RESULT:      -7.5      1.422      2.449
REMARK  Name = Estramustine
REMARK  8 active torsions:
REMARK  status: ('A' for Active; 'I' for Inactive)
REMARK    1  A    between atoms: C_5  and  O_6
REMARK    2  A    between atoms: C_7  and  C_8
REMARK    3  A    between atoms: C_16  and  O_17
REMARK    4  A    between atoms: O_17  and  C_18
REMARK    5  A    between atoms: N_20  and  C_21
REMARK    6  A    between atoms: N_20  and  C_24
REMARK    7  A    between atoms: C_21  and  C_22
REMARK    8  A    between atoms: C_24  and  C_25
REMARK                            x       y       z     vdW  Elec       q    Type
REMARK                         _______ _______ _______ _____ _____    ______ ____
ROOT
ATOM      1  C   UNL     1      -7.930  -2.469 125.315  0.00  0.00    +0.000 C 
ATOM      2  C   UNL     1      -8.921  -3.241 124.449  0.00  0.00    +0.000 C 
ATOM      3  C   UNL     1      -8.632  -2.742 123.014  0.00  0.00    +0.000 C 
ATOM      4  C   UNL     1      -7.414  -1.807 123.125  0.00  0.00    +0.000 C 
ATOM      5  C   UNL     1      -6.701  -2.305 124.391  0.00  0.00    +0.000 C 
ATOM      6  C   UNL     1      -5.937  -3.625 124.123  0.00  0.00    +0.000 C 
ATOM      7  C   UNL     1      -5.742  -1.286 125.005  0.00  0.00    +0.000 C 
ATOM      8  C   UNL     1      -5.366  -1.680 126.432  0.00  0.00    +0.000 C 
ATOM      9  C   UNL     1      -6.601  -1.940 127.333  0.00  0.00    +0.000 C 
ATOM     10  C   UNL     1      -6.243  -2.300 128.757  0.00  0.00    +0.000 A 
ATOM     11  C   UNL     1      -5.100  -1.733 129.317  0.00  0.00    +0.000 A 
ATOM     12  C   UNL     1      -4.733  -1.991 130.615  0.00  0.00    +0.000 A 
ATOM     13  C   UNL     1      -5.511  -2.805 131.410  0.00  0.00    +0.000 A 
ATOM     14  C   UNL     1      -6.687  -3.376 130.895  0.00  0.00    +0.000 A 
ATOM     15  C   UNL     1      -7.068  -3.117 129.557  0.00  0.00    +0.000 A 
ATOM     16  C   UNL     1      -8.311  -3.761 128.980  0.00  0.00    +0.000 C 
ATOM     17  C   UNL     1      -8.754  -3.182 127.627  0.00  0.00    +0.000 C 
ATOM     18  C   UNL     1      -7.550  -2.990 126.701  0.00  0.00    +0.000 C 
ENDROOT
BRANCH   4  19
ATOM     19  O   UNL     1      -6.608  -1.792 121.964  0.00  0.00    +0.000 OA
ATOM     20  H   UNL     1      -7.055  -2.281 121.257  0.00  0.00    +0.000 HD
ENDBRANCH   4  19
BRANCH  13  21
ATOM     21  O   UNL     1      -5.125  -3.064 132.749  0.00  0.00    +0.000 OA
BRANCH  21  22
ATOM     22  C   UNL     1      -4.191  -4.027 133.176  0.00  0.00    +0.000 C 
ATOM     23  O   UNL     1      -2.972  -3.930 133.034  0.00  0.00    +0.000 OA
ATOM     24  N   UNL     1      -4.733  -5.153 133.794  0.00  0.00    +0.000 N 
BRANCH  24  25
ATOM     25  C   UNL     1      -6.164  -5.411 134.033  0.00  0.00    +0.000 C 
BRANCH  25  26
ATOM     26  C   UNL     1      -6.879  -4.524 135.039  0.00  0.00    +0.000 C 
ATOM     27 CL   UNL     1      -8.211  -3.618 134.301  0.00  0.00    +0.000 Cl
ENDBRANCH  25  26
ENDBRANCH  24  25
BRANCH  24  28
ATOM     28  C   UNL     1      -3.737  -6.151 134.233  0.00  0.00    +0.000 C 
BRANCH  28  29
ATOM     29  C   UNL     1      -3.682  -6.426 135.729  0.00  0.00    +0.000 C 
ATOM     30 CL   UNL     1      -3.456  -4.935 136.665  0.00  0.00    +0.000 Cl
ENDBRANCH  28  29
ENDBRANCH  24  28
ENDBRANCH  21  22
ENDBRANCH  13  21
TORSDOF 7
ENDMDL
MODEL 4
REMARK VINA RESULT:      -7.4      6.648      8.589
REMARK  Name = Estramustine
REMARK  8 active torsions:
REMARK  status: ('A' for Active; 'I' for Inactive)
REMARK    1  A    between atoms: C_5  and  O_6
REMARK    2  A    between atoms: C_7  and  C_8
REMARK    3  A    between atoms: C_16  and  O_17
REMARK    4  A    between atoms: O_17  and  C_18
REMARK    5  A    between atoms: N_20  and  C_21
REMARK    6  A    between atoms: N_20  and  C_24
REMARK    7  A    between atoms: C_21  and  C_22
REMARK    8  A    between atoms: C_24  and  C_25
REMARK                            x       y       z     vdW  Elec       q    Type
REMARK                         _______ _______ _______ _____ _____    ______ ____
ROOT
ATOM      1  C   UNL     1      -7.499  -0.692 123.929  0.00  0.00    +0.000 C 
ATOM      2  C   UNL     1      -8.736  -1.033 123.104  0.00  0.00    +0.000 C 
ATOM      3  C   UNL     1      -8.783  -2.579 123.122  0.00  0.00    +0.000 C 
ATOM      4  C   UNL     1      -7.644  -3.030 124.054  0.00  0.00    +0.000 C 
ATOM      5  C   UNL     1      -7.450  -1.822 124.983  0.00  0.00    +0.000 C 
ATOM      6  C   UNL     1      -8.578  -1.741 126.042  0.00  0.00    +0.000 C 
ATOM      7  C   UNL     1      -6.096  -1.793 125.690  0.00  0.00    +0.000 C 
ATOM      8  C   UNL     1      -5.818  -0.413 126.283  0.00  0.00    +0.000 C 
ATOM      9  C   UNL     1      -5.962   0.731 125.246  0.00  0.00    +0.000 C 
ATOM     10  C   UNL     1      -5.658   2.099 125.811  0.00  0.00    +0.000 A 
ATOM     11  C   UNL     1      -4.691   2.204 126.809  0.00  0.00    +0.000 A 
ATOM     12  C   UNL     1      -4.343   3.419 127.345  0.00  0.00    +0.000 A 
ATOM     13  C   UNL     1      -4.929   4.579 126.884  0.00  0.00    +0.000 A 
ATOM     14  C   UNL     1      -5.889   4.522 125.859  0.00  0.00    +0.000 A 
ATOM     15  C   UNL     1      -6.255   3.273 125.306  0.00  0.00    +0.000 A 
ATOM     16  C   UNL     1      -7.318   3.197 124.230  0.00  0.00    +0.000 C 
ATOM     17  C   UNL     1      -7.417   1.832 123.532  0.00  0.00    +0.000 C 
ATOM     18  C   UNL     1      -7.349   0.695 124.554  0.00  0.00    +0.000 C 
ENDROOT
BRANCH   4  19
ATOM     19  O   UNL     1      -7.911  -4.247 124.721  0.00  0.00    +0.000 OA
ATOM     20  H   UNL     1      -8.487  -4.075 125.482  0.00  0.00    +0.000 HD
ENDBRANCH   4  19
BRANCH  13  21
ATOM     21  O   UNL     1      -4.561   5.828 127.442  0.00  0.00    +0.000 OA
BRANCH  21  22
ATOM     22  C   UNL     1      -3.427   6.086 128.235  0.00  0.00    +0.000 C 
ATOM     23  O   UNL     1      -2.289   6.251 127.794  0.00  0.00    +0.000 OA
ATOM     24  N   UNL     1      -3.658   6.147 129.608  0.00  0.00    +0.000 N 
BRANCH  24  25
ATOM     25  C   UNL     1      -4.955   5.971 130.281  0.00  0.00    +0.000 C 
BRANCH  25  26
ATOM     26  C   UNL     1      -5.658   7.219 130.789  0.00  0.00    +0.000 C 
ATOM     27 CL   UNL     1      -7.365   6.922 131.159  0.00  0.00    +0.000 Cl
ENDBRANCH  25  26
ENDBRANCH  24  25
BRANCH  24  28
ATOM     28  C   UNL     1      -2.454   6.417 130.420  0.00  0.00    +0.000 C 
BRANCH  28  29
ATOM     29  C   UNL     1      -2.415   5.761 131.794  0.00  0.00    +0.000 C 
ATOM     30 CL   UNL     1      -0.797   5.846 132.518  0.00  0.00    +0.000 Cl
ENDBRANCH  28  29
ENDBRANCH  24  28
ENDBRANCH  21  22
ENDBRANCH  13  21
TORSDOF 7
ENDMDL
MODEL 5
REMARK VINA RESULT:      -7.3      7.155      8.678
REMARK  Name = Estramustine
REMARK  8 active torsions:
REMARK  status: ('A' for Active; 'I' for Inactive)
REMARK    1  A    between atoms: C_5  and  O_6
REMARK    2  A    between atoms: C_7  and  C_8
REMARK    3  A    between atoms: C_16  and  O_17
REMARK    4  A    between atoms: O_17  and  C_18
REMARK    5  A    between atoms: N_20  and  C_21
REMARK    6  A    between atoms: N_20  and  C_24
REMARK    7  A    between atoms: C_21  and  C_22
REMARK    8  A    between atoms: C_24  and  C_25
REMARK                            x       y       z     vdW  Elec       q    Type
REMARK                         _______ _______ _______ _____ _____    ______ ____
ROOT
ATOM      1  C   UNL     1      -8.081   1.418 123.611  0.00  0.00    +0.000 C 
ATOM      2  C   UNL     1      -9.419   1.814 122.996  0.00  0.00    +0.000 C 
ATOM      3  C   UNL     1     -10.058   0.465 122.591  0.00  0.00    +0.000 C 
ATOM      4  C   UNL     1      -9.107  -0.629 123.107  0.00  0.00    +0.000 C 
ATOM      5  C   UNL     1      -8.382   0.055 124.275  0.00  0.00    +0.000 C 
ATOM      6  C   UNL     1      -9.296   0.153 125.523  0.00  0.00    +0.000 C 
ATOM      7  C   UNL     1      -7.068  -0.615 124.669  0.00  0.00    +0.000 C 
ATOM      8  C   UNL     1      -6.227   0.305 125.553  0.00  0.00    +0.000 C 
ATOM      9  C   UNL     1      -6.006   1.707 124.929  0.00  0.00    +0.000 C 
ATOM     10  C   UNL     1      -5.150   2.618 125.778  0.00  0.00    +0.000 A 
ATOM     11  C   UNL     1      -4.136   2.047 126.546  0.00  0.00    +0.000 A 
ATOM     12  C   UNL     1      -3.300   2.818 127.317  0.00  0.00    +0.000 A 
ATOM     13  C   UNL     1      -3.430   4.190 127.327  0.00  0.00    +0.000 A 
ATOM     14  C   UNL     1      -4.421   4.810 126.546  0.00  0.00    +0.000 A 
ATOM     15  C   UNL     1      -5.287   4.020 125.754  0.00  0.00    +0.000 A 
ATOM     16  C   UNL     1      -6.386   4.675 124.941  0.00  0.00    +0.000 C 
ATOM     17  C   UNL     1      -7.064   3.742 123.926  0.00  0.00    +0.000 C 
ATOM     18  C   UNL     1      -7.353   2.377 124.554  0.00  0.00    +0.000 C 
ENDROOT
BRANCH   4  19
ATOM     19  O   UNL     1      -9.765  -1.833 123.448  0.00  0.00    +0.000 OA
ATOM     20  H   UNL     1      -9.366  -2.567 122.956  0.00  0.00    +0.000 HD
ENDBRANCH   4  19
BRANCH  13  21
ATOM     21  O   UNL     1      -2.561   4.977 128.124  0.00  0.00    +0.000 OA
BRANCH  21  22
ATOM     22  C   UNL     1      -2.886   6.190 128.761  0.00  0.00    +0.000 C 
ATOM     23  O   UNL     1      -2.703   7.306 128.274  0.00  0.00    +0.000 OA
ATOM     24  N   UNL     1      -3.448   6.067 130.030  0.00  0.00    +0.000 N 
BRANCH  24  25
ATOM     25  C   UNL     1      -3.725   4.808 130.742  0.00  0.00    +0.000 C 
BRANCH  25  26
ATOM     26  C   UNL     1      -5.174   4.499 131.084  0.00  0.00    +0.000 C 
ATOM     27 CL   UNL     1      -6.206   4.456 129.646  0.00  0.00    +0.000 Cl
ENDBRANCH  25  26
ENDBRANCH  24  25
BRANCH  24  28
ATOM     28  C   UNL     1      -3.780   7.352 130.680  0.00  0.00    +0.000 C 
BRANCH  28  29
ATOM     29  C   UNL     1      -2.833   7.805 131.783  0.00  0.00    +0.000 C 
ATOM     30 CL   UNL     1      -3.335   7.196 133.373  0.00  0.00    +0.000 Cl
ENDBRANCH  28  29
ENDBRANCH  24  28
ENDBRANCH  21  22
ENDBRANCH  13  21
TORSDOF 7
ENDMDL
MODEL 6
REMARK VINA RESULT:      -7.3      4.095      9.833
REMARK  Name = Estramustine
REMARK  8 active torsions:
REMARK  status: ('A' for Active; 'I' for Inactive)
REMARK    1  A    between atoms: C_5  and  O_6
REMARK    2  A    between atoms: C_7  and  C_8
REMARK    3  A    between atoms: C_16  and  O_17
REMARK    4  A    between atoms: O_17  and  C_18
REMARK    5  A    between atoms: N_20  and  C_21
REMARK    6  A    between atoms: N_20  and  C_24
REMARK    7  A    between atoms: C_21  and  C_22
REMARK    8  A    between atoms: C_24  and  C_25
REMARK                            x       y       z     vdW  Elec       q    Type
REMARK                         _______ _______ _______ _____ _____    ______ ____
ROOT
ATOM      1  C   UNL     1      -5.974  -5.010 135.188  0.00  0.00    +0.000 C 
ATOM      2  C   UNL     1      -5.449  -6.309 135.791  0.00  0.00    +0.000 C 
ATOM      3  C   UNL     1      -5.815  -6.200 137.290  0.00  0.00    +0.000 C 
ATOM      4  C   UNL     1      -6.633  -4.905 137.436  0.00  0.00    +0.000 C 
ATOM      5  C   UNL     1      -7.230  -4.704 136.035  0.00  0.00    +0.000 C 
ATOM      6  C   UNL     1      -8.409  -5.677 135.783  0.00  0.00    +0.000 C 
ATOM      7  C   UNL     1      -7.692  -3.275 135.756  0.00  0.00    +0.000 C 
ATOM      8  C   UNL     1      -7.914  -3.055 134.260  0.00  0.00    +0.000 C 
ATOM      9  C   UNL     1      -6.686  -3.453 133.401  0.00  0.00    +0.000 C 
ATOM     10  C   UNL     1      -6.880  -3.211 131.922  0.00  0.00    +0.000 A 
ATOM     11  C   UNL     1      -7.666  -2.130 131.526  0.00  0.00    +0.000 A 
ATOM     12  C   UNL     1      -7.859  -1.833 130.199  0.00  0.00    +0.000 A 
ATOM     13  C   UNL     1      -7.251  -2.589 129.219  0.00  0.00    +0.000 A 
ATOM     14  C   UNL     1      -6.427  -3.671 129.575  0.00  0.00    +0.000 A 
ATOM     15  C   UNL     1      -6.229  -3.985 130.940  0.00  0.00    +0.000 A 
ATOM     16  C   UNL     1      -5.377  -5.174 131.333  0.00  0.00    +0.000 C 
ATOM     17  C   UNL     1      -5.021  -5.233 132.826  0.00  0.00    +0.000 C 
ATOM     18  C   UNL     1      -6.246  -4.912 133.687  0.00  0.00    +0.000 C 
ENDROOT
BRANCH   4  19
ATOM     19  O   UNL     1      -7.586  -4.955 138.479  0.00  0.00    +0.000 OA
ATOM     20  H   UNL     1      -7.406  -4.243 139.112  0.00  0.00    +0.000 HD
ENDBRANCH   4  19
BRANCH  13  21
ATOM     21  O   UNL     1      -7.454  -2.273 127.853  0.00  0.00    +0.000 OA
BRANCH  21  22
ATOM     22  C   UNL     1      -6.453  -1.981 126.907  0.00  0.00    +0.000 C 
ATOM     23  O   UNL     1      -5.258  -1.848 127.172  0.00  0.00    +0.000 OA
ATOM     24  N   UNL     1      -6.894  -1.840 125.593  0.00  0.00    +0.000 N 
BRANCH  24  25
ATOM     25  C   UNL     1      -8.284  -1.969 125.122  0.00  0.00    +0.000 C 
BRANCH  25  26
ATOM     26  C   UNL     1      -8.789  -3.365 124.795  0.00  0.00    +0.000 C 
ATOM     27 CL   UNL     1      -9.753  -3.396 123.310  0.00  0.00    +0.000 Cl
ENDBRANCH  25  26
ENDBRANCH  24  25
BRANCH  24  28
ATOM     28  C   UNL     1      -5.828  -1.534 124.617  0.00  0.00    +0.000 C 
BRANCH  28  29
ATOM     29  C   UNL     1      -5.637  -2.547 123.497  0.00  0.00    +0.000 C 
ATOM     30 CL   UNL     1      -4.690  -3.949 124.033  0.00  0.00    +0.000 Cl
ENDBRANCH  28  29
ENDBRANCH  24  28
ENDBRANCH  21  22
ENDBRANCH  13  21
TORSDOF 7
ENDMDL
MODEL 7
REMARK VINA RESULT:      -7.2      7.949      9.194
REMARK  Name = Estramustine
REMARK  8 active torsions:
REMARK  status: ('A' for Active; 'I' for Inactive)
REMARK    1  A    between atoms: C_5  and  O_6
REMARK    2  A    between atoms: C_7  and  C_8
REMARK    3  A    between atoms: C_16  and  O_17
REMARK    4  A    between atoms: O_17  and  C_18
REMARK    5  A    between atoms: N_20  and  C_21
REMARK    6  A    between atoms: N_20  and  C_24
REMARK    7  A    between atoms: C_21  and  C_22
REMARK    8  A    between atoms: C_24  and  C_25
REMARK                            x       y       z     vdW  Elec       q    Type
REMARK                         _______ _______ _______ _____ _____    ______ ____
ROOT
ATOM      1  C   UNL     1     -11.337   7.028 130.395  0.00  0.00    +0.000 C 
ATOM      2  C   UNL     1     -12.537   7.267 131.305  0.00  0.00    +0.000 C 
ATOM      3  C   UNL     1     -13.142   8.592 130.787  0.00  0.00    +0.000 C 
ATOM      4  C   UNL     1     -12.329   8.973 129.537  0.00  0.00    +0.000 C 
ATOM      5  C   UNL     1     -11.791   7.621 129.042  0.00  0.00    +0.000 C 
ATOM      6  C   UNL     1     -12.900   6.800 128.337  0.00  0.00    +0.000 C 
ATOM      7  C   UNL     1     -10.586   7.736 128.111  0.00  0.00    +0.000 C 
ATOM      8  C   UNL     1      -9.878   6.390 127.963  0.00  0.00    +0.000 C 
ATOM      9  C   UNL     1      -9.509   5.749 129.326  0.00  0.00    +0.000 C 
ATOM     10  C   UNL     1      -8.780   4.431 129.195  0.00  0.00    +0.000 A 
ATOM     11  C   UNL     1      -7.930   4.250 128.104  0.00  0.00    +0.000 A 
ATOM     12  C   UNL     1      -7.214   3.090 127.940  0.00  0.00    +0.000 A 
ATOM     13  C   UNL     1      -7.298   2.079 128.873  0.00  0.00    +0.000 A 
ATOM     14  C   UNL     1      -8.121   2.231 130.003  0.00  0.00    +0.000 A 
ATOM     15  C   UNL     1      -8.865   3.422 130.175  0.00  0.00    +0.000 A 
ATOM     16  C   UNL     1      -9.787   3.578 131.367  0.00  0.00    +0.000 C 
ATOM     17  C   UNL     1     -10.312   5.007 131.578  0.00  0.00    +0.000 C 
ATOM     18  C   UNL     1     -10.749   5.624 130.247  0.00  0.00    +0.000 C 
ENDROOT
BRANCH   4  19
ATOM     19  O   UNL     1     -13.074   9.695 128.578  0.00  0.00    +0.000 OA
ATOM     20  H   UNL     1     -12.506  10.368 128.171  0.00  0.00    +0.000 HD
ENDBRANCH   4  19
BRANCH  13  21
ATOM     21  O   UNL     1      -6.552   0.887 128.696  0.00  0.00    +0.000 OA
BRANCH  21  22
ATOM     22  C   UNL     1      -6.058   0.054 129.717  0.00  0.00    +0.000 C 
ATOM     23  O   UNL     1      -5.210   0.390 130.544  0.00  0.00    +0.000 OA
ATOM     24  N   UNL     1      -6.594  -1.232 129.752  0.00  0.00    +0.000 N 
BRANCH  24  25
ATOM     25  C   UNL     1      -7.609  -1.778 128.835  0.00  0.00    +0.000 C 
BRANCH  25  26
ATOM     26  C   UNL     1      -8.354  -3.027 129.276  0.00  0.00    +0.000 C 
ATOM     27 CL   UNL     1      -8.901  -3.999 127.900  0.00  0.00    +0.000 Cl
ENDBRANCH  25  26
ENDBRANCH  24  25
BRANCH  24  28
ATOM     28  C   UNL     1      -6.061  -2.089 130.831  0.00  0.00    +0.000 C 
BRANCH  28  29
ATOM     29  C   UNL     1      -4.935  -3.035 130.436  0.00  0.00    +0.000 C 
ATOM     30 CL   UNL     1      -5.436  -4.734 130.539  0.00  0.00    +0.000 Cl
ENDBRANCH  28  29
ENDBRANCH  24  28
ENDBRANCH  21  22
ENDBRANCH  13  21
TORSDOF 7
ENDMDL
MODEL 8
REMARK VINA RESULT:      -7.2      8.848     10.552
REMARK  Name = Estramustine
REMARK  8 active torsions:
REMARK  status: ('A' for Active; 'I' for Inactive)
REMARK    1  A    between atoms: C_5  and  O_6
REMARK    2  A    between atoms: C_7  and  C_8
REMARK    3  A    between atoms: C_16  and  O_17
REMARK    4  A    between atoms: O_17  and  C_18
REMARK    5  A    between atoms: N_20  and  C_21
REMARK    6  A    between atoms: N_20  and  C_24
REMARK    7  A    between atoms: C_21  and  C_22
REMARK    8  A    between atoms: C_24  and  C_25
REMARK                            x       y       z     vdW  Elec       q    Type
REMARK                         _______ _______ _______ _____ _____    ______ ____
ROOT
ATOM      1  C   UNL     1     -11.459   7.263 130.280  0.00  0.00    +0.000 C 
ATOM      2  C   UNL     1     -12.615   7.457 131.256  0.00  0.00    +0.000 C 
ATOM      3  C   UNL     1     -13.176   8.853 130.900  0.00  0.00    +0.000 C 
ATOM      4  C   UNL     1     -12.390   9.326 129.664  0.00  0.00    +0.000 C 
ATOM      5  C   UNL     1     -11.933   8.012 129.013  0.00  0.00    +0.000 C 
ATOM      6  C   UNL     1     -13.101   7.315 128.272  0.00  0.00    +0.000 C 
ATOM      7  C   UNL     1     -10.756   8.172 128.052  0.00  0.00    +0.000 C 
ATOM      8  C   UNL     1     -10.116   6.820 127.740  0.00  0.00    +0.000 C 
ATOM      9  C   UNL     1      -9.729   6.026 129.015  0.00  0.00    +0.000 C 
ATOM     10  C   UNL     1      -9.067   4.699 128.722  0.00  0.00    +0.000 A 
ATOM     11  C   UNL     1      -8.264   4.597 127.586  0.00  0.00    +0.000 A 
ATOM     12  C   UNL     1      -7.607   3.431 127.276  0.00  0.00    +0.000 A 
ATOM     13  C   UNL     1      -7.705   2.334 128.104  0.00  0.00    +0.000 A 
ATOM     14  C   UNL     1      -8.481   2.402 129.275  0.00  0.00    +0.000 A 
ATOM     15  C   UNL     1      -9.164   3.599 129.597  0.00  0.00    +0.000 A 
ATOM     16  C   UNL     1     -10.035   3.670 130.834  0.00  0.00    +0.000 C 
ATOM     17  C   UNL     1     -10.487   5.089 131.209  0.00  0.00    +0.000 C 
ATOM     18  C   UNL     1     -10.941   5.859 129.966  0.00  0.00    +0.000 C 
ENDROOT
BRANCH   4  19
ATOM     19  O   UNL     1     -13.135  10.174 128.813  0.00  0.00    +0.000 OA
ATOM     20  H   UNL     1     -13.649  10.796 129.351  0.00  0.00    +0.000 HD
ENDBRANCH   4  19
BRANCH  13  21
ATOM     21  O   UNL     1      -7.021   1.136 127.777  0.00  0.00    +0.000 OA
BRANCH  21  22
ATOM     22  C   UNL     1      -7.599  -0.139 127.631  0.00  0.00    +0.000 C 
ATOM     23  O   UNL     1      -7.730  -0.956 128.544  0.00  0.00    +0.000 OA
ATOM     24  N   UNL     1      -8.036  -0.455 126.346  0.00  0.00    +0.000 N 
BRANCH  24  25
ATOM     25  C   UNL     1      -7.947   0.412 125.159  0.00  0.00    +0.000 C 
BRANCH  25  26
ATOM     26  C   UNL     1      -9.225   1.080 124.680  0.00  0.00    +0.000 C 
ATOM     27 CL   UNL     1      -9.769   0.443 123.120  0.00  0.00    +0.000 Cl
ENDBRANCH  25  26
ENDBRANCH  24  25
BRANCH  24  28
ATOM     28  C   UNL     1      -8.637  -1.798 126.216  0.00  0.00    +0.000 C 
BRANCH  28  29
ATOM     29  C   UNL     1      -8.079  -2.674 125.103  0.00  0.00    +0.000 C 
ATOM     30 CL   UNL     1      -9.305  -3.037 123.872  0.00  0.00    +0.000 Cl
ENDBRANCH  28  29
ENDBRANCH  24  28
ENDBRANCH  21  22
ENDBRANCH  13  21
TORSDOF 7
ENDMDL
MODEL 9
REMARK VINA RESULT:      -7.1      6.615     10.309
REMARK  Name = Estramustine
REMARK  8 active torsions:
REMARK  status: ('A' for Active; 'I' for Inactive)
REMARK    1  A    between atoms: C_5  and  O_6
REMARK    2  A    between atoms: C_7  and  C_8
REMARK    3  A    between atoms: C_16  and  O_17
REMARK    4  A    between atoms: O_17  and  C_18
REMARK    5  A    between atoms: N_20  and  C_21
REMARK    6  A    between atoms: N_20  and  C_24
REMARK    7  A    between atoms: C_21  and  C_22
REMARK    8  A    between atoms: C_24  and  C_25
REMARK                            x       y       z     vdW  Elec       q    Type
REMARK                         _______ _______ _______ _____ _____    ______ ____
ROOT
ATOM      1  C   UNL     1      -2.826   5.705 130.742  0.00  0.00    +0.000 C 
ATOM      2  C   UNL     1      -1.622   6.635 130.840  0.00  0.00    +0.000 C 
ATOM      3  C   UNL     1      -1.683   7.174 132.288  0.00  0.00    +0.000 C 
ATOM      4  C   UNL     1      -2.845   6.431 132.971  0.00  0.00    +0.000 C 
ATOM      5  C   UNL     1      -2.948   5.125 132.169  0.00  0.00    +0.000 C 
ATOM      6  C   UNL     1      -1.811   4.143 132.547  0.00  0.00    +0.000 C 
ATOM      7  C   UNL     1      -4.292   4.414 132.312  0.00  0.00    +0.000 C 
ATOM      8  C   UNL     1      -4.470   3.356 131.224  0.00  0.00    +0.000 C 
ATOM      9  C   UNL     1      -4.252   3.917 129.794  0.00  0.00    +0.000 C 
ATOM     10  C   UNL     1      -4.455   2.889 128.705  0.00  0.00    +0.000 A 
ATOM     11  C   UNL     1      -5.406   1.891 128.906  0.00  0.00    +0.000 A 
ATOM     12  C   UNL     1      -5.665   0.943 127.946  0.00  0.00    +0.000 A 
ATOM     13  C   UNL     1      -5.002   0.976 126.738  0.00  0.00    +0.000 A 
ATOM     14  C   UNL     1      -4.054   1.982 126.482  0.00  0.00    +0.000 A 
ATOM     15  C   UNL     1      -3.780   2.957 127.469  0.00  0.00    +0.000 A 
ATOM     16  C   UNL     1      -2.731   4.021 127.219  0.00  0.00    +0.000 C 
ATOM     17  C   UNL     1      -2.733   5.166 128.244  0.00  0.00    +0.000 C 
ATOM     18  C   UNL     1      -2.875   4.618 129.667  0.00  0.00    +0.000 C 
ENDROOT
BRANCH   4  19
ATOM     19  O   UNL     1      -2.661   6.254 134.361  0.00  0.00    +0.000 OA
ATOM     20  H   UNL     1      -3.395   6.672 134.837  0.00  0.00    +0.000 HD
ENDBRANCH   4  19
BRANCH  13  21
ATOM     21  O   UNL     1      -5.277  -0.005 125.753  0.00  0.00    +0.000 OA
BRANCH  21  22
ATOM     22  C   UNL     1      -6.460  -0.119 124.998  0.00  0.00    +0.000 C 
ATOM     23  O   UNL     1      -7.254   0.801 124.800  0.00  0.00    +0.000 OA
ATOM     24  N   UNL     1      -6.707  -1.380 124.459  0.00  0.00    +0.000 N 
BRANCH  24  25
ATOM     25  C   UNL     1      -5.856  -2.573 124.608  0.00  0.00    +0.000 C 
BRANCH  25  26
ATOM     26  C   UNL     1      -5.113  -3.064 123.376  0.00  0.00    +0.000 C 
ATOM     27 CL   UNL     1      -4.182  -4.535 123.700  0.00  0.00    +0.000 Cl
ENDBRANCH  25  26
ENDBRANCH  24  25
BRANCH  24  28
ATOM     28  C   UNL     1      -7.953  -1.477 123.672  0.00  0.00    +0.000 C 
BRANCH  28  29
ATOM     29  C   UNL     1      -8.839  -2.679 123.970  0.00  0.00    +0.000 C 
ATOM     30 CL   UNL     1      -9.368  -2.702 125.664  0.00  0.00    +0.000 Cl
ENDBRANCH  28  29
ENDBRANCH  24  28
ENDBRANCH  21  22
ENDBRANCH  13  21
TORSDOF 7
ENDMDL
