MODEL 1
REMARK VINA RESULT:      -8.1      0.000      0.000
REMARK  Name = Estriol
REMARK  4 active torsions:
REMARK  status: ('A' for Active; 'I' for Inactive)
REMARK    1  A    between atoms: C_4  and  O_5
REMARK    2  A    between atoms: C_6  and  O_7
REMARK    3  A    between atoms: C_8  and  C_9
REMARK    4  A    between atoms: C_21  and  O_22
REMARK                            x       y       z     vdW  Elec       q    Type
REMARK                         _______ _______ _______ _____ _____    ______ ____
ROOT
ATOM      1  C   UNL     1      -6.739   1.827 125.220  0.00  0.00    +0.000 C 
ATOM      2  C   UNL     1      -7.206   2.847 126.094  0.00  0.00    +0.000 C 
ATOM      3  C   UNL     1      -8.332   2.566 125.119  0.00  0.00    +0.000 C 
ATOM      4  C   UNL     1      -7.846   0.850 124.015  0.00  0.00    +0.000 C 
ATOM      5  C   UNL     1      -8.327   0.869 125.283  0.00  0.00    +0.000 C 
ATOM      6  C   UNL     1      -8.557   0.009 126.423  0.00  0.00    +0.000 C 
ATOM      7  C   UNL     1      -9.746   1.307 124.124  0.00  0.00    +0.000 C 
ATOM      8  C   UNL     1      -9.092   2.061 122.651  0.00  0.00    +0.000 C 
ATOM      9  C   UNL     1      -7.782   3.089 122.771  0.00  0.00    +0.000 C 
ATOM     10  C   UNL     1      -7.365   3.679 121.472  0.00  0.00    +0.000 A 
ATOM     11  C   UNL     1      -6.081   4.238 121.353  0.00  0.00    +0.000 A 
ATOM     12  C   UNL     1      -5.052   4.219 122.469  0.00  0.00    +0.000 C 
ATOM     13  C   UNL     1      -5.582   3.824 123.833  0.00  0.00    +0.000 C 
ATOM     14  C   UNL     1      -6.461   2.612 123.633  0.00  0.00    +0.000 C 
ATOM     15  C   UNL     1      -5.731   4.776 120.124  0.00  0.00    +0.000 A 
ATOM     16  C   UNL     1      -6.668   4.812 119.090  0.00  0.00    +0.000 A 
ATOM     17  C   UNL     1      -7.961   4.352 119.253  0.00  0.00    +0.000 A 
ATOM     18  C   UNL     1      -8.320   3.808 120.459  0.00  0.00    +0.000 A 
ENDROOT
BRANCH   3  19
ATOM     19  O   UNL     1      -9.060   3.805 124.774  0.00  0.00    +0.000 OA
ATOM     20  H   UNL     1      -9.207   3.969 123.819  0.00  0.00    +0.000 HD
ENDBRANCH   3  19
BRANCH   4  21
ATOM     21  O   UNL     1      -8.382  -0.499 123.664  0.00  0.00    +0.000 OA
ATOM     22  H   UNL     1      -7.837  -1.117 123.143  0.00  0.00    +0.000 HD
ENDBRANCH   4  21
BRANCH  16  23
ATOM     23  O   UNL     1      -6.349   5.311 117.866  0.00  0.00    +0.000 OA
ATOM     24  H   UNL     1      -5.621   4.778 117.514  0.00  0.00    +0.000 HD
ENDBRANCH  16  23
TORSDOF 3
ENDMDL
MODEL 2
REMARK VINA RESULT:      -7.5      8.473      9.051
REMARK  Name = Estriol
REMARK  4 active torsions:
REMARK  status: ('A' for Active; 'I' for Inactive)
REMARK    1  A    between atoms: C_4  and  O_5
REMARK    2  A    between atoms: C_6  and  O_7
REMARK    3  A    between atoms: C_8  and  C_9
REMARK    4  A    between atoms: C_21  and  O_22
REMARK                            x       y       z     vdW  Elec       q    Type
REMARK                         _______ _______ _______ _____ _____    ______ ____
ROOT
ATOM      1  C   UNL     1      -7.196   3.441 132.407  0.00  0.00    +0.000 C 
ATOM      2  C   UNL     1      -7.499   3.703 133.771  0.00  0.00    +0.000 C 
ATOM      3  C   UNL     1      -8.760   3.134 133.152  0.00  0.00    +0.000 C 
ATOM      4  C   UNL     1      -8.295   2.415 131.236  0.00  0.00    +0.000 C 
ATOM      5  C   UNL     1      -8.031   1.784 132.407  0.00  0.00    +0.000 C 
ATOM      6  C   UNL     1      -7.306   0.657 132.951  0.00  0.00    +0.000 C 
ATOM      7  C   UNL     1      -9.884   1.656 132.090  0.00  0.00    +0.000 C 
ATOM      8  C   UNL     1     -10.410   3.040 131.104  0.00  0.00    +0.000 C 
ATOM      9  C   UNL     1      -9.723   4.539 131.366  0.00  0.00    +0.000 C 
ATOM     10  C   UNL     1     -10.282   5.611 130.501  0.00  0.00    +0.000 A 
ATOM     11  C   UNL     1      -9.559   6.805 130.335  0.00  0.00    +0.000 A 
ATOM     12  C   UNL     1      -8.189   7.046 130.942  0.00  0.00    +0.000 C 
ATOM     13  C   UNL     1      -7.758   6.040 131.991  0.00  0.00    +0.000 C 
ATOM     14  C   UNL     1      -8.083   4.668 131.450  0.00  0.00    +0.000 C 
ATOM     15  C   UNL     1     -10.116   7.778 129.519  0.00  0.00    +0.000 A 
ATOM     16  C   UNL     1     -11.380   7.578 128.962  0.00  0.00    +0.000 A 
ATOM     17  C   UNL     1     -12.124   6.442 129.218  0.00  0.00    +0.000 A 
ATOM     18  C   UNL     1     -11.585   5.465 130.014  0.00  0.00    +0.000 A 
ENDROOT
BRANCH   3  19
ATOM     19  O   UNL     1      -9.967   3.774 133.715  0.00  0.00    +0.000 OA
ATOM     20  H   UNL     1     -10.140   4.696 133.429  0.00  0.00    +0.000 HD
ENDBRANCH   3  19
BRANCH   4  21
ATOM     21  O   UNL     1      -8.379   1.176 130.406  0.00  0.00    +0.000 OA
ATOM     22  H   UNL     1      -8.267   0.304 130.826  0.00  0.00    +0.000 HD
ENDBRANCH   4  21
BRANCH  16  23
ATOM     23  O   UNL     1     -11.942   8.503 128.139  0.00  0.00    +0.000 OA
ATOM     24  H   UNL     1     -12.150   8.060 127.302  0.00  0.00    +0.000 HD
ENDBRANCH  16  23
TORSDOF 3
ENDMDL
MODEL 3
REMARK VINA RESULT:      -7.5      4.775      8.501
REMARK  Name = Estriol
REMARK  4 active torsions:
REMARK  status: ('A' for Active; 'I' for Inactive)
REMARK    1  A    between atoms: C_4  and  O_5
REMARK    2  A    between atoms: C_6  and  O_7
REMARK    3  A    between atoms: C_8  and  C_9
REMARK    4  A    between atoms: C_21  and  O_22
REMARK                            x       y       z     vdW  Elec       q    Type
REMARK                         _______ _______ _______ _____ _____    ______ ____
ROOT
ATOM      1  C   UNL     1      -8.004  -3.332 124.856  0.00  0.00    +0.000 C 
ATOM      2  C   UNL     1      -9.359  -3.059 124.524  0.00  0.00    +0.000 C 
ATOM      3  C   UNL     1      -8.705  -1.719 124.797  0.00  0.00    +0.000 C 
ATOM      4  C   UNL     1      -6.634  -2.012 124.965  0.00  0.00    +0.000 C 
ATOM      5  C   UNL     1      -7.337  -1.955 123.807  0.00  0.00    +0.000 C 
ATOM      6  C   UNL     1      -7.203  -2.188 122.385  0.00  0.00    +0.000 C 
ATOM      7  C   UNL     1      -7.224  -0.205 124.496  0.00  0.00    +0.000 C 
ATOM      8  C   UNL     1      -7.065  -0.280 126.267  0.00  0.00    +0.000 C 
ATOM      9  C   UNL     1      -7.907  -1.444 127.116  0.00  0.00    +0.000 C 
ATOM     10  C   UNL     1      -7.714  -1.367 128.588  0.00  0.00    +0.000 A 
ATOM     11  C   UNL     1      -8.034  -2.482 129.381  0.00  0.00    +0.000 A 
ATOM     12  C   UNL     1      -8.513  -3.806 128.812  0.00  0.00    +0.000 C 
ATOM     13  C   UNL     1      -8.914  -3.776 127.351  0.00  0.00    +0.000 C 
ATOM     14  C   UNL     1      -7.841  -3.012 126.612  0.00  0.00    +0.000 C 
ATOM     15  C   UNL     1      -7.838  -2.367 130.749  0.00  0.00    +0.000 A 
ATOM     16  C   UNL     1      -7.410  -1.154 131.290  0.00  0.00    +0.000 A 
ATOM     17  C   UNL     1      -7.197  -0.034 130.508  0.00  0.00    +0.000 A 
ATOM     18  C   UNL     1      -7.377  -0.133 129.153  0.00  0.00    +0.000 A 
ENDROOT
BRANCH   3  19
ATOM     19  O   UNL     1      -9.643  -0.794 125.465  0.00  0.00    +0.000 OA
ATOM     20  H   UNL     1      -9.275  -0.264 126.204  0.00  0.00    +0.000 HD
ENDBRANCH   3  19
BRANCH   4  21
ATOM     21  O   UNL     1      -5.341  -1.538 124.388  0.00  0.00    +0.000 OA
ATOM     22  H   UNL     1      -5.341  -1.019 123.562  0.00  0.00    +0.000 HD
ENDBRANCH   4  21
BRANCH  16  23
ATOM     23  O   UNL     1      -7.185  -1.017 132.625  0.00  0.00    +0.000 OA
ATOM     24  H   UNL     1      -7.062  -0.073 132.805  0.00  0.00    +0.000 HD
ENDBRANCH  16  23
TORSDOF 3
ENDMDL
MODEL 4
REMARK VINA RESULT:      -7.4      3.220      5.013
REMARK  Name = Estriol
REMARK  4 active torsions:
REMARK  status: ('A' for Active; 'I' for Inactive)
REMARK    1  A    between atoms: C_4  and  O_5
REMARK    2  A    between atoms: C_6  and  O_7
REMARK    3  A    between atoms: C_8  and  C_9
REMARK    4  A    between atoms: C_21  and  O_22
REMARK                            x       y       z     vdW  Elec       q    Type
REMARK                         _______ _______ _______ _____ _____    ______ ____
ROOT
ATOM      1  C   UNL     1      -8.980  -2.013 124.115  0.00  0.00    +0.000 C 
ATOM      2  C   UNL     1      -8.664  -2.317 122.762  0.00  0.00    +0.000 C 
ATOM      3  C   UNL     1      -7.347  -2.052 123.464  0.00  0.00    +0.000 C 
ATOM      4  C   UNL     1      -7.705  -1.925 125.528  0.00  0.00    +0.000 C 
ATOM      5  C   UNL     1      -7.621  -3.070 124.804  0.00  0.00    +0.000 C 
ATOM      6  C   UNL     1      -7.851  -4.495 124.903  0.00  0.00    +0.000 C 
ATOM      7  C   UNL     1      -5.879  -2.375 124.985  0.00  0.00    +0.000 C 
ATOM      8  C   UNL     1      -5.966  -0.609 125.177  0.00  0.00    +0.000 C 
ATOM      9  C   UNL     1      -7.108   0.252 124.316  0.00  0.00    +0.000 C 
ATOM     10  C   UNL     1      -7.044   1.720 124.540  0.00  0.00    +0.000 A 
ATOM     11  C   UNL     1      -8.152   2.515 124.201  0.00  0.00    +0.000 A 
ATOM     12  C   UNL     1      -9.458   1.950 123.670  0.00  0.00    +0.000 C 
ATOM     13  C   UNL     1      -9.408   0.497 123.241  0.00  0.00    +0.000 C 
ATOM     14  C   UNL     1      -8.674  -0.259 124.322  0.00  0.00    +0.000 C 
ATOM     15  C   UNL     1      -8.051   3.880 124.427  0.00  0.00    +0.000 A 
ATOM     16  C   UNL     1      -6.854   4.417 124.904  0.00  0.00    +0.000 A 
ATOM     17  C   UNL     1      -5.738   3.636 125.136  0.00  0.00    +0.000 A 
ATOM     18  C   UNL     1      -5.824   2.284 124.927  0.00  0.00    +0.000 A 
ENDROOT
BRANCH   3  19
ATOM     19  O   UNL     1      -6.395  -1.361 122.569  0.00  0.00    +0.000 OA
ATOM     20  H   UNL     1      -5.687  -1.916 122.181  0.00  0.00    +0.000 HD
ENDBRANCH   3  19
BRANCH   4  21
ATOM     21  O   UNL     1      -7.269  -2.527 126.823  0.00  0.00    +0.000 OA
ATOM     22  H   UNL     1      -6.784  -1.982 127.471  0.00  0.00    +0.000 HD
ENDBRANCH   4  21
BRANCH  16  23
ATOM     23  O   UNL     1      -6.731   5.747 125.159  0.00  0.00    +0.000 OA
ATOM     24  H   UNL     1      -7.557   6.175 124.888  0.00  0.00    +0.000 HD
ENDBRANCH  16  23
TORSDOF 3
ENDMDL
MODEL 5
REMARK VINA RESULT:      -7.3      6.302      8.165
REMARK  Name = Estriol
REMARK  4 active torsions:
REMARK  status: ('A' for Active; 'I' for Inactive)
REMARK    1  A    between atoms: C_4  and  O_5
REMARK    2  A    between atoms: C_6  and  O_7
REMARK    3  A    between atoms: C_8  and  C_9
REMARK    4  A    between atoms: C_21  and  O_22
REMARK                            x       y       z     vdW  Elec       q    Type
REMARK                         _______ _______ _______ _____ _____    ______ ____
ROOT
ATOM      1  C   UNL     1      -4.365  -2.115 129.380  0.00  0.00    +0.000 C 
ATOM      2  C   UNL     1      -4.601  -0.800 129.865  0.00  0.00    +0.000 C 
ATOM      3  C   UNL     1      -5.831  -1.615 130.213  0.00  0.00    +0.000 C 
ATOM      4  C   UNL     1      -5.420  -3.637 129.829  0.00  0.00    +0.000 C 
ATOM      5  C   UNL     1      -5.009  -2.935 130.914  0.00  0.00    +0.000 C 
ATOM      6  C   UNL     1      -4.128  -3.026 132.058  0.00  0.00    +0.000 C 
ATOM      7  C   UNL     1      -6.854  -3.266 131.109  0.00  0.00    +0.000 C 
ATOM      8  C   UNL     1      -7.595  -3.433 129.501  0.00  0.00    +0.000 C 
ATOM      9  C   UNL     1      -7.063  -2.463 128.251  0.00  0.00    +0.000 C 
ATOM     10  C   UNL     1      -7.795  -2.678 126.974  0.00  0.00    +0.000 A 
ATOM     11  C   UNL     1      -7.221  -2.232 125.771  0.00  0.00    +0.000 A 
ATOM     12  C   UNL     1      -5.848  -1.591 125.684  0.00  0.00    +0.000 C 
ATOM     13  C   UNL     1      -5.239  -1.182 127.011  0.00  0.00    +0.000 C 
ATOM     14  C   UNL     1      -5.445  -2.333 127.967  0.00  0.00    +0.000 C 
ATOM     15  C   UNL     1      -7.937  -2.454 124.604  0.00  0.00    +0.000 A 
ATOM     16  C   UNL     1      -9.206  -3.032 124.667  0.00  0.00    +0.000 A 
ATOM     17  C   UNL     1      -9.801  -3.372 125.867  0.00  0.00    +0.000 A 
ATOM     18  C   UNL     1      -9.103  -3.168 127.030  0.00  0.00    +0.000 A 
ENDROOT
BRANCH   3  19
ATOM     19  O   UNL     1      -7.060  -0.804 130.096  0.00  0.00    +0.000 OA
ATOM     20  H   UNL     1      -6.943   0.113 129.769  0.00  0.00    +0.000 HD
ENDBRANCH   3  19
BRANCH   4  21
ATOM     21  O   UNL     1      -5.422  -4.972 130.497  0.00  0.00    +0.000 OA
ATOM     22  H   UNL     1      -4.966  -5.724 130.077  0.00  0.00    +0.000 HD
ENDBRANCH   4  21
BRANCH  16  23
ATOM     23  O   UNL     1      -9.922  -3.285 123.539  0.00  0.00    +0.000 OA
ATOM     24  H   UNL     1     -10.704  -2.713 123.555  0.00  0.00    +0.000 HD
ENDBRANCH  16  23
TORSDOF 3
ENDMDL
MODEL 6
REMARK VINA RESULT:      -7.1      2.830      4.718
REMARK  Name = Estriol
REMARK  4 active torsions:
REMARK  status: ('A' for Active; 'I' for Inactive)
REMARK    1  A    between atoms: C_4  and  O_5
REMARK    2  A    between atoms: C_6  and  O_7
REMARK    3  A    between atoms: C_8  and  C_9
REMARK    4  A    between atoms: C_21  and  O_22
REMARK                            x       y       z     vdW  Elec       q    Type
REMARK                         _______ _______ _______ _____ _____    ______ ____
ROOT
ATOM      1  C   UNL     1      -8.007  -1.991 126.133  0.00  0.00    +0.000 C 
ATOM      2  C   UNL     1      -9.389  -2.124 125.827  0.00  0.00    +0.000 C 
ATOM      3  C   UNL     1      -8.696  -1.738 124.535  0.00  0.00    +0.000 C 
ATOM      4  C   UNL     1      -6.622  -1.852 124.831  0.00  0.00    +0.000 C 
ATOM      5  C   UNL     1      -7.452  -2.902 124.615  0.00  0.00    +0.000 C 
ATOM      6  C   UNL     1      -7.483  -4.348 124.641  0.00  0.00    +0.000 C 
ATOM      7  C   UNL     1      -7.247  -1.986 122.981  0.00  0.00    +0.000 C 
ATOM      8  C   UNL     1      -6.887  -0.275 123.307  0.00  0.00    +0.000 C 
ATOM      9  C   UNL     1      -7.636   0.489 124.588  0.00  0.00    +0.000 C 
ATOM     10  C   UNL     1      -7.276   1.926 124.721  0.00  0.00    +0.000 A 
ATOM     11  C   UNL     1      -7.512   2.582 125.940  0.00  0.00    +0.000 A 
ATOM     12  C   UNL     1      -8.064   1.888 127.173  0.00  0.00    +0.000 C 
ATOM     13  C   UNL     1      -8.629   0.501 126.938  0.00  0.00    +0.000 C 
ATOM     14  C   UNL     1      -7.642  -0.238 126.066  0.00  0.00    +0.000 C 
ATOM     15  C   UNL     1      -7.160   3.921 126.022  0.00  0.00    +0.000 A 
ATOM     16  C   UNL     1      -6.663   4.578 124.896  0.00  0.00    +0.000 A 
ATOM     17  C   UNL     1      -6.531   3.945 123.673  0.00  0.00    +0.000 A 
ATOM     18  C   UNL     1      -6.866   2.619 123.578  0.00  0.00    +0.000 A 
ENDROOT
BRANCH   3  19
ATOM     19  O   UNL     1      -9.544  -0.842 123.722  0.00  0.00    +0.000 OA
ATOM     20  H   UNL     1      -9.981  -0.108 124.202  0.00  0.00    +0.000 HD
ENDBRANCH   3  19
BRANCH   4  21
ATOM     21  O   UNL     1      -5.400  -2.499 124.269  0.00  0.00    +0.000 OA
ATOM     22  H   UNL     1      -4.952  -3.206 124.769  0.00  0.00    +0.000 HD
ENDBRANCH   4  21
BRANCH  16  23
ATOM     23  O   UNL     1      -6.285   5.883 124.949  0.00  0.00    +0.000 OA
ATOM     24  H   UNL     1      -6.387   6.254 124.060  0.00  0.00    +0.000 HD
ENDBRANCH  16  23
TORSDOF 3
ENDMDL
MODEL 7
REMARK VINA RESULT:      -7.1      1.574      2.203
REMARK  Name = Estriol
REMARK  4 active torsions:
REMARK  status: ('A' for Active; 'I' for Inactive)
REMARK    1  A    between atoms: C_4  and  O_5
REMARK    2  A    between atoms: C_6  and  O_7
REMARK    3  A    between atoms: C_8  and  C_9
REMARK    4  A    between atoms: C_21  and  O_22
REMARK                            x       y       z     vdW  Elec       q    Type
REMARK                         _______ _______ _______ _____ _____    ______ ____
ROOT
ATOM      1  C   UNL     1      -7.524   0.659 126.244  0.00  0.00    +0.000 C 
ATOM      2  C   UNL     1      -8.646   1.355 126.770  0.00  0.00    +0.000 C 
ATOM      3  C   UNL     1      -8.924   1.143 125.295  0.00  0.00    +0.000 C 
ATOM      4  C   UNL     1      -7.473  -0.164 124.526  0.00  0.00    +0.000 C 
ATOM      5  C   UNL     1      -8.558  -0.522 125.256  0.00  0.00    +0.000 C 
ATOM      6  C   UNL     1      -9.141  -1.655 125.943  0.00  0.00    +0.000 C 
ATOM      7  C   UNL     1      -9.156  -0.047 123.533  0.00  0.00    +0.000 C 
ATOM      8  C   UNL     1      -8.027   1.128 122.822  0.00  0.00    +0.000 C 
ATOM      9  C   UNL     1      -7.331   2.289 123.799  0.00  0.00    +0.000 C 
ATOM     10  C   UNL     1      -6.441   3.230 123.068  0.00  0.00    +0.000 A 
ATOM     11  C   UNL     1      -5.509   3.994 123.792  0.00  0.00    +0.000 A 
ATOM     12  C   UNL     1      -5.308   3.870 125.292  0.00  0.00    +0.000 C 
ATOM     13  C   UNL     1      -6.375   3.084 126.026  0.00  0.00    +0.000 C 
ATOM     14  C   UNL     1      -6.637   1.833 125.221  0.00  0.00    +0.000 C 
ATOM     15  C   UNL     1      -4.698   4.858 123.072  0.00  0.00    +0.000 A 
ATOM     16  C   UNL     1      -4.877   4.993 121.694  0.00  0.00    +0.000 A 
ATOM     17  C   UNL     1      -5.866   4.310 121.011  0.00  0.00    +0.000 A 
ATOM     18  C   UNL     1      -6.671   3.446 121.706  0.00  0.00    +0.000 A 
ENDROOT
BRANCH   3  19
ATOM     19  O   UNL     1      -9.638   2.299 124.715  0.00  0.00    +0.000 OA
ATOM     20  H   UNL     1      -9.091   2.937 124.211  0.00  0.00    +0.000 HD
ENDBRANCH   3  19
BRANCH   4  21
ATOM     21  O   UNL     1      -7.345  -1.457 123.790  0.00  0.00    +0.000 OA
ATOM     22  H   UNL     1      -6.704  -2.125 124.094  0.00  0.00    +0.000 HD
ENDBRANCH   4  21
BRANCH  16  23
ATOM     23  O   UNL     1      -4.081   5.812 120.956  0.00  0.00    +0.000 OA
ATOM     24  H   UNL     1      -3.262   5.951 121.455  0.00  0.00    +0.000 HD
ENDBRANCH  16  23
TORSDOF 3
ENDMDL
MODEL 8
REMARK VINA RESULT:      -7.1      5.118      8.457
REMARK  Name = Estriol
REMARK  4 active torsions:
REMARK  status: ('A' for Active; 'I' for Inactive)
REMARK    1  A    between atoms: C_4  and  O_5
REMARK    2  A    between atoms: C_6  and  O_7
REMARK    3  A    between atoms: C_8  and  C_9
REMARK    4  A    between atoms: C_21  and  O_22
REMARK                            x       y       z     vdW  Elec       q    Type
REMARK                         _______ _______ _______ _____ _____    ______ ____
ROOT
ATOM      1  C   UNL     1      -8.111  -0.386 125.066  0.00  0.00    +0.000 C 
ATOM      2  C   UNL     1      -6.749  -0.320 124.662  0.00  0.00    +0.000 C 
ATOM      3  C   UNL     1      -6.970  -1.717 125.206  0.00  0.00    +0.000 C 
ATOM      4  C   UNL     1      -9.027  -1.997 125.511  0.00  0.00    +0.000 C 
ATOM      5  C   UNL     1      -8.384  -2.062 124.318  0.00  0.00    +0.000 C 
ATOM      6  C   UNL     1      -8.636  -2.138 122.895  0.00  0.00    +0.000 C 
ATOM      7  C   UNL     1      -7.950  -3.617 125.289  0.00  0.00    +0.000 C 
ATOM      8  C   UNL     1      -8.055  -3.271 127.031  0.00  0.00    +0.000 C 
ATOM      9  C   UNL     1      -7.561  -1.781 127.601  0.00  0.00    +0.000 C 
ATOM     10  C   UNL     1      -7.664  -1.642 129.078  0.00  0.00    +0.000 A 
ATOM     11  C   UNL     1      -7.656  -0.357 129.647  0.00  0.00    +0.000 A 
ATOM     12  C   UNL     1      -7.611   0.922 128.830  0.00  0.00    +0.000 C 
ATOM     13  C   UNL     1      -7.276   0.742 127.363  0.00  0.00    +0.000 C 
ATOM     14  C   UNL     1      -8.104  -0.415 126.858  0.00  0.00    +0.000 C 
ATOM     15  C   UNL     1      -7.757  -0.272 131.028  0.00  0.00    +0.000 A 
ATOM     16  C   UNL     1      -7.787  -1.437 131.795  0.00  0.00    +0.000 A 
ATOM     17  C   UNL     1      -7.692  -2.694 131.227  0.00  0.00    +0.000 A 
ATOM     18  C   UNL     1      -7.602  -2.797 129.864  0.00  0.00    +0.000 A 
ENDROOT
BRANCH   3  19
ATOM     19  O   UNL     1      -5.776  -2.203 125.928  0.00  0.00    +0.000 OA
ATOM     20  H   UNL     1      -5.046  -2.549 125.373  0.00  0.00    +0.000 HD
ENDBRANCH   3  19
BRANCH   4  21
ATOM     21  O   UNL     1     -10.144  -2.914 125.136  0.00  0.00    +0.000 OA
ATOM     22  H   UNL     1     -10.333  -3.697 125.686  0.00  0.00    +0.000 HD
ENDBRANCH   4  21
BRANCH  16  23
ATOM     23  O   UNL     1      -7.911  -1.388 133.148  0.00  0.00    +0.000 OA
ATOM     24  H   UNL     1      -8.851  -1.487 133.360  0.00  0.00    +0.000 HD
ENDBRANCH  16  23
TORSDOF 3
ENDMDL
MODEL 9
REMARK VINA RESULT:      -7.0      5.684      7.916
REMARK  Name = Estriol
REMARK  4 active torsions:
REMARK  status: ('A' for Active; 'I' for Inactive)
REMARK    1  A    between atoms: C_4  and  O_5
REMARK    2  A    between atoms: C_6  and  O_7
REMARK    3  A    between atoms: C_8  and  C_9
REMARK    4  A    between atoms: C_21  and  O_22
REMARK                            x       y       z     vdW  Elec       q    Type
REMARK                         _______ _______ _______ _____ _____    ______ ____
ROOT
ATOM      1  C   UNL     1      -7.532  -2.297 130.501  0.00  0.00    +0.000 C 
ATOM      2  C   UNL     1      -6.801  -3.473 130.821  0.00  0.00    +0.000 C 
ATOM      3  C   UNL     1      -5.857  -2.578 130.043  0.00  0.00    +0.000 C 
ATOM      4  C   UNL     1      -6.753  -0.694 129.826  0.00  0.00    +0.000 C 
ATOM      5  C   UNL     1      -6.136  -1.156 130.942  0.00  0.00    +0.000 C 
ATOM      6  C   UNL     1      -5.932  -0.841 132.339  0.00  0.00    +0.000 C 
ATOM      7  C   UNL     1      -4.802  -0.755 129.674  0.00  0.00    +0.000 C 
ATOM      8  C   UNL     1      -5.478  -0.920 128.036  0.00  0.00    +0.000 C 
ATOM      9  C   UNL     1      -6.569  -2.144 127.721  0.00  0.00    +0.000 C 
ATOM     10  C   UNL     1      -7.021  -2.191 126.306  0.00  0.00    +0.000 A 
ATOM     11  C   UNL     1      -8.195  -2.894 125.984  0.00  0.00    +0.000 A 
ATOM     12  C   UNL     1      -9.080  -3.566 127.019  0.00  0.00    +0.000 C 
ATOM     13  C   UNL     1      -8.475  -3.695 128.403  0.00  0.00    +0.000 C 
ATOM     14  C   UNL     1      -7.846  -2.364 128.738  0.00  0.00    +0.000 C 
ATOM     15  C   UNL     1      -8.582  -2.912 124.653  0.00  0.00    +0.000 A 
ATOM     16  C   UNL     1      -7.775  -2.309 123.687  0.00  0.00    +0.000 A 
ATOM     17  C   UNL     1      -6.570  -1.709 124.005  0.00  0.00    +0.000 A 
ATOM     18  C   UNL     1      -6.178  -1.675 125.317  0.00  0.00    +0.000 A 
ENDROOT
BRANCH   3  19
ATOM     19  O   UNL     1      -4.969  -3.372 129.168  0.00  0.00    +0.000 OA
ATOM     20  H   UNL     1      -5.259  -4.288 128.976  0.00  0.00    +0.000 HD
ENDBRANCH   3  19
BRANCH   4  21
ATOM     21  O   UNL     1      -6.500   0.753 130.095  0.00  0.00    +0.000 OA
ATOM     22  H   UNL     1      -6.344   1.055 131.009  0.00  0.00    +0.000 HD
ENDBRANCH   4  21
BRANCH  16  23
ATOM     23  O   UNL     1      -8.139  -2.288 122.376  0.00  0.00    +0.000 OA
ATOM     24  H   UNL     1      -8.876  -2.907 122.267  0.00  0.00    +0.000 HD
ENDBRANCH  16  23
TORSDOF 3
ENDMDL
