MODEL 1
REMARK VINA RESULT:      -8.1      0.000      0.000
REMARK  Name = Estradiol valerate
REMARK  8 active torsions:
REMARK  status: ('A' for Active; 'I' for Inactive)
REMARK    1  A    between atoms: C_5  and  O_6
REMARK    2  A    between atoms: O_6  and  C_7
REMARK    3  A    between atoms: C_7  and  C_9
REMARK    4  A    between atoms: C_9  and  C_10
REMARK    5  A    between atoms: C_10  and  C_11
REMARK    6  A    between atoms: C_11  and  C_12
REMARK    7  A    between atoms: C_13  and  C_14
REMARK    8  A    between atoms: C_26  and  O_27
REMARK                            x       y       z     vdW  Elec       q    Type
REMARK                         _______ _______ _______ _____ _____    ______ ____
ROOT
ATOM      1  C   UNL     1      -7.540   1.998 124.260  0.00  0.00    +0.000 C 
ATOM      2  C   UNL     1      -8.916   2.349 123.708  0.00  0.00    +0.000 C 
ATOM      3  C   UNL     1      -9.490   0.982 123.261  0.00  0.00    +0.000 C 
ATOM      4  C   UNL     1      -8.545  -0.119 123.821  0.00  0.00    +0.000 C 
ATOM      5  C   UNL     1      -7.770   0.628 124.933  0.00  0.00    +0.000 C 
ATOM      6  C   UNL     1      -8.638   0.684 126.214  0.00  0.00    +0.000 C 
ATOM      7  C   UNL     1      -6.393   0.044 125.267  0.00  0.00    +0.000 C 
ATOM      8  C   UNL     1      -5.557   0.971 126.136  0.00  0.00    +0.000 C 
ATOM      9  C   UNL     1      -5.412   2.377 125.535  0.00  0.00    +0.000 C 
ATOM     10  C   UNL     1      -4.586   3.312 126.401  0.00  0.00    +0.000 A 
ATOM     11  C   UNL     1      -4.843   4.695 126.396  0.00  0.00    +0.000 A 
ATOM     12  C   UNL     1      -5.987   5.295 125.614  0.00  0.00    +0.000 C 
ATOM     13  C   UNL     1      -6.614   4.357 124.582  0.00  0.00    +0.000 C 
ATOM     14  C   UNL     1      -6.813   2.974 125.195  0.00  0.00    +0.000 C 
ATOM     15  C   UNL     1      -4.063   5.549 127.195  0.00  0.00    +0.000 A 
ATOM     16  C   UNL     1      -3.036   5.034 127.977  0.00  0.00    +0.000 A 
ATOM     17  C   UNL     1      -2.754   3.679 127.969  0.00  0.00    +0.000 A 
ATOM     18  C   UNL     1      -3.513   2.827 127.172  0.00  0.00    +0.000 A 
ENDROOT
BRANCH  16  19
ATOM     19  O   UNL     1      -2.275   5.836 128.772  0.00  0.00    +0.000 OA
ATOM     20  H   UNL     1      -1.875   6.525 128.217  0.00  0.00    +0.000 HD
ENDBRANCH  16  19
BRANCH   4  21
ATOM     21  O   UNL     1      -9.295  -1.257 124.309  0.00  0.00    +0.000 OA
BRANCH  21  22
ATOM     22  C   UNL     1      -9.042  -2.441 123.679  0.00  0.00    +0.000 C 
ATOM     23  O   UNL     1      -9.839  -3.373 123.599  0.00  0.00    +0.000 OA
BRANCH  22  24
ATOM     24  C   UNL     1      -7.652  -2.512 123.097  0.00  0.00    +0.000 C 
BRANCH  24  25
ATOM     25  C   UNL     1      -6.762  -3.366 124.013  0.00  0.00    +0.000 C 
BRANCH  25  26
ATOM     26  C   UNL     1      -5.278  -3.198 123.715  0.00  0.00    +0.000 C 
ATOM     27  C   UNL     1      -4.572  -4.546 123.724  0.00  0.00    +0.000 C 
ENDBRANCH  25  26
ENDBRANCH  24  25
ENDBRANCH  22  24
ENDBRANCH  21  22
ENDBRANCH   4  21
TORSDOF 6
ENDMDL
MODEL 2
REMARK VINA RESULT:      -7.7      2.997      4.533
REMARK  Name = Estradiol valerate
REMARK  8 active torsions:
REMARK  status: ('A' for Active; 'I' for Inactive)
REMARK    1  A    between atoms: C_5  and  O_6
REMARK    2  A    between atoms: O_6  and  C_7
REMARK    3  A    between atoms: C_7  and  C_9
REMARK    4  A    between atoms: C_9  and  C_10
REMARK    5  A    between atoms: C_10  and  C_11
REMARK    6  A    between atoms: C_11  and  C_12
REMARK    7  A    between atoms: C_13  and  C_14
REMARK    8  A    between atoms: C_26  and  O_27
REMARK                            x       y       z     vdW  Elec       q    Type
REMARK                         _______ _______ _______ _____ _____    ______ ____
ROOT
ATOM      1  C   UNL     1      -6.459   1.332 126.425  0.00  0.00    +0.000 C 
ATOM      2  C   UNL     1      -5.752   1.167 127.765  0.00  0.00    +0.000 C 
ATOM      3  C   UNL     1      -6.418  -0.089 128.377  0.00  0.00    +0.000 C 
ATOM      4  C   UNL     1      -7.275  -0.748 127.259  0.00  0.00    +0.000 C 
ATOM      5  C   UNL     1      -6.691  -0.124 125.969  0.00  0.00    +0.000 C 
ATOM      6  C   UNL     1      -5.401  -0.882 125.572  0.00  0.00    +0.000 C 
ATOM      7  C   UNL     1      -7.653  -0.083 124.777  0.00  0.00    +0.000 C 
ATOM      8  C   UNL     1      -7.146   0.794 123.642  0.00  0.00    +0.000 C 
ATOM      9  C   UNL     1      -6.802   2.218 124.103  0.00  0.00    +0.000 C 
ATOM     10  C   UNL     1      -6.285   3.099 122.978  0.00  0.00    +0.000 A 
ATOM     11  C   UNL     1      -5.368   4.131 123.250  0.00  0.00    +0.000 A 
ATOM     12  C   UNL     1      -4.796   4.352 124.629  0.00  0.00    +0.000 C 
ATOM     13  C   UNL     1      -5.528   3.613 125.748  0.00  0.00    +0.000 C 
ATOM     14  C   UNL     1      -5.821   2.179 125.316  0.00  0.00    +0.000 C 
ATOM     15  C   UNL     1      -4.907   4.943 122.199  0.00  0.00    +0.000 A 
ATOM     16  C   UNL     1      -5.363   4.739 120.902  0.00  0.00    +0.000 A 
ATOM     17  C   UNL     1      -6.286   3.747 120.626  0.00  0.00    +0.000 A 
ATOM     18  C   UNL     1      -6.758   2.944 121.661  0.00  0.00    +0.000 A 
ENDROOT
BRANCH  16  19
ATOM     19  O   UNL     1      -4.921   5.502 119.863  0.00  0.00    +0.000 OA
ATOM     20  H   UNL     1      -5.227   5.097 119.036  0.00  0.00    +0.000 HD
ENDBRANCH  16  19
BRANCH   4  21
ATOM     21  O   UNL     1      -7.171  -2.191 127.298  0.00  0.00    +0.000 OA
BRANCH  21  22
ATOM     22  C   UNL     1      -8.337  -2.857 127.547  0.00  0.00    +0.000 C 
ATOM     23  O   UNL     1      -8.701  -3.235 128.657  0.00  0.00    +0.000 OA
BRANCH  22  24
ATOM     24  C   UNL     1      -9.145  -3.114 126.298  0.00  0.00    +0.000 C 
BRANCH  24  25
ATOM     25  C   UNL     1      -8.316  -3.968 125.326  0.00  0.00    +0.000 C 
BRANCH  25  26
ATOM     26  C   UNL     1      -8.227  -3.355 123.934  0.00  0.00    +0.000 C 
ATOM     27  C   UNL     1      -9.607  -3.255 123.301  0.00  0.00    +0.000 C 
ENDBRANCH  25  26
ENDBRANCH  24  25
ENDBRANCH  22  24
ENDBRANCH  21  22
ENDBRANCH   4  21
TORSDOF 6
ENDMDL
MODEL 3
REMARK VINA RESULT:      -7.7      5.304      9.211
REMARK  Name = Estradiol valerate
REMARK  8 active torsions:
REMARK  status: ('A' for Active; 'I' for Inactive)
REMARK    1  A    between atoms: C_5  and  O_6
REMARK    2  A    between atoms: O_6  and  C_7
REMARK    3  A    between atoms: C_7  and  C_9
REMARK    4  A    between atoms: C_9  and  C_10
REMARK    5  A    between atoms: C_10  and  C_11
REMARK    6  A    between atoms: C_11  and  C_12
REMARK    7  A    between atoms: C_13  and  C_14
REMARK    8  A    between atoms: C_26  and  O_27
REMARK                            x       y       z     vdW  Elec       q    Type
REMARK                         _______ _______ _______ _____ _____    ______ ____
ROOT
ATOM      1  C   UNL     1      -7.285  -1.744 130.985  0.00  0.00    +0.000 C 
ATOM      2  C   UNL     1      -7.524  -2.549 132.256  0.00  0.00    +0.000 C 
ATOM      3  C   UNL     1      -7.060  -1.596 133.385  0.00  0.00    +0.000 C 
ATOM      4  C   UNL     1      -6.835  -0.197 132.743  0.00  0.00    +0.000 C 
ATOM      5  C   UNL     1      -7.622  -0.300 131.414  0.00  0.00    +0.000 C 
ATOM      6  C   UNL     1      -9.125  -0.050 131.689  0.00  0.00    +0.000 C 
ATOM      7  C   UNL     1      -7.138   0.634 130.301  0.00  0.00    +0.000 C 
ATOM      8  C   UNL     1      -7.735   0.291 128.945  0.00  0.00    +0.000 C 
ATOM      9  C   UNL     1      -7.506  -1.176 128.551  0.00  0.00    +0.000 C 
ATOM     10  C   UNL     1      -8.108  -1.530 127.201  0.00  0.00    +0.000 A 
ATOM     11  C   UNL     1      -8.566  -2.837 126.951  0.00  0.00    +0.000 A 
ATOM     12  C   UNL     1      -8.565  -3.905 128.017  0.00  0.00    +0.000 C 
ATOM     13  C   UNL     1      -7.732  -3.569 129.254  0.00  0.00    +0.000 C 
ATOM     14  C   UNL     1      -8.000  -2.130 129.683  0.00  0.00    +0.000 C 
ATOM     15  C   UNL     1      -9.110  -3.151 125.694  0.00  0.00    +0.000 A 
ATOM     16  C   UNL     1      -9.185  -2.183 124.699  0.00  0.00    +0.000 A 
ATOM     17  C   UNL     1      -8.711  -0.903 124.923  0.00  0.00    +0.000 A 
ATOM     18  C   UNL     1      -8.159  -0.584 126.161  0.00  0.00    +0.000 A 
ENDROOT
BRANCH  16  19
ATOM     19  O   UNL     1      -9.721  -2.457 123.477  0.00  0.00    +0.000 OA
ATOM     20  H   UNL     1      -9.159  -3.115 123.038  0.00  0.00    +0.000 HD
ENDBRANCH  16  19
BRANCH   4  21
ATOM     21  O   UNL     1      -7.307   0.861 133.610  0.00  0.00    +0.000 OA
BRANCH  21  22
ATOM     22  C   UNL     1      -6.622   2.039 133.527  0.00  0.00    +0.000 C 
ATOM     23  O   UNL     1      -5.471   2.148 133.111  0.00  0.00    +0.000 OA
BRANCH  22  24
ATOM     24  C   UNL     1      -7.420   3.219 134.025  0.00  0.00    +0.000 C 
BRANCH  24  25
ATOM     25  C   UNL     1      -8.762   3.273 133.280  0.00  0.00    +0.000 C 
BRANCH  25  26
ATOM     26  C   UNL     1      -8.610   3.688 131.823  0.00  0.00    +0.000 C 
ATOM     27  C   UNL     1      -9.929   3.539 131.080  0.00  0.00    +0.000 C 
ENDBRANCH  25  26
ENDBRANCH  24  25
ENDBRANCH  22  24
ENDBRANCH  21  22
ENDBRANCH   4  21
TORSDOF 6
ENDMDL
MODEL 4
REMARK VINA RESULT:      -7.6      6.918      8.738
REMARK  Name = Estradiol valerate
REMARK  8 active torsions:
REMARK  status: ('A' for Active; 'I' for Inactive)
REMARK    1  A    between atoms: C_5  and  O_6
REMARK    2  A    between atoms: O_6  and  C_7
REMARK    3  A    between atoms: C_7  and  C_9
REMARK    4  A    between atoms: C_9  and  C_10
REMARK    5  A    between atoms: C_10  and  C_11
REMARK    6  A    between atoms: C_11  and  C_12
REMARK    7  A    between atoms: C_13  and  C_14
REMARK    8  A    between atoms: C_26  and  O_27
REMARK                            x       y       z     vdW  Elec       q    Type
REMARK                         _______ _______ _______ _____ _____    ______ ____
ROOT
ATOM      1  C   UNL     1      -7.963   4.054 131.452  0.00  0.00    +0.000 C 
ATOM      2  C   UNL     1      -8.643   2.763 131.018  0.00  0.00    +0.000 C 
ATOM      3  C   UNL     1     -10.137   3.154 130.911  0.00  0.00    +0.000 C 
ATOM      4  C   UNL     1     -10.216   4.704 131.018  0.00  0.00    +0.000 C 
ATOM      5  C   UNL     1      -8.764   5.142 130.707  0.00  0.00    +0.000 C 
ATOM      6  C   UNL     1      -8.551   5.153 129.173  0.00  0.00    +0.000 C 
ATOM      7  C   UNL     1      -8.357   6.497 131.295  0.00  0.00    +0.000 C 
ATOM      8  C   UNL     1      -6.858   6.744 131.219  0.00  0.00    +0.000 C 
ATOM      9  C   UNL     1      -6.038   5.613 131.858  0.00  0.00    +0.000 C 
ATOM     10  C   UNL     1      -4.539   5.847 131.778  0.00  0.00    +0.000 A 
ATOM     11  C   UNL     1      -3.655   4.755 131.702  0.00  0.00    +0.000 A 
ATOM     12  C   UNL     1      -4.146   3.330 131.607  0.00  0.00    +0.000 C 
ATOM     13  C   UNL     1      -5.626   3.144 131.940  0.00  0.00    +0.000 C 
ATOM     14  C   UNL     1      -6.451   4.232 131.260  0.00  0.00    +0.000 C 
ATOM     15  C   UNL     1      -2.270   4.987 131.639  0.00  0.00    +0.000 A 
ATOM     16  C   UNL     1      -1.774   6.286 131.665  0.00  0.00    +0.000 A 
ATOM     17  C   UNL     1      -2.631   7.367 131.769  0.00  0.00    +0.000 A 
ATOM     18  C   UNL     1      -4.004   7.147 131.843  0.00  0.00    +0.000 A 
ENDROOT
BRANCH  16  19
ATOM     19  O   UNL     1      -0.438   6.540 131.590  0.00  0.00    +0.000 OA
ATOM     20  H   UNL     1      -0.188   7.081 132.355  0.00  0.00    +0.000 HD
ENDBRANCH  16  19
BRANCH   4  21
ATOM     21  O   UNL     1     -11.190   5.246 130.096  0.00  0.00    +0.000 OA
BRANCH  21  22
ATOM     22  C   UNL     1     -11.817   6.387 130.507  0.00  0.00    +0.000 C 
ATOM     23  O   UNL     1     -12.518   6.474 131.512  0.00  0.00    +0.000 OA
BRANCH  22  24
ATOM     24  C   UNL     1     -11.583   7.553 129.578  0.00  0.00    +0.000 C 
BRANCH  24  25
ATOM     25  C   UNL     1     -12.934   8.052 129.043  0.00  0.00    +0.000 C 
BRANCH  25  26
ATOM     26  C   UNL     1     -13.539   7.114 128.007  0.00  0.00    +0.000 C 
ATOM     27  C   UNL     1     -12.664   7.048 126.764  0.00  0.00    +0.000 C 
ENDBRANCH  25  26
ENDBRANCH  24  25
ENDBRANCH  22  24
ENDBRANCH  21  22
ENDBRANCH   4  21
TORSDOF 6
ENDMDL
MODEL 5
REMARK VINA RESULT:      -7.4      3.923      6.126
REMARK  Name = Estradiol valerate
REMARK  8 active torsions:
REMARK  status: ('A' for Active; 'I' for Inactive)
REMARK    1  A    between atoms: C_5  and  O_6
REMARK    2  A    between atoms: O_6  and  C_7
REMARK    3  A    between atoms: C_7  and  C_9
REMARK    4  A    between atoms: C_9  and  C_10
REMARK    5  A    between atoms: C_10  and  C_11
REMARK    6  A    between atoms: C_11  and  C_12
REMARK    7  A    between atoms: C_13  and  C_14
REMARK    8  A    between atoms: C_26  and  O_27
REMARK                            x       y       z     vdW  Elec       q    Type
REMARK                         _______ _______ _______ _____ _____    ______ ____
ROOT
ATOM      1  C   UNL     1      -8.580  -2.224 126.503  0.00  0.00    +0.000 C 
ATOM      2  C   UNL     1      -8.579  -3.330 125.455  0.00  0.00    +0.000 C 
ATOM      3  C   UNL     1      -9.126  -2.631 124.187  0.00  0.00    +0.000 C 
ATOM      4  C   UNL     1      -9.157  -1.104 124.479  0.00  0.00    +0.000 C 
ATOM      5  C   UNL     1      -8.203  -0.968 125.689  0.00  0.00    +0.000 C 
ATOM      6  C   UNL     1      -6.738  -0.949 125.187  0.00  0.00    +0.000 C 
ATOM      7  C   UNL     1      -8.458   0.251 126.582  0.00  0.00    +0.000 C 
ATOM      8  C   UNL     1      -7.704   0.182 127.901  0.00  0.00    +0.000 C 
ATOM      9  C   UNL     1      -7.981  -1.116 128.674  0.00  0.00    +0.000 C 
ATOM     10  C   UNL     1      -7.224  -1.199 129.989  0.00  0.00    +0.000 A 
ATOM     11  C   UNL     1      -6.831  -2.448 130.503  0.00  0.00    +0.000 A 
ATOM     12  C   UNL     1      -7.058  -3.734 129.746  0.00  0.00    +0.000 C 
ATOM     13  C   UNL     1      -8.029  -3.619 128.571  0.00  0.00    +0.000 C 
ATOM     14  C   UNL     1      -7.720  -2.359 127.767  0.00  0.00    +0.000 C 
ATOM     15  C   UNL     1      -6.141  -2.507 131.726  0.00  0.00    +0.000 A 
ATOM     16  C   UNL     1      -5.859  -1.343 132.431  0.00  0.00    +0.000 A 
ATOM     17  C   UNL     1      -6.265  -0.111 131.951  0.00  0.00    +0.000 A 
ATOM     18  C   UNL     1      -6.960  -0.042 130.746  0.00  0.00    +0.000 A 
ENDROOT
BRANCH  16  19
ATOM     19  O   UNL     1      -5.178  -1.371 133.611  0.00  0.00    +0.000 OA
ATOM     20  H   UNL     1      -4.359  -1.874 133.478  0.00  0.00    +0.000 HD
ENDBRANCH  16  19
BRANCH   4  21
ATOM     21  O   UNL     1      -8.736  -0.339 123.325  0.00  0.00    +0.000 OA
BRANCH  21  22
ATOM     22  C   UNL     1      -9.629   0.592 122.879  0.00  0.00    +0.000 C 
ATOM     23  O   UNL     1     -10.771   0.339 122.504  0.00  0.00    +0.000 OA
BRANCH  22  24
ATOM     24  C   UNL     1      -9.063   1.991 122.867  0.00  0.00    +0.000 C 
BRANCH  24  25
ATOM     25  C   UNL     1      -7.547   1.925 123.107  0.00  0.00    +0.000 C 
BRANCH  25  26
ATOM     26  C   UNL     1      -7.087   2.852 124.225  0.00  0.00    +0.000 C 
ATOM     27  C   UNL     1      -8.281   3.510 124.902  0.00  0.00    +0.000 C 
ENDBRANCH  25  26
ENDBRANCH  24  25
ENDBRANCH  22  24
ENDBRANCH  21  22
ENDBRANCH   4  21
TORSDOF 6
ENDMDL
MODEL 6
REMARK VINA RESULT:      -7.3      5.739      9.341
REMARK  Name = Estradiol valerate
REMARK  8 active torsions:
REMARK  status: ('A' for Active; 'I' for Inactive)
REMARK    1  A    between atoms: C_5  and  O_6
REMARK    2  A    between atoms: O_6  and  C_7
REMARK    3  A    between atoms: C_7  and  C_9
REMARK    4  A    between atoms: C_9  and  C_10
REMARK    5  A    between atoms: C_10  and  C_11
REMARK    6  A    between atoms: C_11  and  C_12
REMARK    7  A    between atoms: C_13  and  C_14
REMARK    8  A    between atoms: C_26  and  O_27
REMARK                            x       y       z     vdW  Elec       q    Type
REMARK                         _______ _______ _______ _____ _____    ______ ____
ROOT
ATOM      1  C   UNL     1      -8.682   3.138 131.788  0.00  0.00    +0.000 C 
ATOM      2  C   UNL     1      -9.265   3.619 133.111  0.00  0.00    +0.000 C 
ATOM      3  C   UNL     1      -9.479   5.136 132.885  0.00  0.00    +0.000 C 
ATOM      4  C   UNL     1      -9.272   5.410 131.368  0.00  0.00    +0.000 C 
ATOM      5  C   UNL     1      -9.420   4.002 130.744  0.00  0.00    +0.000 C 
ATOM      6  C   UNL     1     -10.924   3.667 130.586  0.00  0.00    +0.000 C 
ATOM      7  C   UNL     1      -8.705   3.810 129.402  0.00  0.00    +0.000 C 
ATOM      8  C   UNL     1      -8.629   2.351 128.980  0.00  0.00    +0.000 C 
ATOM      9  C   UNL     1      -7.998   1.455 130.057  0.00  0.00    +0.000 C 
ATOM     10  C   UNL     1      -7.926  -0.006 129.648  0.00  0.00    +0.000 A 
ATOM     11  C   UNL     1      -7.998  -1.019 130.622  0.00  0.00    +0.000 A 
ATOM     12  C   UNL     1      -8.235  -0.713 132.081  0.00  0.00    +0.000 C 
ATOM     13  C   UNL     1      -8.050   0.756 132.461  0.00  0.00    +0.000 C 
ATOM     14  C   UNL     1      -8.725   1.648 131.424  0.00  0.00    +0.000 C 
ATOM     15  C   UNL     1      -7.920  -2.366 130.228  0.00  0.00    +0.000 A 
ATOM     16  C   UNL     1      -7.759  -2.698 128.888  0.00  0.00    +0.000 A 
ATOM     17  C   UNL     1      -7.658  -1.711 127.923  0.00  0.00    +0.000 A 
ATOM     18  C   UNL     1      -7.723  -0.373 128.304  0.00  0.00    +0.000 A 
ENDROOT
BRANCH  16  19
ATOM     19  O   UNL     1      -7.696  -3.995 128.477  0.00  0.00    +0.000 OA
ATOM     20  H   UNL     1      -7.995  -4.038 127.555  0.00  0.00    +0.000 HD
ENDBRANCH  16  19
BRANCH   4  21
ATOM     21  O   UNL     1     -10.239   6.364 130.870  0.00  0.00    +0.000 OA
BRANCH  21  22
ATOM     22  C   UNL     1      -9.738   7.332 130.047  0.00  0.00    +0.000 C 
ATOM     23  O   UNL     1      -8.554   7.652 129.987  0.00  0.00    +0.000 OA
BRANCH  22  24
ATOM     24  C   UNL     1     -10.803   8.004 129.215  0.00  0.00    +0.000 C 
BRANCH  24  25
ATOM     25  C   UNL     1     -11.816   6.950 128.743  0.00  0.00    +0.000 C 
BRANCH  25  26
ATOM     26  C   UNL     1     -12.216   7.129 127.284  0.00  0.00    +0.000 C 
ATOM     27  C   UNL     1     -11.043   7.648 126.465  0.00  0.00    +0.000 C 
ENDBRANCH  25  26
ENDBRANCH  24  25
ENDBRANCH  22  24
ENDBRANCH  21  22
ENDBRANCH   4  21
TORSDOF 6
ENDMDL
MODEL 7
REMARK VINA RESULT:      -7.2      3.585      4.434
REMARK  Name = Estradiol valerate
REMARK  8 active torsions:
REMARK  status: ('A' for Active; 'I' for Inactive)
REMARK    1  A    between atoms: C_5  and  O_6
REMARK    2  A    between atoms: O_6  and  C_7
REMARK    3  A    between atoms: C_7  and  C_9
REMARK    4  A    between atoms: C_9  and  C_10
REMARK    5  A    between atoms: C_10  and  C_11
REMARK    6  A    between atoms: C_11  and  C_12
REMARK    7  A    between atoms: C_13  and  C_14
REMARK    8  A    between atoms: C_26  and  O_27
REMARK                            x       y       z     vdW  Elec       q    Type
REMARK                         _______ _______ _______ _____ _____    ______ ____
ROOT
ATOM      1  C   UNL     1      -7.296   2.040 125.919  0.00  0.00    +0.000 C 
ATOM      2  C   UNL     1      -7.368   2.894 124.660  0.00  0.00    +0.000 C 
ATOM      3  C   UNL     1      -7.008   1.904 123.525  0.00  0.00    +0.000 C 
ATOM      4  C   UNL     1      -7.015   0.476 124.141  0.00  0.00    +0.000 C 
ATOM      5  C   UNL     1      -7.825   0.669 125.445  0.00  0.00    +0.000 C 
ATOM      6  C   UNL     1      -9.338   0.648 125.116  0.00  0.00    +0.000 C 
ATOM      7  C   UNL     1      -7.523  -0.347 126.552  0.00  0.00    +0.000 C 
ATOM      8  C   UNL     1      -8.112   0.056 127.895  0.00  0.00    +0.000 C 
ATOM      9  C   UNL     1      -7.685   1.466 128.330  0.00  0.00    +0.000 C 
ATOM     10  C   UNL     1      -8.276   1.880 129.668  0.00  0.00    +0.000 A 
ATOM     11  C   UNL     1      -8.547   3.235 129.933  0.00  0.00    +0.000 A 
ATOM     12  C   UNL     1      -8.351   4.311 128.893  0.00  0.00    +0.000 C 
ATOM     13  C   UNL     1      -7.532   3.879 127.676  0.00  0.00    +0.000 C 
ATOM     14  C   UNL     1      -7.992   2.502 127.205  0.00  0.00    +0.000 C 
ATOM     15  C   UNL     1      -9.084   3.603 131.179  0.00  0.00    +0.000 A 
ATOM     16  C   UNL     1      -9.335   2.639 132.148  0.00  0.00    +0.000 A 
ATOM     17  C   UNL     1      -9.046   1.306 131.910  0.00  0.00    +0.000 A 
ATOM     18  C   UNL     1      -8.503   0.933 130.683  0.00  0.00    +0.000 A 
ENDROOT
BRANCH  16  19
ATOM     19  O   UNL     1      -9.869   2.966 133.358  0.00  0.00    +0.000 OA
ATOM     20  H   UNL     1     -10.773   3.291 133.214  0.00  0.00    +0.000 HD
ENDBRANCH  16  19
BRANCH   4  21
ATOM     21  O   UNL     1      -7.605  -0.485 123.234  0.00  0.00    +0.000 OA
BRANCH  21  22
ATOM     22  C   UNL     1      -7.161  -1.769 123.368  0.00  0.00    +0.000 C 
ATOM     23  O   UNL     1      -5.977  -2.099 123.392  0.00  0.00    +0.000 OA
BRANCH  22  24
ATOM     24  C   UNL     1      -8.284  -2.773 123.462  0.00  0.00    +0.000 C 
BRANCH  24  25
ATOM     25  C   UNL     1      -8.177  -3.527 124.796  0.00  0.00    +0.000 C 
BRANCH  25  26
ATOM     26  C   UNL     1      -9.324  -3.205 125.746  0.00  0.00    +0.000 C 
ATOM     27  C   UNL     1      -8.989  -3.650 127.162  0.00  0.00    +0.000 C 
ENDBRANCH  25  26
ENDBRANCH  24  25
ENDBRANCH  22  24
ENDBRANCH  21  22
ENDBRANCH   4  21
TORSDOF 6
ENDMDL
MODEL 8
REMARK VINA RESULT:      -7.2      4.830      6.274
REMARK  Name = Estradiol valerate
REMARK  8 active torsions:
REMARK  status: ('A' for Active; 'I' for Inactive)
REMARK    1  A    between atoms: C_5  and  O_6
REMARK    2  A    between atoms: O_6  and  C_7
REMARK    3  A    between atoms: C_7  and  C_9
REMARK    4  A    between atoms: C_9  and  C_10
REMARK    5  A    between atoms: C_10  and  C_11
REMARK    6  A    between atoms: C_11  and  C_12
REMARK    7  A    between atoms: C_13  and  C_14
REMARK    8  A    between atoms: C_26  and  O_27
REMARK                            x       y       z     vdW  Elec       q    Type
REMARK                         _______ _______ _______ _____ _____    ______ ____
ROOT
ATOM      1  C   UNL     1      -7.607  -0.251 127.930  0.00  0.00    +0.000 C 
ATOM      2  C   UNL     1      -8.638   0.743 127.410  0.00  0.00    +0.000 C 
ATOM      3  C   UNL     1      -8.358   0.799 125.889  0.00  0.00    +0.000 C 
ATOM      4  C   UNL     1      -7.372  -0.358 125.559  0.00  0.00    +0.000 C 
ATOM      5  C   UNL     1      -7.511  -1.287 126.789  0.00  0.00    +0.000 C 
ATOM      6  C   UNL     1      -8.771  -2.171 126.623  0.00  0.00    +0.000 C 
ATOM      7  C   UNL     1      -6.293  -2.171 127.074  0.00  0.00    +0.000 C 
ATOM      8  C   UNL     1      -6.356  -2.836 128.441  0.00  0.00    +0.000 C 
ATOM      9  C   UNL     1      -6.565  -1.828 129.580  0.00  0.00    +0.000 C 
ATOM     10  C   UNL     1      -6.638  -2.483 130.949  0.00  0.00    +0.000 A 
ATOM     11  C   UNL     1      -7.412  -1.904 131.972  0.00  0.00    +0.000 A 
ATOM     12  C   UNL     1      -8.262  -0.678 131.738  0.00  0.00    +0.000 C 
ATOM     13  C   UNL     1      -7.957   0.069 130.440  0.00  0.00    +0.000 C 
ATOM     14  C   UNL     1      -7.806  -0.926 129.293  0.00  0.00    +0.000 C 
ATOM     15  C   UNL     1      -7.462  -2.518 133.235  0.00  0.00    +0.000 A 
ATOM     16  C   UNL     1      -6.741  -3.681 133.480  0.00  0.00    +0.000 A 
ATOM     17  C   UNL     1      -5.954  -4.245 132.492  0.00  0.00    +0.000 A 
ATOM     18  C   UNL     1      -5.889  -3.638 131.240  0.00  0.00    +0.000 A 
ENDROOT
BRANCH  16  19
ATOM     19  O   UNL     1      -6.784  -4.305 134.690  0.00  0.00    +0.000 OA
ATOM     20  H   UNL     1      -6.397  -3.710 135.353  0.00  0.00    +0.000 HD
ENDBRANCH  16  19
BRANCH   4  21
ATOM     21  O   UNL     1      -7.717  -1.003 124.310  0.00  0.00    +0.000 OA
BRANCH  21  22
ATOM     22  C   UNL     1      -6.920  -0.689 123.247  0.00  0.00    +0.000 C 
ATOM     23  O   UNL     1      -6.714   0.452 122.843  0.00  0.00    +0.000 OA
BRANCH  22  24
ATOM     24  C   UNL     1      -6.320  -1.905 122.584  0.00  0.00    +0.000 C 
BRANCH  24  25
ATOM     25  C   UNL     1      -5.186  -2.452 123.464  0.00  0.00    +0.000 C 
BRANCH  25  26
ATOM     26  C   UNL     1      -5.446  -3.876 123.941  0.00  0.00    +0.000 C 
ATOM     27  C   UNL     1      -4.285  -4.787 123.572  0.00  0.00    +0.000 C 
ENDBRANCH  25  26
ENDBRANCH  24  25
ENDBRANCH  22  24
ENDBRANCH  21  22
ENDBRANCH   4  21
TORSDOF 6
ENDMDL
MODEL 9
REMARK VINA RESULT:      -7.1      4.204      6.598
REMARK  Name = Estradiol valerate
REMARK  8 active torsions:
REMARK  status: ('A' for Active; 'I' for Inactive)
REMARK    1  A    between atoms: C_5  and  O_6
REMARK    2  A    between atoms: O_6  and  C_7
REMARK    3  A    between atoms: C_7  and  C_9
REMARK    4  A    between atoms: C_9  and  C_10
REMARK    5  A    between atoms: C_10  and  C_11
REMARK    6  A    between atoms: C_11  and  C_12
REMARK    7  A    between atoms: C_13  and  C_14
REMARK    8  A    between atoms: C_26  and  O_27
REMARK                            x       y       z     vdW  Elec       q    Type
REMARK                         _______ _______ _______ _____ _____    ______ ____
ROOT
ATOM      1  C   UNL     1      -7.803  -1.466 126.118  0.00  0.00    +0.000 C 
ATOM      2  C   UNL     1      -7.352  -2.404 125.006  0.00  0.00    +0.000 C 
ATOM      3  C   UNL     1      -7.404  -1.518 123.737  0.00  0.00    +0.000 C 
ATOM      4  C   UNL     1      -7.615  -0.051 124.208  0.00  0.00    +0.000 C 
ATOM      5  C   UNL     1      -7.202  -0.107 125.698  0.00  0.00    +0.000 C 
ATOM      6  C   UNL     1      -5.659  -0.032 125.805  0.00  0.00    +0.000 C 
ATOM      7  C   UNL     1      -7.835   0.969 126.586  0.00  0.00    +0.000 C 
ATOM      8  C   UNL     1      -7.639   0.696 128.070  0.00  0.00    +0.000 C 
ATOM      9  C   UNL     1      -8.131  -0.699 128.485  0.00  0.00    +0.000 C 
ATOM     10  C   UNL     1      -7.931  -0.985 129.964  0.00  0.00    +0.000 A 
ATOM     11  C   UNL     1      -7.707  -2.301 130.407  0.00  0.00    +0.000 A 
ATOM     12  C   UNL     1      -7.569  -3.458 129.448  0.00  0.00    +0.000 C 
ATOM     13  C   UNL     1      -8.021  -3.158 128.019  0.00  0.00    +0.000 C 
ATOM     14  C   UNL     1      -7.487  -1.797 127.582  0.00  0.00    +0.000 C 
ATOM     15  C   UNL     1      -7.535  -2.550 131.780  0.00  0.00    +0.000 A 
ATOM     16  C   UNL     1      -7.597  -1.507 132.696  0.00  0.00    +0.000 A 
ATOM     17  C   UNL     1      -7.845  -0.212 132.276  0.00  0.00    +0.000 A 
ATOM     18  C   UNL     1      -8.029   0.044 130.919  0.00  0.00    +0.000 A 
ENDROOT
BRANCH  16  19
ATOM     19  O   UNL     1      -7.418  -1.717 134.030  0.00  0.00    +0.000 OA
ATOM     20  H   UNL     1      -6.893  -2.526 134.143  0.00  0.00    +0.000 HD
ENDBRANCH  16  19
BRANCH   4  21
ATOM     21  O   UNL     1      -6.819   0.871 123.426  0.00  0.00    +0.000 OA
BRANCH  21  22
ATOM     22  C   UNL     1      -7.476   1.982 122.980  0.00  0.00    +0.000 C 
ATOM     23  O   UNL     1      -8.682   2.036 122.754  0.00  0.00    +0.000 OA
BRANCH  22  24
ATOM     24  C   UNL     1      -6.558   3.161 122.765  0.00  0.00    +0.000 C 
BRANCH  24  25
ATOM     25  C   UNL     1      -5.978   3.096 121.344  0.00  0.00    +0.000 C 
BRANCH  25  26
ATOM     26  C   UNL     1      -6.559   4.160 120.422  0.00  0.00    +0.000 C 
ATOM     27  C   UNL     1      -5.454   5.025 119.835  0.00  0.00    +0.000 C 
ENDBRANCH  25  26
ENDBRANCH  24  25
ENDBRANCH  22  24
ENDBRANCH  21  22
ENDBRANCH   4  21
TORSDOF 6
ENDMDL
