MODEL 1
REMARK VINA RESULT:      -8.2      0.000      0.000
REMARK  Name = Estrone sulfate
REMARK  4 active torsions:
REMARK  status: ('A' for Active; 'I' for Inactive)
REMARK    1  A    between atoms: C_7  and  C_8
REMARK    2  A    between atoms: C_20  and  O_21
REMARK    3  A    between atoms: O_21  and  S_22
REMARK    4  A    between atoms: S_22  and  O_23
REMARK                            x       y       z     vdW  Elec       q    Type
REMARK                         _______ _______ _______ _____ _____    ______ ____
ROOT
ATOM      1  C   UNL     1      -7.786  -2.463 124.999  0.00  0.00    +0.000 C 
ATOM      2  C   UNL     1      -8.682  -3.166 123.982  0.00  0.00    +0.000 C 
ATOM      3  C   UNL     1      -8.307  -2.488 122.652  0.00  0.00    +0.000 C 
ATOM      4  C   UNL     1      -6.933  -1.904 122.930  0.00  0.00    +0.000 C 
ATOM      5  O   UNL     1      -6.312  -1.200 122.146  0.00  0.00    +0.000 OA
ATOM      6  C   UNL     1      -6.423  -2.348 124.285  0.00  0.00    +0.000 C 
ATOM      7  C   UNL     1      -5.677  -3.674 124.062  0.00  0.00    +0.000 C 
ATOM      8  C   UNL     1      -5.548  -1.359 125.044  0.00  0.00    +0.000 C 
ATOM      9  C   UNL     1      -5.377  -1.807 126.504  0.00  0.00    +0.000 C 
ATOM     10  C   UNL     1      -6.733  -2.044 127.214  0.00  0.00    +0.000 C 
ATOM     11  C   UNL     1      -6.631  -2.429 128.681  0.00  0.00    +0.000 A 
ATOM     12  C   UNL     1      -7.624  -3.202 129.314  0.00  0.00    +0.000 A 
ATOM     13  C   UNL     1      -8.742  -3.835 128.512  0.00  0.00    +0.000 C 
ATOM     14  C   UNL     1      -8.964  -3.184 127.143  0.00  0.00    +0.000 C 
ATOM     15  C   UNL     1      -7.630  -3.029 126.412  0.00  0.00    +0.000 C 
ATOM     16  C   UNL     1      -7.550  -3.428 130.710  0.00  0.00    +0.000 A 
ATOM     17  C   UNL     1      -6.528  -2.852 131.481  0.00  0.00    +0.000 A 
ATOM     18  C   UNL     1      -5.569  -2.084 130.837  0.00  0.00    +0.000 A 
ATOM     19  C   UNL     1      -5.610  -1.889 129.465  0.00  0.00    +0.000 A 
ENDROOT
BRANCH  17  20
ATOM     20  O   UNL     1      -6.534  -3.080 132.838  0.00  0.00    +0.000 OA
BRANCH  20  21
ATOM     21  S   UNL     1      -7.554  -2.316 133.873  0.00  0.00    +0.000 S 
ATOM     22  O   UNL     1      -6.897  -2.108 135.144  0.00  0.00    +0.000 OA
ATOM     23  O   UNL     1      -8.168  -1.205 133.176  0.00  0.00    +0.000 OA
BRANCH  21  24
ATOM     24  O   UNL     1      -8.734  -3.394 134.133  0.00  0.00    +0.000 OA
ATOM     25  H   UNL     1      -9.486  -3.252 133.529  0.00  0.00    +0.000 HD
ENDBRANCH  21  24
ENDBRANCH  20  21
ENDBRANCH  17  20
TORSDOF 3
ENDMDL
MODEL 2
REMARK VINA RESULT:      -7.8      1.821      2.363
REMARK  Name = Estrone sulfate
REMARK  4 active torsions:
REMARK  status: ('A' for Active; 'I' for Inactive)
REMARK    1  A    between atoms: C_7  and  C_8
REMARK    2  A    between atoms: C_20  and  O_21
REMARK    3  A    between atoms: O_21  and  S_22
REMARK    4  A    between atoms: S_22  and  O_23
REMARK                            x       y       z     vdW  Elec       q    Type
REMARK                         _______ _______ _______ _____ _____    ______ ____
ROOT
ATOM      1  C   UNL     1      -8.156  -2.628 125.436  0.00  0.00    +0.000 C 
ATOM      2  C   UNL     1      -9.183  -3.562 124.801  0.00  0.00    +0.000 C 
ATOM      3  C   UNL     1      -9.279  -3.051 123.352  0.00  0.00    +0.000 C 
ATOM      4  C   UNL     1      -7.977  -2.293 123.161  0.00  0.00    +0.000 C 
ATOM      5  O   UNL     1      -7.694  -1.651 122.159  0.00  0.00    +0.000 OA
ATOM      6  C   UNL     1      -7.065  -2.477 124.355  0.00  0.00    +0.000 C 
ATOM      7  C   UNL     1      -6.226  -3.737 124.079  0.00  0.00    +0.000 C 
ATOM      8  C   UNL     1      -6.167  -1.303 124.719  0.00  0.00    +0.000 C 
ATOM      9  C   UNL     1      -5.549  -1.510 126.110  0.00  0.00    +0.000 C 
ATOM     10  C   UNL     1      -6.618  -1.781 127.199  0.00  0.00    +0.000 C 
ATOM     11  C   UNL     1      -6.073  -1.934 128.609  0.00  0.00    +0.000 A 
ATOM     12  C   UNL     1      -6.741  -2.705 129.581  0.00  0.00    +0.000 A 
ATOM     13  C   UNL     1      -7.932  -3.561 129.206  0.00  0.00    +0.000 C 
ATOM     14  C   UNL     1      -8.603  -3.145 127.893  0.00  0.00    +0.000 C 
ATOM     15  C   UNL     1      -7.549  -2.961 126.800  0.00  0.00    +0.000 C 
ATOM     16  C   UNL     1      -6.264  -2.714 130.915  0.00  0.00    +0.000 A 
ATOM     17  C   UNL     1      -5.164  -1.928 131.294  0.00  0.00    +0.000 A 
ATOM     18  C   UNL     1      -4.532  -1.167 130.321  0.00  0.00    +0.000 A 
ATOM     19  C   UNL     1      -4.966  -1.181 129.005  0.00  0.00    +0.000 A 
ENDROOT
BRANCH  17  20
ATOM     20  O   UNL     1      -4.774  -1.954 132.613  0.00  0.00    +0.000 OA
BRANCH  20  21
ATOM     21  S   UNL     1      -3.442  -2.755 133.141  0.00  0.00    +0.000 S 
ATOM     22  O   UNL     1      -3.527  -2.956 134.571  0.00  0.00    +0.000 OA
ATOM     23  O   UNL     1      -3.200  -3.876 132.257  0.00  0.00    +0.000 OA
BRANCH  21  24
ATOM     24  O   UNL     1      -2.229  -1.712 132.892  0.00  0.00    +0.000 OA
ATOM     25  H   UNL     1      -1.995  -1.657 131.948  0.00  0.00    +0.000 HD
ENDBRANCH  21  24
ENDBRANCH  20  21
ENDBRANCH  17  20
TORSDOF 3
ENDMDL
MODEL 3
REMARK VINA RESULT:      -7.7      3.450      7.431
REMARK  Name = Estrone sulfate
REMARK  4 active torsions:
REMARK  status: ('A' for Active; 'I' for Inactive)
REMARK    1  A    between atoms: C_7  and  C_8
REMARK    2  A    between atoms: C_20  and  O_21
REMARK    3  A    between atoms: O_21  and  S_22
REMARK    4  A    between atoms: S_22  and  O_23
REMARK                            x       y       z     vdW  Elec       q    Type
REMARK                         _______ _______ _______ _____ _____    ______ ____
ROOT
ATOM      1  C   UNL     1      -5.882  -3.759 130.336  0.00  0.00    +0.000 C 
ATOM      2  C   UNL     1      -6.402  -4.383 131.627  0.00  0.00    +0.000 C 
ATOM      3  C   UNL     1      -5.123  -4.597 132.457  0.00  0.00    +0.000 C 
ATOM      4  C   UNL     1      -4.134  -3.627 131.835  0.00  0.00    +0.000 C 
ATOM      5  O   UNL     1      -2.956  -3.546 132.152  0.00  0.00    +0.000 OA
ATOM      6  C   UNL     1      -4.815  -2.748 130.808  0.00  0.00    +0.000 C 
ATOM      7  C   UNL     1      -5.352  -1.521 131.564  0.00  0.00    +0.000 C 
ATOM      8  C   UNL     1      -3.977  -2.318 129.611  0.00  0.00    +0.000 C 
ATOM      9  C   UNL     1      -4.871  -1.714 128.518  0.00  0.00    +0.000 C 
ATOM     10  C   UNL     1      -6.025  -2.663 128.106  0.00  0.00    +0.000 C 
ATOM     11  C   UNL     1      -6.910  -2.147 126.983  0.00  0.00    +0.000 A 
ATOM     12  C   UNL     1      -8.256  -2.544 126.860  0.00  0.00    +0.000 A 
ATOM     13  C   UNL     1      -8.926  -3.358 127.947  0.00  0.00    +0.000 C 
ATOM     14  C   UNL     1      -7.942  -4.085 128.869  0.00  0.00    +0.000 C 
ATOM     15  C   UNL     1      -6.853  -3.121 129.340  0.00  0.00    +0.000 C 
ATOM     16  C   UNL     1      -9.004  -2.139 125.727  0.00  0.00    +0.000 A 
ATOM     17  C   UNL     1      -8.409  -1.387 124.701  0.00  0.00    +0.000 A 
ATOM     18  C   UNL     1      -7.079  -1.020 124.840  0.00  0.00    +0.000 A 
ATOM     19  C   UNL     1      -6.348  -1.379 125.962  0.00  0.00    +0.000 A 
ENDROOT
BRANCH  17  20
ATOM     20  O   UNL     1      -9.180  -1.057 123.610  0.00  0.00    +0.000 OA
BRANCH  20  21
ATOM     21  S   UNL     1      -9.760   0.455 123.344  0.00  0.00    +0.000 S 
ATOM     22  O   UNL     1      -8.667   1.354 123.048  0.00  0.00    +0.000 OA
ATOM     23  O   UNL     1     -10.894   0.361 122.447  0.00  0.00    +0.000 OA
BRANCH  21  24
ATOM     24  O   UNL     1     -10.356   0.909 124.780  0.00  0.00    +0.000 OA
ATOM     25  H   UNL     1     -10.713   1.815 124.747  0.00  0.00    +0.000 HD
ENDBRANCH  21  24
ENDBRANCH  20  21
ENDBRANCH  17  20
TORSDOF 3
ENDMDL
MODEL 4
REMARK VINA RESULT:      -7.6      5.584      6.914
REMARK  Name = Estrone sulfate
REMARK  4 active torsions:
REMARK  status: ('A' for Active; 'I' for Inactive)
REMARK    1  A    between atoms: C_7  and  C_8
REMARK    2  A    between atoms: C_20  and  O_21
REMARK    3  A    between atoms: O_21  and  S_22
REMARK    4  A    between atoms: S_22  and  O_23
REMARK                            x       y       z     vdW  Elec       q    Type
REMARK                         _______ _______ _______ _____ _____    ______ ____
ROOT
ATOM      1  C   UNL     1      -7.537  -0.662 124.157  0.00  0.00    +0.000 C 
ATOM      2  C   UNL     1      -8.875  -1.055 123.537  0.00  0.00    +0.000 C 
ATOM      3  C   UNL     1      -8.708  -2.560 123.259  0.00  0.00    +0.000 C 
ATOM      4  C   UNL     1      -7.586  -2.967 124.197  0.00  0.00    +0.000 C 
ATOM      5  O   UNL     1      -7.082  -4.081 124.226  0.00  0.00    +0.000 OA
ATOM      6  C   UNL     1      -7.210  -1.825 125.117  0.00  0.00    +0.000 C 
ATOM      7  C   UNL     1      -8.117  -1.939 126.354  0.00  0.00    +0.000 C 
ATOM      8  C   UNL     1      -5.747  -1.731 125.529  0.00  0.00    +0.000 C 
ATOM      9  C   UNL     1      -5.461  -0.371 126.184  0.00  0.00    +0.000 C 
ATOM     10  C   UNL     1      -5.888   0.820 125.289  0.00  0.00    +0.000 C 
ATOM     11  C   UNL     1      -5.574   2.194 125.856  0.00  0.00    +0.000 A 
ATOM     12  C   UNL     1      -6.338   3.328 125.515  0.00  0.00    +0.000 A 
ATOM     13  C   UNL     1      -7.616   3.188 124.714  0.00  0.00    +0.000 C 
ATOM     14  C   UNL     1      -7.716   1.873 123.935  0.00  0.00    +0.000 C 
ATOM     15  C   UNL     1      -7.374   0.694 124.848  0.00  0.00    +0.000 C 
ATOM     16  C   UNL     1      -5.931   4.607 125.966  0.00  0.00    +0.000 A 
ATOM     17  C   UNL     1      -4.750   4.769 126.707  0.00  0.00    +0.000 A 
ATOM     18  C   UNL     1      -4.007   3.639 127.018  0.00  0.00    +0.000 A 
ATOM     19  C   UNL     1      -4.417   2.378 126.615  0.00  0.00    +0.000 A 
ENDROOT
BRANCH  17  20
ATOM     20  O   UNL     1      -4.391   6.043 127.083  0.00  0.00    +0.000 OA
BRANCH  20  21
ATOM     21  S   UNL     1      -3.704   6.392 128.533  0.00  0.00    +0.000 S 
ATOM     22  O   UNL     1      -4.371   5.652 129.581  0.00  0.00    +0.000 OA
ATOM     23  O   UNL     1      -2.265   6.322 128.388  0.00  0.00    +0.000 OA
BRANCH  21  24
ATOM     24  O   UNL     1      -4.059   7.955 128.772  0.00  0.00    +0.000 OA
ATOM     25  H   UNL     1      -3.722   8.511 128.046  0.00  0.00    +0.000 HD
ENDBRANCH  21  24
ENDBRANCH  20  21
ENDBRANCH  17  20
TORSDOF 3
ENDMDL
MODEL 5
REMARK VINA RESULT:      -7.6      1.591      2.069
REMARK  Name = Estrone sulfate
REMARK  4 active torsions:
REMARK  status: ('A' for Active; 'I' for Inactive)
REMARK    1  A    between atoms: C_7  and  C_8
REMARK    2  A    between atoms: C_20  and  O_21
REMARK    3  A    between atoms: O_21  and  S_22
REMARK    4  A    between atoms: S_22  and  O_23
REMARK                            x       y       z     vdW  Elec       q    Type
REMARK                         _______ _______ _______ _____ _____    ______ ____
ROOT
ATOM      1  C   UNL     1      -8.820  -2.475 125.580  0.00  0.00    +0.000 C 
ATOM      2  C   UNL     1      -8.888  -3.689 124.658  0.00  0.00    +0.000 C 
ATOM      3  C   UNL     1      -9.391  -3.097 123.328  0.00  0.00    +0.000 C 
ATOM      4  C   UNL     1      -9.046  -1.623 123.448  0.00  0.00    +0.000 C 
ATOM      5  O   UNL     1      -9.360  -0.772 122.627  0.00  0.00    +0.000 OA
ATOM      6  C   UNL     1      -8.225  -1.360 124.693  0.00  0.00    +0.000 C 
ATOM      7  C   UNL     1      -6.751  -1.545 124.296  0.00  0.00    +0.000 C 
ATOM      8  C   UNL     1      -8.433  -0.017 125.380  0.00  0.00    +0.000 C 
ATOM      9  C   UNL     1      -7.790  -0.022 126.775  0.00  0.00    +0.000 C 
ATOM     10  C   UNL     1      -8.283  -1.202 127.650  0.00  0.00    +0.000 C 
ATOM     11  C   UNL     1      -7.729  -1.227 129.065  0.00  0.00    +0.000 A 
ATOM     12  C   UNL     1      -7.589  -2.431 129.784  0.00  0.00    +0.000 A 
ATOM     13  C   UNL     1      -7.814  -3.767 129.109  0.00  0.00    +0.000 C 
ATOM     14  C   UNL     1      -8.640  -3.677 127.821  0.00  0.00    +0.000 C 
ATOM     15  C   UNL     1      -8.095  -2.565 126.925  0.00  0.00    +0.000 C 
ATOM     16  C   UNL     1      -7.189  -2.391 131.142  0.00  0.00    +0.000 A 
ATOM     17  C   UNL     1      -6.977  -1.168 131.797  0.00  0.00    +0.000 A 
ATOM     18  C   UNL     1      -7.134   0.004 131.071  0.00  0.00    +0.000 A 
ATOM     19  C   UNL     1      -7.487  -0.024 129.731  0.00  0.00    +0.000 A 
ENDROOT
BRANCH  17  20
ATOM     20  O   UNL     1      -6.626  -1.198 133.127  0.00  0.00    +0.000 OA
BRANCH  20  21
ATOM     21  S   UNL     1      -7.109  -2.382 134.157  0.00  0.00    +0.000 S 
ATOM     22  O   UNL     1      -8.531  -2.602 134.017  0.00  0.00    +0.000 OA
ATOM     23  O   UNL     1      -6.182  -3.490 134.050  0.00  0.00    +0.000 OA
BRANCH  21  24
ATOM     24  O   UNL     1      -6.882  -1.743 135.628  0.00  0.00    +0.000 OA
ATOM     25  H   UNL     1      -6.823  -2.436 136.311  0.00  0.00    +0.000 HD
ENDBRANCH  21  24
ENDBRANCH  20  21
ENDBRANCH  17  20
TORSDOF 3
ENDMDL
MODEL 6
REMARK VINA RESULT:      -7.5      6.928     10.143
REMARK  Name = Estrone sulfate
REMARK  4 active torsions:
REMARK  status: ('A' for Active; 'I' for Inactive)
REMARK    1  A    between atoms: C_7  and  C_8
REMARK    2  A    between atoms: C_20  and  O_21
REMARK    3  A    between atoms: O_21  and  S_22
REMARK    4  A    between atoms: S_22  and  O_23
REMARK                            x       y       z     vdW  Elec       q    Type
REMARK                         _______ _______ _______ _____ _____    ______ ____
ROOT
ATOM      1  C   UNL     1      -2.858   4.359 130.602  0.00  0.00    +0.000 C 
ATOM      2  C   UNL     1      -2.943   4.076 132.099  0.00  0.00    +0.000 C 
ATOM      3  C   UNL     1      -1.787   4.909 132.683  0.00  0.00    +0.000 C 
ATOM      4  C   UNL     1      -1.531   5.953 131.611  0.00  0.00    +0.000 C 
ATOM      5  O   UNL     1      -0.620   6.768 131.647  0.00  0.00    +0.000 OA
ATOM      6  C   UNL     1      -2.578   5.875 130.520  0.00  0.00    +0.000 C 
ATOM      7  C   UNL     1      -3.736   6.788 130.955  0.00  0.00    +0.000 C 
ATOM      8  C   UNL     1      -2.123   6.218 129.108  0.00  0.00    +0.000 C 
ATOM      9  C   UNL     1      -3.185   5.792 128.084  0.00  0.00    +0.000 C 
ATOM     10  C   UNL     1      -3.574   4.298 128.219  0.00  0.00    +0.000 C 
ATOM     11  C   UNL     1      -4.577   3.800 127.192  0.00  0.00    +0.000 A 
ATOM     12  C   UNL     1      -5.445   2.725 127.466  0.00  0.00    +0.000 A 
ATOM     13  C   UNL     1      -5.539   2.142 128.860  0.00  0.00    +0.000 C 
ATOM     14  C   UNL     1      -4.330   2.461 129.746  0.00  0.00    +0.000 C 
ATOM     15  C   UNL     1      -4.004   3.953 129.673  0.00  0.00    +0.000 C 
ATOM     16  C   UNL     1      -6.272   2.214 126.436  0.00  0.00    +0.000 A 
ATOM     17  C   UNL     1      -6.204   2.731 125.133  0.00  0.00    +0.000 A 
ATOM     18  C   UNL     1      -5.332   3.781 124.885  0.00  0.00    +0.000 A 
ATOM     19  C   UNL     1      -4.546   4.314 125.894  0.00  0.00    +0.000 A 
ENDROOT
BRANCH  17  20
ATOM     20  O   UNL     1      -7.008   2.165 124.170  0.00  0.00    +0.000 OA
BRANCH  20  21
ATOM     21  S   UNL     1      -8.502   2.735 123.798  0.00  0.00    +0.000 S 
ATOM     22  O   UNL     1      -9.323   1.660 123.286  0.00  0.00    +0.000 OA
ATOM     23  O   UNL     1      -8.969   3.553 124.898  0.00  0.00    +0.000 OA
BRANCH  21  24
ATOM     24  O   UNL     1      -8.242   3.747 122.560  0.00  0.00    +0.000 OA
ATOM     25  H   UNL     1      -8.026   3.262 121.743  0.00  0.00    +0.000 HD
ENDBRANCH  21  24
ENDBRANCH  20  21
ENDBRANCH  17  20
TORSDOF 3
ENDMDL
MODEL 7
REMARK VINA RESULT:      -7.5      5.366      6.721
REMARK  Name = Estrone sulfate
REMARK  4 active torsions:
REMARK  status: ('A' for Active; 'I' for Inactive)
REMARK    1  A    between atoms: C_7  and  C_8
REMARK    2  A    between atoms: C_20  and  O_21
REMARK    3  A    between atoms: O_21  and  S_22
REMARK    4  A    between atoms: S_22  and  O_23
REMARK                            x       y       z     vdW  Elec       q    Type
REMARK                         _______ _______ _______ _____ _____    ______ ____
ROOT
ATOM      1  C   UNL     1      -7.682  -1.418 126.927  0.00  0.00    +0.000 C 
ATOM      2  C   UNL     1      -7.956  -2.687 127.729  0.00  0.00    +0.000 C 
ATOM      3  C   UNL     1      -9.087  -3.369 126.938  0.00  0.00    +0.000 C 
ATOM      4  C   UNL     1      -8.970  -2.752 125.556  0.00  0.00    +0.000 C 
ATOM      5  O   UNL     1      -9.751  -2.963 124.638  0.00  0.00    +0.000 OA
ATOM      6  C   UNL     1      -7.735  -1.882 125.456  0.00  0.00    +0.000 C 
ATOM      7  C   UNL     1      -6.584  -2.799 125.008  0.00  0.00    +0.000 C 
ATOM      8  C   UNL     1      -7.830  -0.659 124.554  0.00  0.00    +0.000 C 
ATOM      9  C   UNL     1      -6.641   0.282 124.799  0.00  0.00    +0.000 C 
ATOM     10  C   UNL     1      -6.492   0.673 126.291  0.00  0.00    +0.000 C 
ATOM     11  C   UNL     1      -5.369   1.653 126.589  0.00  0.00    +0.000 A 
ATOM     12  C   UNL     1      -4.730   1.687 127.844  0.00  0.00    +0.000 A 
ATOM     13  C   UNL     1      -5.012   0.624 128.885  0.00  0.00    +0.000 C 
ATOM     14  C   UNL     1      -6.328  -0.128 128.661  0.00  0.00    +0.000 C 
ATOM     15  C   UNL     1      -6.429  -0.583 127.205  0.00  0.00    +0.000 C 
ATOM     16  C   UNL     1      -3.778   2.700 128.117  0.00  0.00    +0.000 A 
ATOM     17  C   UNL     1      -3.499   3.701 127.173  0.00  0.00    +0.000 A 
ATOM     18  C   UNL     1      -4.151   3.653 125.950  0.00  0.00    +0.000 A 
ATOM     19  C   UNL     1      -5.056   2.644 125.658  0.00  0.00    +0.000 A 
ENDROOT
BRANCH  17  20
ATOM     20  O   UNL     1      -2.592   4.677 127.515  0.00  0.00    +0.000 OA
BRANCH  20  21
ATOM     21  S   UNL     1      -2.992   6.011 128.384  0.00  0.00    +0.000 S 
ATOM     22  O   UNL     1      -4.275   6.514 127.945  0.00  0.00    +0.000 OA
ATOM     23  O   UNL     1      -2.755   5.735 129.786  0.00  0.00    +0.000 OA
BRANCH  21  24
ATOM     24  O   UNL     1      -1.889   7.114 127.947  0.00  0.00    +0.000 OA
ATOM     25  H   UNL     1      -1.024   6.932 128.358  0.00  0.00    +0.000 HD
ENDBRANCH  21  24
ENDBRANCH  20  21
ENDBRANCH  17  20
TORSDOF 3
ENDMDL
MODEL 8
REMARK VINA RESULT:      -7.3      3.416      7.847
REMARK  Name = Estrone sulfate
REMARK  4 active torsions:
REMARK  status: ('A' for Active; 'I' for Inactive)
REMARK    1  A    between atoms: C_7  and  C_8
REMARK    2  A    between atoms: C_20  and  O_21
REMARK    3  A    between atoms: O_21  and  S_22
REMARK    4  A    between atoms: S_22  and  O_23
REMARK                            x       y       z     vdW  Elec       q    Type
REMARK                         _______ _______ _______ _____ _____    ______ ____
ROOT
ATOM      1  C   UNL     1      -5.240  -1.953 131.639  0.00  0.00    +0.000 C 
ATOM      2  C   UNL     1      -4.196  -1.028 132.256  0.00  0.00    +0.000 C 
ATOM      3  C   UNL     1      -3.763  -1.779 133.528  0.00  0.00    +0.000 C 
ATOM      4  C   UNL     1      -4.159  -3.216 133.238  0.00  0.00    +0.000 C 
ATOM      5  O   UNL     1      -4.064  -4.133 134.042  0.00  0.00    +0.000 OA
ATOM      6  C   UNL     1      -4.640  -3.365 131.810  0.00  0.00    +0.000 C 
ATOM      7  C   UNL     1      -3.398  -3.667 130.955  0.00  0.00    +0.000 C 
ATOM      8  C   UNL     1      -5.730  -4.400 131.560  0.00  0.00    +0.000 C 
ATOM      9  C   UNL     1      -6.331  -4.216 130.158  0.00  0.00    +0.000 C 
ATOM     10  C   UNL     1      -6.837  -2.772 129.915  0.00  0.00    +0.000 C 
ATOM     11  C   UNL     1      -7.500  -2.542 128.567  0.00  0.00    +0.000 A 
ATOM     12  C   UNL     1      -7.503  -1.276 127.949  0.00  0.00    +0.000 A 
ATOM     13  C   UNL     1      -6.687  -0.135 128.519  0.00  0.00    +0.000 C 
ATOM     14  C   UNL     1      -6.303  -0.324 129.990  0.00  0.00    +0.000 C 
ATOM     15  C   UNL     1      -5.726  -1.724 130.206  0.00  0.00    +0.000 C 
ATOM     16  C   UNL     1      -8.242  -1.081 126.757  0.00  0.00    +0.000 A 
ATOM     17  C   UNL     1      -9.011  -2.119 126.207  0.00  0.00    +0.000 A 
ATOM     18  C   UNL     1      -9.003  -3.352 126.841  0.00  0.00    +0.000 A 
ATOM     19  C   UNL     1      -8.252  -3.565 127.987  0.00  0.00    +0.000 A 
ENDROOT
BRANCH  17  20
ATOM     20  O   UNL     1      -9.735  -1.853 125.067  0.00  0.00    +0.000 OA
BRANCH  20  21
ATOM     21  S   UNL     1      -9.268  -2.341 123.571  0.00  0.00    +0.000 S 
ATOM     22  O   UNL     1      -7.824  -2.400 123.505  0.00  0.00    +0.000 OA
ATOM     23  O   UNL     1     -10.066  -3.488 123.191  0.00  0.00    +0.000 OA
BRANCH  21  24
ATOM     24  O   UNL     1      -9.726  -1.129 122.599  0.00  0.00    +0.000 OA
ATOM     25  H   UNL     1     -10.678  -0.942 122.689  0.00  0.00    +0.000 HD
ENDBRANCH  21  24
ENDBRANCH  20  21
ENDBRANCH  17  20
TORSDOF 3
ENDMDL
MODEL 9
REMARK VINA RESULT:      -7.2      4.920      8.901
REMARK  Name = Estrone sulfate
REMARK  4 active torsions:
REMARK  status: ('A' for Active; 'I' for Inactive)
REMARK    1  A    between atoms: C_7  and  C_8
REMARK    2  A    between atoms: C_20  and  O_21
REMARK    3  A    between atoms: O_21  and  S_22
REMARK    4  A    between atoms: S_22  and  O_23
REMARK                            x       y       z     vdW  Elec       q    Type
REMARK                         _______ _______ _______ _____ _____    ______ ____
ROOT
ATOM      1  C   UNL     1      -7.507  -0.515 128.199  0.00  0.00    +0.000 C 
ATOM      2  C   UNL     1      -7.104  -0.693 129.660  0.00  0.00    +0.000 C 
ATOM      3  C   UNL     1      -7.850  -1.972 130.081  0.00  0.00    +0.000 C 
ATOM      4  C   UNL     1      -8.133  -2.663 128.758  0.00  0.00    +0.000 C 
ATOM      5  O   UNL     1      -8.796  -3.685 128.643  0.00  0.00    +0.000 OA
ATOM      6  C   UNL     1      -7.450  -1.943 127.616  0.00  0.00    +0.000 C 
ATOM      7  C   UNL     1      -6.043  -2.552 127.490  0.00  0.00    +0.000 C 
ATOM      8  C   UNL     1      -8.165  -1.957 126.272  0.00  0.00    +0.000 C 
ATOM      9  C   UNL     1      -7.528  -0.938 125.314  0.00  0.00    +0.000 C 
ATOM     10  C   UNL     1      -7.465   0.486 125.921  0.00  0.00    +0.000 C 
ATOM     11  C   UNL     1      -6.901   1.553 124.998  0.00  0.00    +0.000 A 
ATOM     12  C   UNL     1      -6.257   2.701 125.500  0.00  0.00    +0.000 A 
ATOM     13  C   UNL     1      -5.939   2.828 126.974  0.00  0.00    +0.000 C 
ATOM     14  C   UNL     1      -6.774   1.905 127.868  0.00  0.00    +0.000 C 
ATOM     15  C   UNL     1      -6.762   0.482 127.308  0.00  0.00    +0.000 C 
ATOM     16  C   UNL     1      -5.862   3.728 124.607  0.00  0.00    +0.000 A 
ATOM     17  C   UNL     1      -6.146   3.640 123.235  0.00  0.00    +0.000 A 
ATOM     18  C   UNL     1      -6.793   2.506 122.767  0.00  0.00    +0.000 A 
ATOM     19  C   UNL     1      -7.150   1.478 123.626  0.00  0.00    +0.000 A 
ENDROOT
BRANCH  17  20
ATOM     20  O   UNL     1      -5.768   4.689 122.428  0.00  0.00    +0.000 OA
BRANCH  20  21
ATOM     21  S   UNL     1      -5.392   4.510 120.840  0.00  0.00    +0.000 S 
ATOM     22  O   UNL     1      -4.383   3.485 120.688  0.00  0.00    +0.000 OA
ATOM     23  O   UNL     1      -6.623   4.443 120.081  0.00  0.00    +0.000 OA
BRANCH  21  24
ATOM     24  O   UNL     1      -4.689   5.913 120.440  0.00  0.00    +0.000 OA
ATOM     25  H   UNL     1      -4.990   6.225 119.567  0.00  0.00    +0.000 HD
ENDBRANCH  21  24
ENDBRANCH  20  21
ENDBRANCH  17  20
TORSDOF 3
ENDMDL
