MODEL 1
REMARK VINA RESULT:      -7.8      0.000      0.000
REMARK  Name = Estradiol acetate
REMARK  5 active torsions:
REMARK  status: ('A' for Active; 'I' for Inactive)
REMARK    1  A    between atoms: C_5  and  O_6
REMARK    2  A    between atoms: C_7  and  C_8
REMARK    3  A    between atoms: C_16  and  O_17
REMARK    4  A    between atoms: O_17  and  C_18
REMARK    5  A    between atoms: C_18  and  C_19
REMARK                            x       y       z     vdW  Elec       q    Type
REMARK                         _______ _______ _______ _____ _____    ______ ____
ROOT
ATOM      1  C   UNL     1      -7.845  -2.449 124.971  0.00  0.00    +0.000 C 
ATOM      2  C   UNL     1      -8.673  -3.247 123.976  0.00  0.00    +0.000 C 
ATOM      3  C   UNL     1      -8.166  -2.758 122.602  0.00  0.00    +0.000 C 
ATOM      4  C   UNL     1      -6.994  -1.802 122.891  0.00  0.00    +0.000 C 
ATOM      5  C   UNL     1      -6.484  -2.276 124.257  0.00  0.00    +0.000 C 
ATOM      6  C   UNL     1      -5.662  -3.584 124.139  0.00  0.00    +0.000 C 
ATOM      7  C   UNL     1      -5.649  -1.233 124.993  0.00  0.00    +0.000 C 
ATOM      8  C   UNL     1      -5.512  -1.608 126.462  0.00  0.00    +0.000 C 
ATOM      9  C   UNL     1      -6.888  -1.883 127.138  0.00  0.00    +0.000 C 
ATOM     10  C   UNL     1      -6.784  -2.236 128.590  0.00  0.00    +0.000 A 
ATOM     11  C   UNL     1      -5.765  -1.635 129.278  0.00  0.00    +0.000 A 
ATOM     12  C   UNL     1      -5.597  -1.873 130.603  0.00  0.00    +0.000 A 
ATOM     13  C   UNL     1      -6.437  -2.679 131.326  0.00  0.00    +0.000 A 
ATOM     14  C   UNL     1      -7.513  -3.287 130.673  0.00  0.00    +0.000 A 
ATOM     15  C   UNL     1      -7.693  -3.057 129.287  0.00  0.00    +0.000 A 
ATOM     16  C   UNL     1      -8.816  -3.731 128.540  0.00  0.00    +0.000 C 
ATOM     17  C   UNL     1      -9.033  -3.163 127.129  0.00  0.00    +0.000 C 
ATOM     18  C   UNL     1      -7.698  -2.959 126.397  0.00  0.00    +0.000 C 
ENDROOT
BRANCH   4  19
ATOM     19  O   UNL     1      -6.012  -1.787 121.875  0.00  0.00    +0.000 OA
ATOM     20  H   UNL     1      -5.725  -2.697 121.698  0.00  0.00    +0.000 HD
ENDBRANCH   4  19
BRANCH  13  21
ATOM     21  O   UNL     1      -6.230  -2.895 132.714  0.00  0.00    +0.000 OA
BRANCH  21  22
ATOM     22  C   UNL     1      -7.016  -2.822 133.879  0.00  0.00    +0.000 C 
ATOM     23  C   UNL     1      -7.722  -4.038 134.424  0.00  0.00    +0.000 C 
ATOM     24  O   UNL     1      -7.136  -1.759 134.469  0.00  0.00    +0.000 OA
ENDBRANCH  21  22
ENDBRANCH  13  21
TORSDOF 3
ENDMDL
MODEL 2
REMARK VINA RESULT:      -7.7      4.861      6.653
REMARK  Name = Estradiol acetate
REMARK  5 active torsions:
REMARK  status: ('A' for Active; 'I' for Inactive)
REMARK    1  A    between atoms: C_5  and  O_6
REMARK    2  A    between atoms: C_7  and  C_8
REMARK    3  A    between atoms: C_16  and  O_17
REMARK    4  A    between atoms: O_17  and  C_18
REMARK    5  A    between atoms: C_18  and  C_19
REMARK                            x       y       z     vdW  Elec       q    Type
REMARK                         _______ _______ _______ _____ _____    ______ ____
ROOT
ATOM      1  C   UNL     1      -7.698  -0.853 123.877  0.00  0.00    +0.000 C 
ATOM      2  C   UNL     1      -8.965  -1.205 123.114  0.00  0.00    +0.000 C 
ATOM      3  C   UNL     1      -9.037  -2.744 123.212  0.00  0.00    +0.000 C 
ATOM      4  C   UNL     1      -7.876  -3.172 124.129  0.00  0.00    +0.000 C 
ATOM      5  C   UNL     1      -7.633  -1.926 124.990  0.00  0.00    +0.000 C 
ATOM      6  C   UNL     1      -8.717  -1.766 126.085  0.00  0.00    +0.000 C 
ATOM      7  C   UNL     1      -6.257  -1.897 125.648  0.00  0.00    +0.000 C 
ATOM      8  C   UNL     1      -5.941  -0.496 126.148  0.00  0.00    +0.000 C 
ATOM      9  C   UNL     1      -6.115   0.587 125.042  0.00  0.00    +0.000 C 
ATOM     10  C   UNL     1      -5.791   1.975 125.502  0.00  0.00    +0.000 A 
ATOM     11  C   UNL     1      -4.800   2.076 126.441  0.00  0.00    +0.000 A 
ATOM     12  C   UNL     1      -4.419   3.290 126.908  0.00  0.00    +0.000 A 
ATOM     13  C   UNL     1      -4.961   4.466 126.455  0.00  0.00    +0.000 A 
ATOM     14  C   UNL     1      -5.953   4.413 125.472  0.00  0.00    +0.000 A 
ATOM     15  C   UNL     1      -6.368   3.151 124.983  0.00  0.00    +0.000 A 
ATOM     16  C   UNL     1      -7.466   3.054 123.955  0.00  0.00    +0.000 C 
ATOM     17  C   UNL     1      -7.600   1.652 123.339  0.00  0.00    +0.000 C 
ATOM     18  C   UNL     1      -7.518   0.559 124.415  0.00  0.00    +0.000 C 
ENDROOT
BRANCH   4  19
ATOM     19  O   UNL     1      -8.142  -4.346 124.867  0.00  0.00    +0.000 OA
ATOM     20  H   UNL     1      -8.365  -4.105 125.780  0.00  0.00    +0.000 HD
ENDBRANCH   4  19
BRANCH  13  21
ATOM     21  O   UNL     1      -4.526   5.717 126.966  0.00  0.00    +0.000 OA
BRANCH  21  22
ATOM     22  C   UNL     1      -3.915   6.170 128.150  0.00  0.00    +0.000 C 
ATOM     23  C   UNL     1      -2.420   6.344 128.243  0.00  0.00    +0.000 C 
ATOM     24  O   UNL     1      -4.598   6.431 129.128  0.00  0.00    +0.000 OA
ENDBRANCH  21  22
ENDBRANCH  13  21
TORSDOF 3
ENDMDL
MODEL 3
REMARK VINA RESULT:      -7.4      2.253      7.324
REMARK  Name = Estradiol acetate
REMARK  5 active torsions:
REMARK  status: ('A' for Active; 'I' for Inactive)
REMARK    1  A    between atoms: C_5  and  O_6
REMARK    2  A    between atoms: C_7  and  C_8
REMARK    3  A    between atoms: C_16  and  O_17
REMARK    4  A    between atoms: O_17  and  C_18
REMARK    5  A    between atoms: C_18  and  C_19
REMARK                            x       y       z     vdW  Elec       q    Type
REMARK                         _______ _______ _______ _____ _____    ______ ____
ROOT
ATOM      1  C   UNL     1      -5.937  -3.604 129.998  0.00  0.00    +0.000 C 
ATOM      2  C   UNL     1      -6.469  -4.145 131.314  0.00  0.00    +0.000 C 
ATOM      3  C   UNL     1      -5.232  -4.147 132.237  0.00  0.00    +0.000 C 
ATOM      4  C   UNL     1      -4.094  -3.492 131.434  0.00  0.00    +0.000 C 
ATOM      5  C   UNL     1      -4.841  -2.602 130.432  0.00  0.00    +0.000 C 
ATOM      6  C   UNL     1      -5.389  -1.318 131.105  0.00  0.00    +0.000 C 
ATOM      7  C   UNL     1      -4.001  -2.206 129.222  0.00  0.00    +0.000 C 
ATOM      8  C   UNL     1      -4.895  -1.672 128.112  0.00  0.00    +0.000 C 
ATOM      9  C   UNL     1      -6.058  -2.647 127.761  0.00  0.00    +0.000 C 
ATOM     10  C   UNL     1      -6.942  -2.154 126.657  0.00  0.00    +0.000 A 
ATOM     11  C   UNL     1      -6.327  -1.407 125.688  0.00  0.00    +0.000 A 
ATOM     12  C   UNL     1      -7.037  -0.931 124.636  0.00  0.00    +0.000 A 
ATOM     13  C   UNL     1      -8.372  -1.191 124.459  0.00  0.00    +0.000 A 
ATOM     14  C   UNL     1      -9.034  -1.978 125.405  0.00  0.00    +0.000 A 
ATOM     15  C   UNL     1      -8.307  -2.472 126.515  0.00  0.00    +0.000 A 
ATOM     16  C   UNL     1      -8.999  -3.287 127.579  0.00  0.00    +0.000 C 
ATOM     17  C   UNL     1      -8.024  -3.968 128.552  0.00  0.00    +0.000 C 
ATOM     18  C   UNL     1      -6.908  -3.007 128.989  0.00  0.00    +0.000 C 
ENDROOT
BRANCH   4  19
ATOM     19  O   UNL     1      -3.157  -2.805 132.237  0.00  0.00    +0.000 OA
ATOM     20  H   UNL     1      -3.605  -2.468 133.029  0.00  0.00    +0.000 HD
ENDBRANCH   4  19
BRANCH  13  21
ATOM     21  O   UNL     1      -9.075  -0.679 123.336  0.00  0.00    +0.000 OA
BRANCH  21  22
ATOM     22  C   UNL     1      -9.813   0.484 123.048  0.00  0.00    +0.000 C 
ATOM     23  C   UNL     1      -9.305   1.850 123.435  0.00  0.00    +0.000 C 
ATOM     24  O   UNL     1     -10.887   0.399 122.473  0.00  0.00    +0.000 OA
ENDBRANCH  21  22
ENDBRANCH  13  21
TORSDOF 3
ENDMDL
MODEL 4
REMARK VINA RESULT:      -7.4      9.258     11.007
REMARK  Name = Estradiol acetate
REMARK  5 active torsions:
REMARK  status: ('A' for Active; 'I' for Inactive)
REMARK    1  A    between atoms: C_5  and  O_6
REMARK    2  A    between atoms: C_7  and  C_8
REMARK    3  A    between atoms: C_16  and  O_17
REMARK    4  A    between atoms: O_17  and  C_18
REMARK    5  A    between atoms: C_18  and  C_19
REMARK                            x       y       z     vdW  Elec       q    Type
REMARK                         _______ _______ _______ _____ _____    ______ ____
ROOT
ATOM      1  C   UNL     1      -3.847   4.885 132.082  0.00  0.00    +0.000 C 
ATOM      2  C   UNL     1      -2.903   4.110 132.987  0.00  0.00    +0.000 C 
ATOM      3  C   UNL     1      -1.507   4.658 132.616  0.00  0.00    +0.000 C 
ATOM      4  C   UNL     1      -1.746   5.800 131.611  0.00  0.00    +0.000 C 
ATOM      5  C   UNL     1      -3.168   6.268 131.945  0.00  0.00    +0.000 C 
ATOM      6  C   UNL     1      -3.201   7.119 133.239  0.00  0.00    +0.000 C 
ATOM      7  C   UNL     1      -3.832   7.055 130.819  0.00  0.00    +0.000 C 
ATOM      8  C   UNL     1      -5.333   7.145 131.053  0.00  0.00    +0.000 C 
ATOM      9  C   UNL     1      -5.984   5.751 131.296  0.00  0.00    +0.000 C 
ATOM     10  C   UNL     1      -7.465   5.808 131.509  0.00  0.00    +0.000 A 
ATOM     11  C   UNL     1      -8.129   6.790 130.825  0.00  0.00    +0.000 A 
ATOM     12  C   UNL     1      -9.475   6.913 130.935  0.00  0.00    +0.000 A 
ATOM     13  C   UNL     1     -10.241   6.063 131.690  0.00  0.00    +0.000 A 
ATOM     14  C   UNL     1      -9.610   5.024 132.380  0.00  0.00    +0.000 A 
ATOM     15  C   UNL     1      -8.204   4.890 132.282  0.00  0.00    +0.000 A 
ATOM     16  C   UNL     1      -7.484   3.809 133.048  0.00  0.00    +0.000 C 
ATOM     17  C   UNL     1      -6.019   3.633 132.619  0.00  0.00    +0.000 C 
ATOM     18  C   UNL     1      -5.319   4.990 132.453  0.00  0.00    +0.000 C 
ENDROOT
BRANCH   4  19
ATOM     19  O   UNL     1      -0.769   6.817 131.669  0.00  0.00    +0.000 OA
ATOM     20  H   UNL     1      -0.908   7.346 132.470  0.00  0.00    +0.000 HD
ENDBRANCH   4  19
BRANCH  13  21
ATOM     21  O   UNL     1     -11.650   6.223 131.770  0.00  0.00    +0.000 OA
BRANCH  21  22
ATOM     22  C   UNL     1     -12.606   7.080 131.194  0.00  0.00    +0.000 C 
ATOM     23  C   UNL     1     -12.944   7.001 129.727  0.00  0.00    +0.000 C 
ATOM     24  O   UNL     1     -13.180   7.907 131.885  0.00  0.00    +0.000 OA
ENDBRANCH  21  22
ENDBRANCH  13  21
TORSDOF 3
ENDMDL
MODEL 5
REMARK VINA RESULT:      -7.3      2.220      7.666
REMARK  Name = Estradiol acetate
REMARK  5 active torsions:
REMARK  status: ('A' for Active; 'I' for Inactive)
REMARK    1  A    between atoms: C_5  and  O_6
REMARK    2  A    between atoms: C_7  and  C_8
REMARK    3  A    between atoms: C_16  and  O_17
REMARK    4  A    between atoms: O_17  and  C_18
REMARK    5  A    between atoms: C_18  and  C_19
REMARK                            x       y       z     vdW  Elec       q    Type
REMARK                         _______ _______ _______ _____ _____    ______ ____
ROOT
ATOM      1  C   UNL     1      -5.582  -1.734 131.301  0.00  0.00    +0.000 C 
ATOM      2  C   UNL     1      -4.548  -0.799 131.906  0.00  0.00    +0.000 C 
ATOM      3  C   UNL     1      -3.956  -1.614 133.076  0.00  0.00    +0.000 C 
ATOM      4  C   UNL     1      -4.597  -3.012 132.995  0.00  0.00    +0.000 C 
ATOM      5  C   UNL     1      -4.971  -3.139 131.513  0.00  0.00    +0.000 C 
ATOM      6  C   UNL     1      -3.729  -3.427 130.632  0.00  0.00    +0.000 C 
ATOM      7  C   UNL     1      -6.028  -4.204 131.239  0.00  0.00    +0.000 C 
ATOM      8  C   UNL     1      -6.622  -4.013 129.851  0.00  0.00    +0.000 C 
ATOM      9  C   UNL     1      -7.137  -2.561 129.617  0.00  0.00    +0.000 C 
ATOM     10  C   UNL     1      -7.745  -2.350 128.265  0.00  0.00    +0.000 A 
ATOM     11  C   UNL     1      -8.398  -3.427 127.730  0.00  0.00    +0.000 A 
ATOM     12  C   UNL     1      -8.999  -3.332 126.518  0.00  0.00    +0.000 A 
ATOM     13  C   UNL     1      -9.024  -2.171 125.789  0.00  0.00    +0.000 A 
ATOM     14  C   UNL     1      -8.399  -1.036 126.311  0.00  0.00    +0.000 A 
ATOM     15  C   UNL     1      -7.757  -1.124 127.570  0.00  0.00    +0.000 A 
ATOM     16  C   UNL     1      -7.035   0.068 128.145  0.00  0.00    +0.000 C 
ATOM     17  C   UNL     1      -6.639  -0.113 129.619  0.00  0.00    +0.000 C 
ATOM     18  C   UNL     1      -6.047  -1.508 129.869  0.00  0.00    +0.000 C 
ENDROOT
BRANCH   4  19
ATOM     19  O   UNL     1      -3.763  -4.045 133.476  0.00  0.00    +0.000 OA
ATOM     20  H   UNL     1      -4.226  -4.525 134.181  0.00  0.00    +0.000 HD
ENDBRANCH   4  19
BRANCH  13  21
ATOM     21  O   UNL     1      -9.674  -2.114 124.527  0.00  0.00    +0.000 OA
BRANCH  21  22
ATOM     22  C   UNL     1      -9.345  -1.654 123.238  0.00  0.00    +0.000 C 
ATOM     23  C   UNL     1      -8.079  -2.097 122.548  0.00  0.00    +0.000 C 
ATOM     24  O   UNL     1     -10.090  -0.880 122.658  0.00  0.00    +0.000 OA
ENDBRANCH  21  22
ENDBRANCH  13  21
TORSDOF 3
ENDMDL
MODEL 6
REMARK VINA RESULT:      -7.2      2.899      3.340
REMARK  Name = Estradiol acetate
REMARK  5 active torsions:
REMARK  status: ('A' for Active; 'I' for Inactive)
REMARK    1  A    between atoms: C_5  and  O_6
REMARK    2  A    between atoms: C_7  and  C_8
REMARK    3  A    between atoms: C_16  and  O_17
REMARK    4  A    between atoms: O_17  and  C_18
REMARK    5  A    between atoms: C_18  and  C_19
REMARK                            x       y       z     vdW  Elec       q    Type
REMARK                         _______ _______ _______ _____ _____    ______ ____
ROOT
ATOM      1  C   UNL     1      -9.081   0.275 124.851  0.00  0.00    +0.000 C 
ATOM      2  C   UNL     1      -9.372  -0.028 123.390  0.00  0.00    +0.000 C 
ATOM      3  C   UNL     1      -9.456   1.368 122.736  0.00  0.00    +0.000 C 
ATOM      4  C   UNL     1      -9.086   2.382 123.835  0.00  0.00    +0.000 C 
ATOM      5  C   UNL     1      -8.218   1.557 124.793  0.00  0.00    +0.000 C 
ATOM      6  C   UNL     1      -6.793   1.334 124.226  0.00  0.00    +0.000 C 
ATOM      7  C   UNL     1      -8.105   2.162 126.189  0.00  0.00    +0.000 C 
ATOM      8  C   UNL     1      -7.575   1.127 127.170  0.00  0.00    +0.000 C 
ATOM      9  C   UNL     1      -8.392  -0.199 127.139  0.00  0.00    +0.000 C 
ATOM     10  C   UNL     1      -7.904  -1.228 128.111  0.00  0.00    +0.000 A 
ATOM     11  C   UNL     1      -7.383  -0.745 129.281  0.00  0.00    +0.000 A 
ATOM     12  C   UNL     1      -6.932  -1.597 130.234  0.00  0.00    +0.000 A 
ATOM     13  C   UNL     1      -7.000  -2.961 130.107  0.00  0.00    +0.000 A 
ATOM     14  C   UNL     1      -7.556  -3.500 128.944  0.00  0.00    +0.000 A 
ATOM     15  C   UNL     1      -8.021  -2.622 127.935  0.00  0.00    +0.000 A 
ATOM     16  C   UNL     1      -8.585  -3.167 126.647  0.00  0.00    +0.000 C 
ATOM     17  C   UNL     1      -9.288  -2.101 125.792  0.00  0.00    +0.000 C 
ATOM     18  C   UNL     1      -8.466  -0.805 125.730  0.00  0.00    +0.000 C 
ENDROOT
BRANCH   4  19
ATOM     19  O   UNL     1      -8.462   3.548 123.341  0.00  0.00    +0.000 OA
ATOM     20  H   UNL     1      -7.628   3.304 122.909  0.00  0.00    +0.000 HD
ENDBRANCH   4  19
BRANCH  13  21
ATOM     21  O   UNL     1      -6.523  -3.816 131.135  0.00  0.00    +0.000 OA
BRANCH  21  22
ATOM     22  C   UNL     1      -5.270  -4.314 131.539  0.00  0.00    +0.000 C 
ATOM     23  C   UNL     1      -5.137  -5.224 132.733  0.00  0.00    +0.000 C 
ATOM     24  O   UNL     1      -4.264  -4.009 130.918  0.00  0.00    +0.000 OA
ENDBRANCH  21  22
ENDBRANCH  13  21
TORSDOF 3
ENDMDL
MODEL 7
REMARK VINA RESULT:      -7.2      5.349      7.889
REMARK  Name = Estradiol acetate
REMARK  5 active torsions:
REMARK  status: ('A' for Active; 'I' for Inactive)
REMARK    1  A    between atoms: C_5  and  O_6
REMARK    2  A    between atoms: C_7  and  C_8
REMARK    3  A    between atoms: C_16  and  O_17
REMARK    4  A    between atoms: O_17  and  C_18
REMARK    5  A    between atoms: C_18  and  C_19
REMARK                            x       y       z     vdW  Elec       q    Type
REMARK                         _______ _______ _______ _____ _____    ______ ____
ROOT
ATOM      1  C   UNL     1      -9.218   3.979 130.966  0.00  0.00    +0.000 C 
ATOM      2  C   UNL     1      -9.090   5.273 130.178  0.00  0.00    +0.000 C 
ATOM      3  C   UNL     1      -9.487   6.363 131.197  0.00  0.00    +0.000 C 
ATOM      4  C   UNL     1      -9.697   5.641 132.541  0.00  0.00    +0.000 C 
ATOM      5  C   UNL     1      -8.823   4.388 132.405  0.00  0.00    +0.000 C 
ATOM      6  C   UNL     1      -7.319   4.717 132.578  0.00  0.00    +0.000 C 
ATOM      7  C   UNL     1      -9.200   3.273 133.375  0.00  0.00    +0.000 C 
ATOM      8  C   UNL     1      -8.575   1.957 132.934  0.00  0.00    +0.000 C 
ATOM      9  C   UNL     1      -8.895   1.613 131.449  0.00  0.00    +0.000 C 
ATOM     10  C   UNL     1      -8.309   0.312 130.994  0.00  0.00    +0.000 A 
ATOM     11  C   UNL     1      -8.223  -0.669 131.945  0.00  0.00    +0.000 A 
ATOM     12  C   UNL     1      -7.725  -1.889 131.628  0.00  0.00    +0.000 A 
ATOM     13  C   UNL     1      -7.321  -2.223 130.361  0.00  0.00    +0.000 A 
ATOM     14  C   UNL     1      -7.422  -1.264 129.350  0.00  0.00    +0.000 A 
ATOM     15  C   UNL     1      -7.930   0.019 129.669  0.00  0.00    +0.000 A 
ATOM     16  C   UNL     1      -8.011   1.093 128.613  0.00  0.00    +0.000 C 
ATOM     17  C   UNL     1      -8.831   2.316 129.053  0.00  0.00    +0.000 C 
ATOM     18  C   UNL     1      -8.479   2.737 130.488  0.00  0.00    +0.000 C 
ENDROOT
BRANCH   4  19
ATOM     19  O   UNL     1      -9.398   6.441 133.666  0.00  0.00    +0.000 OA
ATOM     20  H   UNL     1      -9.747   6.012 134.463  0.00  0.00    +0.000 HD
ENDBRANCH   4  19
BRANCH  13  21
ATOM     21  O   UNL     1      -6.813  -3.517 130.072  0.00  0.00    +0.000 OA
BRANCH  21  22
ATOM     22  C   UNL     1      -5.578  -4.177 130.218  0.00  0.00    +0.000 C 
ATOM     23  C   UNL     1      -4.302  -3.577 129.684  0.00  0.00    +0.000 C 
ATOM     24  O   UNL     1      -5.527  -5.256 130.786  0.00  0.00    +0.000 OA
ENDBRANCH  21  22
ENDBRANCH  13  21
TORSDOF 3
ENDMDL
MODEL 8
REMARK VINA RESULT:      -7.1      4.911      7.043
REMARK  Name = Estradiol acetate
REMARK  5 active torsions:
REMARK  status: ('A' for Active; 'I' for Inactive)
REMARK    1  A    between atoms: C_5  and  O_6
REMARK    2  A    between atoms: C_7  and  C_8
REMARK    3  A    between atoms: C_16  and  O_17
REMARK    4  A    between atoms: O_17  and  C_18
REMARK    5  A    between atoms: C_18  and  C_19
REMARK                            x       y       z     vdW  Elec       q    Type
REMARK                         _______ _______ _______ _____ _____    ______ ____
ROOT
ATOM      1  C   UNL     1      -5.691  -1.717 129.942  0.00  0.00    +0.000 C 
ATOM      2  C   UNL     1      -4.788  -2.239 128.837  0.00  0.00    +0.000 C 
ATOM      3  C   UNL     1      -4.346  -3.627 129.349  0.00  0.00    +0.000 C 
ATOM      4  C   UNL     1      -5.121  -3.869 130.658  0.00  0.00    +0.000 C 
ATOM      5  C   UNL     1      -6.369  -2.993 130.493  0.00  0.00    +0.000 C 
ATOM      6  C   UNL     1      -7.393  -3.633 129.523  0.00  0.00    +0.000 C 
ATOM      7  C   UNL     1      -7.069  -2.674 131.810  0.00  0.00    +0.000 C 
ATOM      8  C   UNL     1      -8.037  -1.514 131.625  0.00  0.00    +0.000 C 
ATOM      9  C   UNL     1      -7.362  -0.272 130.970  0.00  0.00    +0.000 C 
ATOM     10  C   UNL     1      -8.288   0.892 130.794  0.00  0.00    +0.000 A 
ATOM     11  C   UNL     1      -9.255   1.035 131.752  0.00  0.00    +0.000 A 
ATOM     12  C   UNL     1     -10.131   2.068 131.693  0.00  0.00    +0.000 A 
ATOM     13  C   UNL     1     -10.082   3.031 130.719  0.00  0.00    +0.000 A 
ATOM     14  C   UNL     1      -9.089   2.945 129.739  0.00  0.00    +0.000 A 
ATOM     15  C   UNL     1      -8.175   1.865 129.781  0.00  0.00    +0.000 A 
ATOM     16  C   UNL     1      -7.119   1.716 128.716  0.00  0.00    +0.000 C 
ATOM     17  C   UNL     1      -6.052   0.664 129.060  0.00  0.00    +0.000 C 
ATOM     18  C   UNL     1      -6.690  -0.612 129.631  0.00  0.00    +0.000 C 
ENDROOT
BRANCH   4  19
ATOM     19  O   UNL     1      -5.394  -5.232 130.909  0.00  0.00    +0.000 OA
ATOM     20  H   UNL     1      -5.138  -5.445 131.821  0.00  0.00    +0.000 HD
ENDBRANCH   4  19
BRANCH  13  21
ATOM     21  O   UNL     1     -11.014   4.102 130.700  0.00  0.00    +0.000 OA
BRANCH  21  22
ATOM     22  C   UNL     1     -11.012   5.440 130.263  0.00  0.00    +0.000 C 
ATOM     23  C   UNL     1     -10.212   6.497 130.981  0.00  0.00    +0.000 C 
ATOM     24  O   UNL     1     -11.668   5.763 129.284  0.00  0.00    +0.000 OA
ENDBRANCH  21  22
ENDBRANCH  13  21
TORSDOF 3
ENDMDL
MODEL 9
REMARK VINA RESULT:      -7.0      8.674     12.238
REMARK  Name = Estradiol acetate
REMARK  5 active torsions:
REMARK  status: ('A' for Active; 'I' for Inactive)
REMARK    1  A    between atoms: C_5  and  O_6
REMARK    2  A    between atoms: C_7  and  C_8
REMARK    3  A    between atoms: C_16  and  O_17
REMARK    4  A    between atoms: O_17  and  C_18
REMARK    5  A    between atoms: C_18  and  C_19
REMARK                            x       y       z     vdW  Elec       q    Type
REMARK                         _______ _______ _______ _____ _____    ______ ____
ROOT
ATOM      1  C   UNL     1      -2.702   7.562 132.717  0.00  0.00    +0.000 C 
ATOM      2  C   UNL     1      -2.408   8.987 133.156  0.00  0.00    +0.000 C 
ATOM      3  C   UNL     1      -1.882   8.826 134.599  0.00  0.00    +0.000 C 
ATOM      4  C   UNL     1      -1.790   7.311 134.856  0.00  0.00    +0.000 C 
ATOM      5  C   UNL     1      -1.626   6.726 133.448  0.00  0.00    +0.000 C 
ATOM      6  C   UNL     1      -0.189   6.934 132.906  0.00  0.00    +0.000 C 
ATOM      7  C   UNL     1      -1.979   5.245 133.357  0.00  0.00    +0.000 C 
ATOM      8  C   UNL     1      -2.169   4.837 131.903  0.00  0.00    +0.000 C 
ATOM      9  C   UNL     1      -3.178   5.757 131.152  0.00  0.00    +0.000 C 
ATOM     10  C   UNL     1      -3.399   5.365 129.724  0.00  0.00    +0.000 A 
ATOM     11  C   UNL     1      -3.327   4.025 129.454  0.00  0.00    +0.000 A 
ATOM     12  C   UNL     1      -3.533   3.567 128.195  0.00  0.00    +0.000 A 
ATOM     13  C   UNL     1      -3.853   4.390 127.146  0.00  0.00    +0.000 A 
ATOM     14  C   UNL     1      -3.971   5.762 127.381  0.00  0.00    +0.000 A 
ATOM     15  C   UNL     1      -3.748   6.256 128.689  0.00  0.00    +0.000 A 
ATOM     16  C   UNL     1      -3.823   7.736 128.970  0.00  0.00    +0.000 C 
ATOM     17  C   UNL     1      -3.830   8.069 130.471  0.00  0.00    +0.000 C 
ATOM     18  C   UNL     1      -2.785   7.240 131.232  0.00  0.00    +0.000 C 
ENDROOT
BRANCH   4  19
ATOM     19  O   UNL     1      -0.765   6.952 135.759  0.00  0.00    +0.000 OA
ATOM     20  H   UNL     1      -1.134   6.902 136.656  0.00  0.00    +0.000 HD
ENDBRANCH   4  19
BRANCH  13  21
ATOM     21  O   UNL     1      -4.068   3.866 125.844  0.00  0.00    +0.000 OA
BRANCH  21  22
ATOM     22  C   UNL     1      -5.187   3.564 125.045  0.00  0.00    +0.000 C 
ATOM     23  C   UNL     1      -5.633   4.488 123.941  0.00  0.00    +0.000 C 
ATOM     24  O   UNL     1      -5.818   2.536 125.242  0.00  0.00    +0.000 OA
ENDBRANCH  21  22
ENDBRANCH  13  21
TORSDOF 3
ENDMDL
