MODEL 1
REMARK VINA RESULT:      -8.2      0.000      0.000
REMARK  Name = Estradiol
REMARK  3 active torsions:
REMARK  status: ('A' for Active; 'I' for Inactive)
REMARK    1  A    between atoms: C_5  and  O_6
REMARK    2  A    between atoms: C_7  and  C_8
REMARK    3  A    between atoms: C_20  and  O_21
REMARK                            x       y       z     vdW  Elec       q    Type
REMARK                         _______ _______ _______ _____ _____    ______ ____
ROOT
ATOM      1  C   UNL     1      -7.638   1.782 124.559  0.00  0.00    +0.000 C 
ATOM      2  C   UNL     1      -6.787   1.054 125.598  0.00  0.00    +0.000 C 
ATOM      3  C   UNL     1      -7.795   0.155 126.343  0.00  0.00    +0.000 C 
ATOM      4  C   UNL     1      -9.107   0.216 125.536  0.00  0.00    +0.000 C 
ATOM      5  C   UNL     1      -8.668   0.709 124.144  0.00  0.00    +0.000 C 
ATOM      6  C   UNL     1      -8.074  -0.456 123.311  0.00  0.00    +0.000 C 
ATOM      7  C   UNL     1      -9.774   1.399 123.343  0.00  0.00    +0.000 C 
ATOM      8  C   UNL     1      -9.202   2.121 122.116  0.00  0.00    +0.000 C 
ATOM      9  C   UNL     1      -8.053   3.104 122.458  0.00  0.00    +0.000 C 
ATOM     10  C   UNL     1      -7.418   3.768 121.240  0.00  0.00    +0.000 A 
ATOM     11  C   UNL     1      -6.092   4.248 121.299  0.00  0.00    +0.000 A 
ATOM     12  C   UNL     1      -5.234   4.089 122.534  0.00  0.00    +0.000 C 
ATOM     13  C   UNL     1      -5.955   3.520 123.760  0.00  0.00    +0.000 C 
ATOM     14  C   UNL     1      -6.961   2.439 123.352  0.00  0.00    +0.000 C 
ATOM     15  C   UNL     1      -5.519   4.853 120.161  0.00  0.00    +0.000 A 
ATOM     16  C   UNL     1      -6.263   4.997 118.994  0.00  0.00    +0.000 A 
ATOM     17  C   UNL     1      -7.575   4.563 118.938  0.00  0.00    +0.000 A 
ATOM     18  C   UNL     1      -8.151   3.964 120.056  0.00  0.00    +0.000 A 
ENDROOT
BRANCH   4  19
ATOM     19  O   UNL     1      -9.793  -1.022 125.523  0.00  0.00    +0.000 OA
ATOM     20  H   UNL     1      -9.753  -1.394 124.626  0.00  0.00    +0.000 HD
ENDBRANCH   4  19
BRANCH  16  21
ATOM     21  O   UNL     1      -5.744   5.563 117.867  0.00  0.00    +0.000 OA
ATOM     22  H   UNL     1      -5.989   5.021 117.102  0.00  0.00    +0.000 HD
ENDBRANCH  16  21
TORSDOF 2
ENDMDL
MODEL 2
REMARK VINA RESULT:      -7.6      5.380      9.270
REMARK  Name = Estradiol
REMARK  3 active torsions:
REMARK  status: ('A' for Active; 'I' for Inactive)
REMARK    1  A    between atoms: C_5  and  O_6
REMARK    2  A    between atoms: C_7  and  C_8
REMARK    3  A    between atoms: C_20  and  O_21
REMARK                            x       y       z     vdW  Elec       q    Type
REMARK                         _______ _______ _______ _____ _____    ______ ____
ROOT
ATOM      1  C   UNL     1      -7.801  -2.449 125.136  0.00  0.00    +0.000 C 
ATOM      2  C   UNL     1      -8.649  -3.302 124.195  0.00  0.00    +0.000 C 
ATOM      3  C   UNL     1      -8.299  -2.767 122.791  0.00  0.00    +0.000 C 
ATOM      4  C   UNL     1      -7.093  -1.827 122.975  0.00  0.00    +0.000 C 
ATOM      5  C   UNL     1      -6.498  -2.240 124.335  0.00  0.00    +0.000 C 
ATOM      6  C   UNL     1      -5.629  -3.515 124.189  0.00  0.00    +0.000 C 
ATOM      7  C   UNL     1      -5.687  -1.144 125.027  0.00  0.00    +0.000 C 
ATOM      8  C   UNL     1      -5.387  -1.513 126.486  0.00  0.00    +0.000 C 
ATOM      9  C   UNL     1      -6.651  -1.883 127.303  0.00  0.00    +0.000 C 
ATOM     10  C   UNL     1      -6.360  -2.333 128.731  0.00  0.00    +0.000 A 
ATOM     11  C   UNL     1      -7.268  -3.171 129.414  0.00  0.00    +0.000 A 
ATOM     12  C   UNL     1      -8.527  -3.693 128.759  0.00  0.00    +0.000 C 
ATOM     13  C   UNL     1      -8.826  -3.122 127.370  0.00  0.00    +0.000 C 
ATOM     14  C   UNL     1      -7.536  -2.934 126.565  0.00  0.00    +0.000 C 
ATOM     15  C   UNL     1      -6.979  -3.584 130.731  0.00  0.00    +0.000 A 
ATOM     16  C   UNL     1      -5.818  -3.148 131.363  0.00  0.00    +0.000 A 
ATOM     17  C   UNL     1      -4.941  -2.297 130.716  0.00  0.00    +0.000 A 
ATOM     18  C   UNL     1      -5.216  -1.884 129.414  0.00  0.00    +0.000 A 
ENDROOT
BRANCH   4  19
ATOM     19  O   UNL     1      -6.178  -1.899 121.897  0.00  0.00    +0.000 OA
ATOM     20  H   UNL     1      -5.812  -2.797 121.855  0.00  0.00    +0.000 HD
ENDBRANCH   4  19
BRANCH  16  21
ATOM     21  O   UNL     1      -5.494  -3.533 132.631  0.00  0.00    +0.000 OA
ATOM     22  H   UNL     1      -6.198  -3.248 133.235  0.00  0.00    +0.000 HD
ENDBRANCH  16  21
TORSDOF 2
ENDMDL
MODEL 3
REMARK VINA RESULT:      -7.4      6.390      8.522
REMARK  Name = Estradiol
REMARK  3 active torsions:
REMARK  status: ('A' for Active; 'I' for Inactive)
REMARK    1  A    between atoms: C_5  and  O_6
REMARK    2  A    between atoms: C_7  and  C_8
REMARK    3  A    between atoms: C_20  and  O_21
REMARK                            x       y       z     vdW  Elec       q    Type
REMARK                         _______ _______ _______ _____ _____    ______ ____
ROOT
ATOM      1  C   UNL     1      -5.293  -2.268 129.842  0.00  0.00    +0.000 C 
ATOM      2  C   UNL     1      -3.801  -2.329 130.161  0.00  0.00    +0.000 C 
ATOM      3  C   UNL     1      -3.755  -2.518 131.692  0.00  0.00    +0.000 C 
ATOM      4  C   UNL     1      -5.201  -2.814 132.135  0.00  0.00    +0.000 C 
ATOM      5  C   UNL     1      -5.902  -3.275 130.842  0.00  0.00    +0.000 C 
ATOM      6  C   UNL     1      -5.570  -4.757 130.536  0.00  0.00    +0.000 C 
ATOM      7  C   UNL     1      -7.419  -3.080 130.845  0.00  0.00    +0.000 C 
ATOM      8  C   UNL     1      -8.006  -3.272 129.441  0.00  0.00    +0.000 C 
ATOM      9  C   UNL     1      -7.325  -2.393 128.361  0.00  0.00    +0.000 C 
ATOM     10  C   UNL     1      -7.840  -2.633 126.946  0.00  0.00    +0.000 A 
ATOM     11  C   UNL     1      -7.027  -2.341 125.831  0.00  0.00    +0.000 A 
ATOM     12  C   UNL     1      -5.611  -1.830 125.981  0.00  0.00    +0.000 C 
ATOM     13  C   UNL     1      -5.185  -1.501 127.415  0.00  0.00    +0.000 C 
ATOM     14  C   UNL     1      -5.770  -2.511 128.406  0.00  0.00    +0.000 C 
ATOM     15  C   UNL     1      -7.517  -2.577 124.529  0.00  0.00    +0.000 A 
ATOM     16  C   UNL     1      -8.805  -3.072 124.344  0.00  0.00    +0.000 A 
ATOM     17  C   UNL     1      -9.623  -3.325 125.429  0.00  0.00    +0.000 A 
ATOM     18  C   UNL     1      -9.149  -3.097 126.719  0.00  0.00    +0.000 A 
ENDROOT
BRANCH   4  19
ATOM     19  O   UNL     1      -5.264  -3.751 133.193  0.00  0.00    +0.000 OA
ATOM     20  H   UNL     1      -6.160  -3.743 133.568  0.00  0.00    +0.000 HD
ENDBRANCH   4  19
BRANCH  16  21
ATOM     21  O   UNL     1      -9.313  -3.325 123.105  0.00  0.00    +0.000 OA
ATOM     22  H   UNL     1      -9.598  -4.251 123.066  0.00  0.00    +0.000 HD
ENDBRANCH  16  21
TORSDOF 2
ENDMDL
MODEL 4
REMARK VINA RESULT:      -7.4      5.749      8.597
REMARK  Name = Estradiol
REMARK  3 active torsions:
REMARK  status: ('A' for Active; 'I' for Inactive)
REMARK    1  A    between atoms: C_5  and  O_6
REMARK    2  A    between atoms: C_7  and  C_8
REMARK    3  A    between atoms: C_20  and  O_21
REMARK                            x       y       z     vdW  Elec       q    Type
REMARK                         _______ _______ _______ _____ _____    ______ ____
ROOT
ATOM      1  C   UNL     1      -7.257  -1.754 131.111  0.00  0.00    +0.000 C 
ATOM      2  C   UNL     1      -7.577  -2.501 132.405  0.00  0.00    +0.000 C 
ATOM      3  C   UNL     1      -7.115  -1.535 133.516  0.00  0.00    +0.000 C 
ATOM      4  C   UNL     1      -6.798  -0.197 132.822  0.00  0.00    +0.000 C 
ATOM      5  C   UNL     1      -7.549  -0.283 131.479  0.00  0.00    +0.000 C 
ATOM      6  C   UNL     1      -9.052   0.040 131.670  0.00  0.00    +0.000 C 
ATOM      7  C   UNL     1      -6.971   0.605 130.376  0.00  0.00    +0.000 C 
ATOM      8  C   UNL     1      -7.566   0.247 129.008  0.00  0.00    +0.000 C 
ATOM      9  C   UNL     1      -7.438  -1.256 128.651  0.00  0.00    +0.000 C 
ATOM     10  C   UNL     1      -8.099  -1.641 127.331  0.00  0.00    +0.000 A 
ATOM     11  C   UNL     1      -8.530  -2.966 127.110  0.00  0.00    +0.000 A 
ATOM     12  C   UNL     1      -8.405  -4.040 128.168  0.00  0.00    +0.000 C 
ATOM     13  C   UNL     1      -7.634  -3.628 129.426  0.00  0.00    +0.000 C 
ATOM     14  C   UNL     1      -7.939  -2.176 129.806  0.00  0.00    +0.000 C 
ATOM     15  C   UNL     1      -9.147  -3.304 125.887  0.00  0.00    +0.000 A 
ATOM     16  C   UNL     1      -9.307  -2.341 124.894  0.00  0.00    +0.000 A 
ATOM     17  C   UNL     1      -8.854  -1.049 125.087  0.00  0.00    +0.000 A 
ATOM     18  C   UNL     1      -8.244  -0.705 126.292  0.00  0.00    +0.000 A 
ENDROOT
BRANCH   4  19
ATOM     19  O   UNL     1      -7.151   0.922 133.612  0.00  0.00    +0.000 OA
ATOM     20  H   UNL     1      -8.088   0.850 133.858  0.00  0.00    +0.000 HD
ENDBRANCH   4  19
BRANCH  16  21
ATOM     21  O   UNL     1      -9.909  -2.621 123.703  0.00  0.00    +0.000 OA
ATOM     22  H   UNL     1      -9.275  -3.082 123.132  0.00  0.00    +0.000 HD
ENDBRANCH  16  21
TORSDOF 2
ENDMDL
MODEL 5
REMARK VINA RESULT:      -7.1      6.251      9.543
REMARK  Name = Estradiol
REMARK  3 active torsions:
REMARK  status: ('A' for Active; 'I' for Inactive)
REMARK    1  A    between atoms: C_5  and  O_6
REMARK    2  A    between atoms: C_7  and  C_8
REMARK    3  A    between atoms: C_20  and  O_21
REMARK                            x       y       z     vdW  Elec       q    Type
REMARK                         _______ _______ _______ _____ _____    ______ ____
ROOT
ATOM      1  C   UNL     1      -6.965  -2.869 126.299  0.00  0.00    +0.000 C 
ATOM      2  C   UNL     1      -6.487  -2.187 125.018  0.00  0.00    +0.000 C 
ATOM      3  C   UNL     1      -7.458  -2.704 123.936  0.00  0.00    +0.000 C 
ATOM      4  C   UNL     1      -8.586  -3.441 124.684  0.00  0.00    +0.000 C 
ATOM      5  C   UNL     1      -8.499  -2.898 126.123  0.00  0.00    +0.000 C 
ATOM      6  C   UNL     1      -9.179  -1.510 126.228  0.00  0.00    +0.000 C 
ATOM      7  C   UNL     1      -9.080  -3.834 127.185  0.00  0.00    +0.000 C 
ATOM      8  C   UNL     1      -8.692  -3.377 128.598  0.00  0.00    +0.000 C 
ATOM      9  C   UNL     1      -7.166  -3.182 128.788  0.00  0.00    +0.000 C 
ATOM     10  C   UNL     1      -6.773  -2.648 130.162  0.00  0.00    +0.000 A 
ATOM     11  C   UNL     1      -5.565  -1.941 130.333  0.00  0.00    +0.000 A 
ATOM     12  C   UNL     1      -4.639  -1.640 129.176  0.00  0.00    +0.000 C 
ATOM     13  C   UNL     1      -5.024  -2.293 127.846  0.00  0.00    +0.000 C 
ATOM     14  C   UNL     1      -6.544  -2.304 127.659  0.00  0.00    +0.000 C 
ATOM     15  C   UNL     1      -5.221  -1.447 131.610  0.00  0.00    +0.000 A 
ATOM     16  C   UNL     1      -6.057  -1.678 132.698  0.00  0.00    +0.000 A 
ATOM     17  C   UNL     1      -7.224  -2.403 132.548  0.00  0.00    +0.000 A 
ATOM     18  C   UNL     1      -7.574  -2.894 131.292  0.00  0.00    +0.000 A 
ENDROOT
BRANCH   4  19
ATOM     19  O   UNL     1      -9.850  -3.262 124.072  0.00  0.00    +0.000 OA
ATOM     20  H   UNL     1     -10.432  -2.787 124.687  0.00  0.00    +0.000 HD
ENDBRANCH   4  19
BRANCH  16  21
ATOM     21  O   UNL     1      -5.768  -1.209 133.946  0.00  0.00    +0.000 OA
ATOM     22  H   UNL     1      -6.387  -0.495 134.163  0.00  0.00    +0.000 HD
ENDBRANCH  16  21
TORSDOF 2
ENDMDL
MODEL 6
REMARK VINA RESULT:      -7.0      3.474      5.173
REMARK  Name = Estradiol
REMARK  3 active torsions:
REMARK  status: ('A' for Active; 'I' for Inactive)
REMARK    1  A    between atoms: C_5  and  O_6
REMARK    2  A    between atoms: C_7  and  C_8
REMARK    3  A    between atoms: C_20  and  O_21
REMARK                            x       y       z     vdW  Elec       q    Type
REMARK                         _______ _______ _______ _____ _____    ______ ____
ROOT
ATOM      1  C   UNL     1      -7.678  -0.971 123.820  0.00  0.00    +0.000 C 
ATOM      2  C   UNL     1      -9.012  -1.309 123.158  0.00  0.00    +0.000 C 
ATOM      3  C   UNL     1      -9.080  -2.849 123.223  0.00  0.00    +0.000 C 
ATOM      4  C   UNL     1      -7.923  -3.295 124.136  0.00  0.00    +0.000 C 
ATOM      5  C   UNL     1      -7.570  -2.029 124.940  0.00  0.00    +0.000 C 
ATOM      6  C   UNL     1      -8.567  -1.825 126.108  0.00  0.00    +0.000 C 
ATOM      7  C   UNL     1      -6.138  -2.004 125.479  0.00  0.00    +0.000 C 
ATOM      8  C   UNL     1      -5.766  -0.609 125.997  0.00  0.00    +0.000 C 
ATOM      9  C   UNL     1      -6.000   0.520 124.960  0.00  0.00    +0.000 C 
ATOM     10  C   UNL     1      -5.713   1.921 125.489  0.00  0.00    +0.000 A 
ATOM     11  C   UNL     1      -6.340   3.045 124.910  0.00  0.00    +0.000 A 
ATOM     12  C   UNL     1      -7.347   2.914 123.789  0.00  0.00    +0.000 C 
ATOM     13  C   UNL     1      -7.512   1.500 123.223  0.00  0.00    +0.000 C 
ATOM     14  C   UNL     1      -7.427   0.450 124.334  0.00  0.00    +0.000 C 
ATOM     15  C   UNL     1      -6.069   4.333 125.417  0.00  0.00    +0.000 A 
ATOM     16  C   UNL     1      -5.169   4.498 126.466  0.00  0.00    +0.000 A 
ATOM     17  C   UNL     1      -4.521   3.407 127.015  0.00  0.00    +0.000 A 
ATOM     18  C   UNL     1      -4.783   2.130 126.523  0.00  0.00    +0.000 A 
ENDROOT
BRANCH   4  19
ATOM     19  O   UNL     1      -8.263  -4.413 124.936  0.00  0.00    +0.000 OA
ATOM     20  H   UNL     1      -7.560  -4.556 125.591  0.00  0.00    +0.000 HD
ENDBRANCH   4  19
BRANCH  16  21
ATOM     21  O   UNL     1      -4.888   5.723 126.994  0.00  0.00    +0.000 OA
ATOM     22  H   UNL     1      -3.925   5.827 127.051  0.00  0.00    +0.000 HD
ENDBRANCH  16  21
TORSDOF 2
ENDMDL
MODEL 7
REMARK VINA RESULT:      -6.9      3.559      6.216
REMARK  Name = Estradiol
REMARK  3 active torsions:
REMARK  status: ('A' for Active; 'I' for Inactive)
REMARK    1  A    between atoms: C_5  and  O_6
REMARK    2  A    between atoms: C_7  and  C_8
REMARK    3  A    between atoms: C_20  and  O_21
REMARK                            x       y       z     vdW  Elec       q    Type
REMARK                         _______ _______ _______ _____ _____    ______ ____
ROOT
ATOM      1  C   UNL     1      -5.120   1.912 126.148  0.00  0.00    +0.000 C 
ATOM      2  C   UNL     1      -4.443   2.076 127.508  0.00  0.00    +0.000 C 
ATOM      3  C   UNL     1      -4.025   3.561 127.538  0.00  0.00    +0.000 C 
ATOM      4  C   UNL     1      -4.703   4.226 126.325  0.00  0.00    +0.000 C 
ATOM      5  C   UNL     1      -5.847   3.261 125.959  0.00  0.00    +0.000 C 
ATOM      6  C   UNL     1      -7.062   3.468 126.899  0.00  0.00    +0.000 C 
ATOM      7  C   UNL     1      -6.306   3.352 124.502  0.00  0.00    +0.000 C 
ATOM      8  C   UNL     1      -7.218   2.175 124.134  0.00  0.00    +0.000 C 
ATOM      9  C   UNL     1      -6.598   0.789 124.447  0.00  0.00    +0.000 C 
ATOM     10  C   UNL     1      -7.526  -0.388 124.164  0.00  0.00    +0.000 A 
ATOM     11  C   UNL     1      -7.355  -1.611 124.845  0.00  0.00    +0.000 A 
ATOM     12  C   UNL     1      -6.292  -1.799 125.906  0.00  0.00    +0.000 C 
ATOM     13  C   UNL     1      -5.320  -0.627 126.069  0.00  0.00    +0.000 C 
ATOM     14  C   UNL     1      -6.042   0.713 125.903  0.00  0.00    +0.000 C 
ATOM     15  C   UNL     1      -8.227  -2.687 124.577  0.00  0.00    +0.000 A 
ATOM     16  C   UNL     1      -9.236  -2.550 123.628  0.00  0.00    +0.000 A 
ATOM     17  C   UNL     1      -9.388  -1.367 122.928  0.00  0.00    +0.000 A 
ATOM     18  C   UNL     1      -8.533  -0.298 123.186  0.00  0.00    +0.000 A 
ENDROOT
BRANCH   4  19
ATOM     19  O   UNL     1      -5.126   5.549 126.598  0.00  0.00    +0.000 OA
ATOM     20  H   UNL     1      -5.416   5.964 125.769  0.00  0.00    +0.000 HD
ENDBRANCH   4  19
BRANCH  16  21
ATOM     21  O   UNL     1     -10.109  -3.560 123.346  0.00  0.00    +0.000 OA
ATOM     22  H   UNL     1     -10.214  -3.625 122.385  0.00  0.00    +0.000 HD
ENDBRANCH  16  21
TORSDOF 2
ENDMDL
MODEL 8
REMARK VINA RESULT:      -6.8      7.831      9.944
REMARK  Name = Estradiol
REMARK  3 active torsions:
REMARK  status: ('A' for Active; 'I' for Inactive)
REMARK    1  A    between atoms: C_5  and  O_6
REMARK    2  A    between atoms: C_7  and  C_8
REMARK    3  A    between atoms: C_20  and  O_21
REMARK                            x       y       z     vdW  Elec       q    Type
REMARK                         _______ _______ _______ _____ _____    ______ ____
ROOT
ATOM      1  C   UNL     1     -11.514   7.683 130.429  0.00  0.00    +0.000 C 
ATOM      2  C   UNL     1     -12.728   7.975 131.309  0.00  0.00    +0.000 C 
ATOM      3  C   UNL     1     -13.372   9.215 130.654  0.00  0.00    +0.000 C 
ATOM      4  C   UNL     1     -12.657   9.412 129.304  0.00  0.00    +0.000 C 
ATOM      5  C   UNL     1     -12.019   8.040 129.014  0.00  0.00    +0.000 C 
ATOM      6  C   UNL     1     -13.070   7.055 128.444  0.00  0.00    +0.000 C 
ATOM      7  C   UNL     1     -10.809   8.094 128.079  0.00  0.00    +0.000 C 
ATOM      8  C   UNL     1     -10.051   6.760 128.077  0.00  0.00    +0.000 C 
ATOM      9  C   UNL     1      -9.651   6.273 129.493  0.00  0.00    +0.000 C 
ATOM     10  C   UNL     1      -8.970   4.908 129.513  0.00  0.00    +0.000 A 
ATOM     11  C   UNL     1      -9.016   4.105 130.672  0.00  0.00    +0.000 A 
ATOM     12  C   UNL     1      -9.768   4.529 131.914  0.00  0.00    +0.000 C 
ATOM     13  C   UNL     1     -10.335   5.951 131.879  0.00  0.00    +0.000 C 
ATOM     14  C   UNL     1     -10.856   6.300 130.482  0.00  0.00    +0.000 C 
ATOM     15  C   UNL     1      -8.387   2.842 130.671  0.00  0.00    +0.000 A 
ATOM     16  C   UNL     1      -7.705   2.400 129.541  0.00  0.00    +0.000 A 
ATOM     17  C   UNL     1      -7.624   3.196 128.413  0.00  0.00    +0.000 A 
ATOM     18  C   UNL     1      -8.241   4.444 128.403  0.00  0.00    +0.000 A 
ENDROOT
BRANCH   4  19
ATOM     19  O   UNL     1     -13.531   9.871 128.289  0.00  0.00    +0.000 OA
ATOM     20  H   UNL     1     -13.647   9.165 127.632  0.00  0.00    +0.000 HD
ENDBRANCH   4  19
BRANCH  16  21
ATOM     21  O   UNL     1      -7.095   1.182 129.493  0.00  0.00    +0.000 OA
ATOM     22  H   UNL     1      -7.048   0.819 130.390  0.00  0.00    +0.000 HD
ENDBRANCH  16  21
TORSDOF 2
ENDMDL
MODEL 9
REMARK VINA RESULT:      -6.7      5.164      8.810
REMARK  Name = Estradiol
REMARK  3 active torsions:
REMARK  status: ('A' for Active; 'I' for Inactive)
REMARK    1  A    between atoms: C_5  and  O_6
REMARK    2  A    between atoms: C_7  and  C_8
REMARK    3  A    between atoms: C_20  and  O_21
REMARK                            x       y       z     vdW  Elec       q    Type
REMARK                         _______ _______ _______ _____ _____    ______ ____
ROOT
ATOM      1  C   UNL     1      -8.748  -2.485 125.836  0.00  0.00    +0.000 C 
ATOM      2  C   UNL     1      -8.744  -3.729 124.949  0.00  0.00    +0.000 C 
ATOM      3  C   UNL     1      -9.086  -3.186 123.546  0.00  0.00    +0.000 C 
ATOM      4  C   UNL     1      -9.013  -1.650 123.647  0.00  0.00    +0.000 C 
ATOM      5  C   UNL     1      -8.165  -1.397 124.908  0.00  0.00    +0.000 C 
ATOM      6  C   UNL     1      -6.656  -1.564 124.599  0.00  0.00    +0.000 C 
ATOM      7  C   UNL     1      -8.405  -0.036 125.566  0.00  0.00    +0.000 C 
ATOM      8  C   UNL     1      -7.769   0.026 126.960  0.00  0.00    +0.000 C 
ATOM      9  C   UNL     1      -8.201  -1.136 127.890  0.00  0.00    +0.000 C 
ATOM     10  C   UNL     1      -7.513  -1.135 129.251  0.00  0.00    +0.000 A 
ATOM     11  C   UNL     1      -7.377  -2.333 129.983  0.00  0.00    +0.000 A 
ATOM     12  C   UNL     1      -7.856  -3.663 129.444  0.00  0.00    +0.000 C 
ATOM     13  C   UNL     1      -8.638  -3.590 128.130  0.00  0.00    +0.000 C 
ATOM     14  C   UNL     1      -8.048  -2.526 127.199  0.00  0.00    +0.000 C 
ATOM     15  C   UNL     1      -6.730  -2.314 131.237  0.00  0.00    +0.000 A 
ATOM     16  C   UNL     1      -6.250  -1.117 131.760  0.00  0.00    +0.000 A 
ATOM     17  C   UNL     1      -6.412   0.068 131.067  0.00  0.00    +0.000 A 
ATOM     18  C   UNL     1      -7.048   0.061 129.828  0.00  0.00    +0.000 A 
ENDROOT
BRANCH   4  19
ATOM     19  O   UNL     1      -8.495  -1.053 122.472  0.00  0.00    +0.000 OA
ATOM     20  H   UNL     1      -8.674  -1.637 121.717  0.00  0.00    +0.000 HD
ENDBRANCH   4  19
BRANCH  16  21
ATOM     21  O   UNL     1      -5.609  -1.056 132.962  0.00  0.00    +0.000 OA
ATOM     22  H   UNL     1      -4.723  -0.686 132.826  0.00  0.00    +0.000 HD
ENDBRANCH  16  21
TORSDOF 2
ENDMDL
