MODEL 1
REMARK VINA RESULT:      -8.3      0.000      0.000
REMARK  Name = Estrone
REMARK  2 active torsions:
REMARK  status: ('A' for Active; 'I' for Inactive)
REMARK    1  A    between atoms: C_7  and  C_8
REMARK    2  A    between atoms: C_20  and  O_21
REMARK                            x       y       z     vdW  Elec       q    Type
REMARK                         _______ _______ _______ _____ _____    ______ ____
ROOT
ATOM      1  C   UNL     1      -6.932   2.041 124.948  0.00  0.00    +0.000 C 
ATOM      2  C   UNL     1      -7.352   3.137 125.819  0.00  0.00    +0.000 C 
ATOM      3  C   UNL     1      -8.300   3.179 124.684  0.00  0.00    +0.000 C 
ATOM      4  C   UNL     1      -7.871   1.486 123.854  0.00  0.00    +0.000 C 
ATOM      5  O   UNL     1      -7.410   0.734 122.987  0.00  0.00    +0.000 OA
ATOM      6  C   UNL     1      -8.594   1.075 124.823  0.00  0.00    +0.000 C 
ATOM      7  C   UNL     1      -8.793   0.214 125.980  0.00  0.00    +0.000 C 
ATOM      8  C   UNL     1      -9.718   1.520 123.541  0.00  0.00    +0.000 C 
ATOM      9  C   UNL     1      -9.008   2.333 122.105  0.00  0.00    +0.000 C 
ATOM     10  C   UNL     1      -7.725   3.387 122.275  0.00  0.00    +0.000 C 
ATOM     11  C   UNL     1      -7.144   3.967 121.017  0.00  0.00    +0.000 A 
ATOM     12  C   UNL     1      -5.848   4.529 121.009  0.00  0.00    +0.000 A 
ATOM     13  C   UNL     1      -4.912   4.532 122.208  0.00  0.00    +0.000 C 
ATOM     14  C   UNL     1      -5.546   4.158 123.546  0.00  0.00    +0.000 C 
ATOM     15  C   UNL     1      -6.409   2.937 123.328  0.00  0.00    +0.000 C 
ATOM     16  C   UNL     1      -5.379   5.067 119.808  0.00  0.00    +0.000 A 
ATOM     17  C   UNL     1      -6.208   5.103 118.685  0.00  0.00    +0.000 A 
ATOM     18  C   UNL     1      -7.509   4.638 118.728  0.00  0.00    +0.000 A 
ATOM     19  C   UNL     1      -7.982   4.086 119.899  0.00  0.00    +0.000 A 
ENDROOT
BRANCH  17  20
ATOM     20  O   UNL     1      -5.770   5.605 117.498  0.00  0.00    +0.000 OA
ATOM     21  H   UNL     1      -4.801   5.579 117.509  0.00  0.00    +0.000 HD
ENDBRANCH  17  20
TORSDOF 1
ENDMDL
MODEL 2
REMARK VINA RESULT:      -8.1      1.323      2.784
REMARK  Name = Estrone
REMARK  2 active torsions:
REMARK  status: ('A' for Active; 'I' for Inactive)
REMARK    1  A    between atoms: C_7  and  C_8
REMARK    2  A    between atoms: C_20  and  O_21
REMARK                            x       y       z     vdW  Elec       q    Type
REMARK                         _______ _______ _______ _____ _____    ______ ____
ROOT
ATOM      1  C   UNL     1      -9.172   2.087 124.729  0.00  0.00    +0.000 C 
ATOM      2  C   UNL     1      -9.118   0.662 124.410  0.00  0.00    +0.000 C 
ATOM      3  C   UNL     1      -7.718   1.124 124.287  0.00  0.00    +0.000 C 
ATOM      4  C   UNL     1      -7.893   2.873 125.096  0.00  0.00    +0.000 C 
ATOM      5  O   UNL     1      -7.930   4.108 125.125  0.00  0.00    +0.000 OA
ATOM      6  C   UNL     1      -7.870   2.149 126.147  0.00  0.00    +0.000 C 
ATOM      7  C   UNL     1      -8.451   1.739 127.417  0.00  0.00    +0.000 C 
ATOM      8  C   UNL     1      -6.183   2.419 125.714  0.00  0.00    +0.000 C 
ATOM      9  C   UNL     1      -5.886   3.243 124.146  0.00  0.00    +0.000 C 
ATOM     10  C   UNL     1      -6.883   2.962 122.837  0.00  0.00    +0.000 C 
ATOM     11  C   UNL     1      -6.609   3.747 121.586  0.00  0.00    +0.000 A 
ATOM     12  C   UNL     1      -7.598   3.888 120.587  0.00  0.00    +0.000 A 
ATOM     13  C   UNL     1      -9.015   3.348 120.707  0.00  0.00    +0.000 C 
ATOM     14  C   UNL     1      -9.256   2.366 121.851  0.00  0.00    +0.000 C 
ATOM     15  C   UNL     1      -8.608   2.930 123.095  0.00  0.00    +0.000 C 
ATOM     16  C   UNL     1      -7.266   4.615 119.441  0.00  0.00    +0.000 A 
ATOM     17  C   UNL     1      -5.973   5.114 119.277  0.00  0.00    +0.000 A 
ATOM     18  C   UNL     1      -4.983   4.890 120.216  0.00  0.00    +0.000 A 
ATOM     19  C   UNL     1      -5.297   4.191 121.362  0.00  0.00    +0.000 A 
ENDROOT
BRANCH  17  20
ATOM     20  O   UNL     1      -5.629   5.842 118.179  0.00  0.00    +0.000 OA
ATOM     21  H   UNL     1      -6.173   5.531 117.440  0.00  0.00    +0.000 HD
ENDBRANCH  17  20
TORSDOF 1
ENDMDL
MODEL 3
REMARK VINA RESULT:      -7.9      8.834     10.544
REMARK  Name = Estrone
REMARK  2 active torsions:
REMARK  status: ('A' for Active; 'I' for Inactive)
REMARK    1  A    between atoms: C_7  and  C_8
REMARK    2  A    between atoms: C_20  and  O_21
REMARK                            x       y       z     vdW  Elec       q    Type
REMARK                         _______ _______ _______ _____ _____    ______ ____
ROOT
ATOM      1  C   UNL     1     -12.711   6.581 130.094  0.00  0.00    +0.000 C 
ATOM      2  C   UNL     1     -13.252   7.662 130.917  0.00  0.00    +0.000 C 
ATOM      3  C   UNL     1     -12.027   8.231 130.313  0.00  0.00    +0.000 C 
ATOM      4  C   UNL     1     -11.662   6.862 128.996  0.00  0.00    +0.000 C 
ATOM      5  O   UNL     1     -11.052   5.915 128.485  0.00  0.00    +0.000 OA
ATOM      6  C   UNL     1     -12.599   7.492 128.400  0.00  0.00    +0.000 C 
ATOM      7  C   UNL     1     -13.887   7.502 127.720  0.00  0.00    +0.000 C 
ATOM      8  C   UNL     1     -11.120   8.373 128.027  0.00  0.00    +0.000 C 
ATOM      9  C   UNL     1      -9.638   7.845 128.895  0.00  0.00    +0.000 C 
ATOM     10  C   UNL     1      -9.725   7.307 130.473  0.00  0.00    +0.000 C 
ATOM     11  C   UNL     1      -8.452   6.815 131.100  0.00  0.00    +0.000 A 
ATOM     12  C   UNL     1      -8.480   5.988 132.245  0.00  0.00    +0.000 A 
ATOM     13  C   UNL     1      -9.755   5.465 132.889  0.00  0.00    +0.000 C 
ATOM     14  C   UNL     1     -11.052   6.120 132.419  0.00  0.00    +0.000 C 
ATOM     15  C   UNL     1     -11.009   6.210 130.910  0.00  0.00    +0.000 C 
ATOM     16  C   UNL     1      -7.257   5.585 132.786  0.00  0.00    +0.000 A 
ATOM     17  C   UNL     1      -6.060   6.053 132.241  0.00  0.00    +0.000 A 
ATOM     18  C   UNL     1      -6.043   6.939 131.180  0.00  0.00    +0.000 A 
ATOM     19  C   UNL     1      -7.240   7.333 130.621  0.00  0.00    +0.000 A 
ENDROOT
BRANCH  17  20
ATOM     20  O   UNL     1      -4.855   5.660 132.737  0.00  0.00    +0.000 OA
ATOM     21  H   UNL     1      -4.418   5.125 132.058  0.00  0.00    +0.000 HD
ENDBRANCH  17  20
TORSDOF 1
ENDMDL
MODEL 4
REMARK VINA RESULT:      -7.5      5.338      9.061
REMARK  Name = Estrone
REMARK  2 active torsions:
REMARK  status: ('A' for Active; 'I' for Inactive)
REMARK    1  A    between atoms: C_7  and  C_8
REMARK    2  A    between atoms: C_20  and  O_21
REMARK                            x       y       z     vdW  Elec       q    Type
REMARK                         _______ _______ _______ _____ _____    ______ ____
ROOT
ATOM      1  C   UNL     1      -7.550  -3.179 124.507  0.00  0.00    +0.000 C 
ATOM      2  C   UNL     1      -8.927  -2.971 124.063  0.00  0.00    +0.000 C 
ATOM      3  C   UNL     1      -8.540  -1.687 124.684  0.00  0.00    +0.000 C 
ATOM      4  C   UNL     1      -6.636  -1.983 124.858  0.00  0.00    +0.000 C 
ATOM      5  O   UNL     1      -5.572  -2.190 125.453  0.00  0.00    +0.000 OA
ATOM      6  C   UNL     1      -6.699  -1.698 123.616  0.00  0.00    +0.000 C 
ATOM      7  C   UNL     1      -6.406  -2.017 122.225  0.00  0.00    +0.000 C 
ATOM      8  C   UNL     1      -6.626  -0.152 124.457  0.00  0.00    +0.000 C 
ATOM      9  C   UNL     1      -6.736  -0.215 126.249  0.00  0.00    +0.000 C 
ATOM     10  C   UNL     1      -7.703  -1.349 127.001  0.00  0.00    +0.000 C 
ATOM     11  C   UNL     1      -7.681  -1.382 128.502  0.00  0.00    +0.000 A 
ATOM     12  C   UNL     1      -8.127  -2.520 129.210  0.00  0.00    +0.000 A 
ATOM     13  C   UNL     1      -8.582  -3.812 128.548  0.00  0.00    +0.000 C 
ATOM     14  C   UNL     1      -8.828  -3.735 127.043  0.00  0.00    +0.000 C 
ATOM     15  C   UNL     1      -7.668  -2.993 126.418  0.00  0.00    +0.000 C 
ATOM     16  C   UNL     1      -8.097  -2.472 130.606  0.00  0.00    +0.000 A 
ATOM     17  C   UNL     1      -7.704  -1.302 131.258  0.00  0.00    +0.000 A 
ATOM     18  C   UNL     1      -7.360  -0.160 130.559  0.00  0.00    +0.000 A 
ATOM     19  C   UNL     1      -7.367  -0.195 129.181  0.00  0.00    +0.000 A 
ENDROOT
BRANCH  17  20
ATOM     20  O   UNL     1      -7.647  -1.235 132.617  0.00  0.00    +0.000 OA
ATOM     21  H   UNL     1      -8.403  -1.731 132.967  0.00  0.00    +0.000 HD
ENDBRANCH  17  20
TORSDOF 1
ENDMDL
MODEL 5
REMARK VINA RESULT:      -7.5      8.869     10.508
REMARK  Name = Estrone
REMARK  2 active torsions:
REMARK  status: ('A' for Active; 'I' for Inactive)
REMARK    1  A    between atoms: C_7  and  C_8
REMARK    2  A    between atoms: C_20  and  O_21
REMARK                            x       y       z     vdW  Elec       q    Type
REMARK                         _______ _______ _______ _____ _____    ______ ____
ROOT
ATOM      1  C   UNL     1     -11.132   8.591 129.380  0.00  0.00    +0.000 C 
ATOM      2  C   UNL     1     -10.427   8.614 128.100  0.00  0.00    +0.000 C 
ATOM      3  C   UNL     1     -11.038   7.269 128.164  0.00  0.00    +0.000 C 
ATOM      4  C   UNL     1     -12.216   7.531 129.675  0.00  0.00    +0.000 C 
ATOM      5  O   UNL     1     -12.620   7.386 130.835  0.00  0.00    +0.000 OA
ATOM      6  C   UNL     1     -12.895   8.116 128.767  0.00  0.00    +0.000 C 
ATOM      7  C   UNL     1     -13.616   9.281 128.274  0.00  0.00    +0.000 C 
ATOM      8  C   UNL     1     -13.296   6.405 128.636  0.00  0.00    +0.000 C 
ATOM      9  C   UNL     1     -12.337   5.282 129.659  0.00  0.00    +0.000 C 
ATOM     10  C   UNL     1     -10.721   5.578 129.958  0.00  0.00    +0.000 C 
ATOM     11  C   UNL     1     -10.011   4.630 130.883  0.00  0.00    +0.000 A 
ATOM     12  C   UNL     1      -8.799   4.999 131.507  0.00  0.00    +0.000 A 
ATOM     13  C   UNL     1      -8.154   6.370 131.377  0.00  0.00    +0.000 C 
ATOM     14  C   UNL     1      -8.722   7.269 130.280  0.00  0.00    +0.000 C 
ATOM     15  C   UNL     1     -10.230   7.203 130.359  0.00  0.00    +0.000 C 
ATOM     16  C   UNL     1      -8.184   4.060 132.339  0.00  0.00    +0.000 A 
ATOM     17  C   UNL     1      -8.729   2.782 132.477  0.00  0.00    +0.000 A 
ATOM     18  C   UNL     1      -9.863   2.397 131.787  0.00  0.00    +0.000 A 
ATOM     19  C   UNL     1     -10.494   3.317 130.976  0.00  0.00    +0.000 A 
ENDROOT
BRANCH  17  20
ATOM     20  O   UNL     1      -8.160   1.855 133.296  0.00  0.00    +0.000 OA
ATOM     21  H   UNL     1      -7.781   2.326 134.053  0.00  0.00    +0.000 HD
ENDBRANCH  17  20
TORSDOF 1
ENDMDL
MODEL 6
REMARK VINA RESULT:      -7.4      8.969      9.424
REMARK  Name = Estrone
REMARK  2 active torsions:
REMARK  status: ('A' for Active; 'I' for Inactive)
REMARK    1  A    between atoms: C_7  and  C_8
REMARK    2  A    between atoms: C_20  and  O_21
REMARK                            x       y       z     vdW  Elec       q    Type
REMARK                         _______ _______ _______ _____ _____    ______ ____
ROOT
ATOM      1  C   UNL     1      -7.275   3.167 132.448  0.00  0.00    +0.000 C 
ATOM      2  C   UNL     1      -7.530   3.502 133.848  0.00  0.00    +0.000 C 
ATOM      3  C   UNL     1      -8.874   3.319 133.257  0.00  0.00    +0.000 C 
ATOM      4  C   UNL     1      -8.370   2.524 131.568  0.00  0.00    +0.000 C 
ATOM      5  O   UNL     1      -8.209   2.473 130.343  0.00  0.00    +0.000 OA
ATOM      6  C   UNL     1      -8.247   1.508 132.331  0.00  0.00    +0.000 C 
ATOM      7  C   UNL     1      -7.459   0.397 132.846  0.00  0.00    +0.000 C 
ATOM      8  C   UNL     1      -9.952   1.574 131.894  0.00  0.00    +0.000 C 
ATOM      9  C   UNL     1     -10.484   3.026 130.979  0.00  0.00    +0.000 C 
ATOM     10  C   UNL     1      -9.808   4.520 131.291  0.00  0.00    +0.000 C 
ATOM     11  C   UNL     1     -10.256   5.667 130.432  0.00  0.00    +0.000 A 
ATOM     12  C   UNL     1      -9.484   6.847 130.337  0.00  0.00    +0.000 A 
ATOM     13  C   UNL     1      -8.131   7.037 131.005  0.00  0.00    +0.000 C 
ATOM     14  C   UNL     1      -7.757   5.992 132.054  0.00  0.00    +0.000 C 
ATOM     15  C   UNL     1      -8.079   4.628 131.488  0.00  0.00    +0.000 C 
ATOM     16  C   UNL     1      -9.973   7.881 129.535  0.00  0.00    +0.000 A 
ATOM     17  C   UNL     1     -11.218   7.760 128.915  0.00  0.00    +0.000 A 
ATOM     18  C   UNL     1     -12.011   6.641 129.091  0.00  0.00    +0.000 A 
ATOM     19  C   UNL     1     -11.537   5.603 129.864  0.00  0.00    +0.000 A 
ENDROOT
BRANCH  17  20
ATOM     20  O   UNL     1     -11.708   8.745 128.113  0.00  0.00    +0.000 OA
ATOM     21  H   UNL     1     -11.436   8.545 127.205  0.00  0.00    +0.000 HD
ENDBRANCH  17  20
TORSDOF 1
ENDMDL
MODEL 7
REMARK VINA RESULT:      -7.3      5.519      8.960
REMARK  Name = Estrone
REMARK  2 active torsions:
REMARK  status: ('A' for Active; 'I' for Inactive)
REMARK    1  A    between atoms: C_7  and  C_8
REMARK    2  A    between atoms: C_20  and  O_21
REMARK                            x       y       z     vdW  Elec       q    Type
REMARK                         _______ _______ _______ _____ _____    ______ ____
ROOT
ATOM      1  C   UNL     1      -8.430  -0.774 124.644  0.00  0.00    +0.000 C 
ATOM      2  C   UNL     1      -7.061  -0.563 124.176  0.00  0.00    +0.000 C 
ATOM      3  C   UNL     1      -7.000  -1.821 124.953  0.00  0.00    +0.000 C 
ATOM      4  C   UNL     1      -8.894  -2.154 125.160  0.00  0.00    +0.000 C 
ATOM      5  O   UNL     1      -9.969  -2.243 125.766  0.00  0.00    +0.000 OA
ATOM      6  C   UNL     1      -8.735  -2.547 123.957  0.00  0.00    +0.000 C 
ATOM      7  C   UNL     1      -9.113  -2.512 122.551  0.00  0.00    +0.000 C 
ATOM      8  C   UNL     1      -8.292  -3.918 124.970  0.00  0.00    +0.000 C 
ATOM      9  C   UNL     1      -8.216  -3.610 126.739  0.00  0.00    +0.000 C 
ATOM     10  C   UNL     1      -7.684  -2.138 127.321  0.00  0.00    +0.000 C 
ATOM     11  C   UNL     1      -7.722  -1.937 128.809  0.00  0.00    +0.000 A 
ATOM     12  C   UNL     1      -7.684  -0.639 129.366  0.00  0.00    +0.000 A 
ATOM     13  C   UNL     1      -7.683   0.642 128.547  0.00  0.00    +0.000 C 
ATOM     14  C   UNL     1      -7.421   0.473 127.052  0.00  0.00    +0.000 C 
ATOM     15  C   UNL     1      -8.265  -0.681 126.558  0.00  0.00    +0.000 C 
ATOM     16  C   UNL     1      -7.701  -0.529 130.759  0.00  0.00    +0.000 A 
ATOM     17  C   UNL     1      -7.684  -1.676 131.554  0.00  0.00    +0.000 A 
ATOM     18  C   UNL     1      -7.624  -2.942 131.002  0.00  0.00    +0.000 A 
ATOM     19  C   UNL     1      -7.625  -3.071 129.629  0.00  0.00    +0.000 A 
ENDROOT
BRANCH  17  20
ATOM     20  O   UNL     1      -7.720  -1.596 132.912  0.00  0.00    +0.000 OA
ATOM     21  H   UNL     1      -6.842  -1.316 133.213  0.00  0.00    +0.000 HD
ENDBRANCH  17  20
TORSDOF 1
ENDMDL
MODEL 8
REMARK VINA RESULT:      -7.3      3.607      5.325
REMARK  Name = Estrone
REMARK  2 active torsions:
REMARK  status: ('A' for Active; 'I' for Inactive)
REMARK    1  A    between atoms: C_7  and  C_8
REMARK    2  A    between atoms: C_20  and  O_21
REMARK                            x       y       z     vdW  Elec       q    Type
REMARK                         _______ _______ _______ _____ _____    ______ ____
ROOT
ATOM      1  C   UNL     1      -8.940  -2.219 124.162  0.00  0.00    +0.000 C 
ATOM      2  C   UNL     1      -8.755  -2.477 122.735  0.00  0.00    +0.000 C 
ATOM      3  C   UNL     1      -7.450  -1.950 123.190  0.00  0.00    +0.000 C 
ATOM      4  C   UNL     1      -7.729  -2.030 125.102  0.00  0.00    +0.000 C 
ATOM      5  O   UNL     1      -7.912  -1.581 126.240  0.00  0.00    +0.000 OA
ATOM      6  C   UNL     1      -7.480  -3.260 124.868  0.00  0.00    +0.000 C 
ATOM      7  C   UNL     1      -7.837  -4.667 124.972  0.00  0.00    +0.000 C 
ATOM      8  C   UNL     1      -5.911  -2.479 125.039  0.00  0.00    +0.000 C 
ATOM      9  C   UNL     1      -5.923  -0.687 125.175  0.00  0.00    +0.000 C 
ATOM     10  C   UNL     1      -7.041   0.221 124.331  0.00  0.00    +0.000 C 
ATOM     11  C   UNL     1      -7.030   1.705 124.559  0.00  0.00    +0.000 A 
ATOM     12  C   UNL     1      -8.151   2.498 124.225  0.00  0.00    +0.000 A 
ATOM     13  C   UNL     1      -9.464   1.940 123.698  0.00  0.00    +0.000 C 
ATOM     14  C   UNL     1      -9.432   0.481 123.248  0.00  0.00    +0.000 C 
ATOM     15  C   UNL     1      -8.701  -0.316 124.305  0.00  0.00    +0.000 C 
ATOM     16  C   UNL     1      -8.062   3.875 124.445  0.00  0.00    +0.000 A 
ATOM     17  C   UNL     1      -6.872   4.435 124.912  0.00  0.00    +0.000 A 
ATOM     18  C   UNL     1      -5.748   3.665 125.144  0.00  0.00    +0.000 A 
ATOM     19  C   UNL     1      -5.823   2.302 124.950  0.00  0.00    +0.000 A 
ENDROOT
BRANCH  17  20
ATOM     20  O   UNL     1      -6.765   5.771 125.153  0.00  0.00    +0.000 OA
ATOM     21  H   UNL     1      -7.630   6.083 125.460  0.00  0.00    +0.000 HD
ENDBRANCH  17  20
TORSDOF 1
ENDMDL
MODEL 9
REMARK VINA RESULT:      -7.2      5.957      8.734
REMARK  Name = Estrone
REMARK  2 active torsions:
REMARK  status: ('A' for Active; 'I' for Inactive)
REMARK    1  A    between atoms: C_7  and  C_8
REMARK    2  A    between atoms: C_20  and  O_21
REMARK                            x       y       z     vdW  Elec       q    Type
REMARK                         _______ _______ _______ _____ _____    ______ ____
ROOT
ATOM      1  C   UNL     1      -6.743  -2.904 130.905  0.00  0.00    +0.000 C 
ATOM      2  C   UNL     1      -6.005  -4.166 130.863  0.00  0.00    +0.000 C 
ATOM      3  C   UNL     1      -5.405  -3.347 129.787  0.00  0.00    +0.000 C 
ATOM      4  C   UNL     1      -6.193  -1.634 130.219  0.00  0.00    +0.000 C 
ATOM      5  O   UNL     1      -6.938  -0.659 130.065  0.00  0.00    +0.000 OA
ATOM      6  C   UNL     1      -5.271  -1.677 131.100  0.00  0.00    +0.000 C 
ATOM      7  C   UNL     1      -4.838  -1.588 132.487  0.00  0.00    +0.000 C 
ATOM      8  C   UNL     1      -4.507  -1.059 129.639  0.00  0.00    +0.000 C 
ATOM      9  C   UNL     1      -5.509  -1.073 128.148  0.00  0.00    +0.000 C 
ATOM     10  C   UNL     1      -6.599  -2.307 127.870  0.00  0.00    +0.000 C 
ATOM     11  C   UNL     1      -7.450  -2.205 126.637  0.00  0.00    +0.000 A 
ATOM     12  C   UNL     1      -8.644  -2.951 126.516  0.00  0.00    +0.000 A 
ATOM     13  C   UNL     1      -9.211  -3.837 127.614  0.00  0.00    +0.000 C 
ATOM     14  C   UNL     1      -8.269  -4.136 128.778  0.00  0.00    +0.000 C 
ATOM     15  C   UNL     1      -7.610  -2.839 129.189  0.00  0.00    +0.000 C 
ATOM     16  C   UNL     1      -9.375  -2.821 125.332  0.00  0.00    +0.000 A 
ATOM     17  C   UNL     1      -8.886  -2.033 124.289  0.00  0.00    +0.000 A 
ATOM     18  C   UNL     1      -7.669  -1.383 124.378  0.00  0.00    +0.000 A 
ATOM     19  C   UNL     1      -6.943  -1.484 125.546  0.00  0.00    +0.000 A 
ENDROOT
BRANCH  17  20
ATOM     20  O   UNL     1      -9.587  -1.875 123.133  0.00  0.00    +0.000 OA
ATOM     21  H   UNL     1      -9.198  -1.128 122.654  0.00  0.00    +0.000 HD
ENDBRANCH  17  20
TORSDOF 1
ENDMDL
