MODEL 1
REMARK VINA RESULT:      -9.0      0.000      0.000
REMARK  Name = Estradiol cypionate
REMARK  7 active torsions:
REMARK  status: ('A' for Active; 'I' for Inactive)
REMARK    1  A    between atoms: C_2  and  O_24
REMARK    2  A    between atoms: C_13  and  O_14
REMARK    3  A    between atoms: C_22  and  C_23
REMARK    4  A    between atoms: O_24  and  C_25
REMARK    5  A    between atoms: C_25  and  C_27
REMARK    6  A    between atoms: C_27  and  C_28
REMARK    7  A    between atoms: C_28  and  C_29
REMARK                            x       y       z     vdW  Elec       q    Type
REMARK                         _______ _______ _______ _____ _____    ______ ____
ROOT
ATOM      1  C   UNL     1      -8.337   1.049 125.991  0.00  0.00    +0.000 C 
ATOM      2  C   UNL     1      -9.836   0.883 125.671  0.00  0.00    +0.000 C 
ATOM      3  C   UNL     1     -10.059   1.537 124.293  0.00  0.00    +0.000 C 
ATOM      4  C   UNL     1      -8.646   1.810 123.786  0.00  0.00    +0.000 C 
ATOM      5  C   UNL     1      -8.418   2.819 122.662  0.00  0.00    +0.000 C 
ATOM      6  C   UNL     1      -9.197   2.469 121.395  0.00  0.00    +0.000 C 
ATOM      7  C   UNL     1      -9.020   3.567 120.349  0.00  0.00    +0.000 C 
ATOM      8  C   UNL     1      -7.603   4.068 120.207  0.00  0.00    +0.000 A 
ATOM      9  C   UNL     1      -7.311   4.913 119.122  0.00  0.00    +0.000 A 
ATOM     10  C   UNL     1      -6.033   5.436 118.965  0.00  0.00    +0.000 A 
ATOM     11  C   UNL     1      -5.029   5.120 119.864  0.00  0.00    +0.000 A 
ATOM     12  C   UNL     1      -5.306   4.278 120.939  0.00  0.00    +0.000 A 
ATOM     13  C   UNL     1      -6.599   3.766 121.151  0.00  0.00    +0.000 A 
ATOM     14  C   UNL     1      -6.895   2.845 122.327  0.00  0.00    +0.000 C 
ATOM     15  C   UNL     1      -6.053   3.134 123.596  0.00  0.00    +0.000 C 
ATOM     16  C   UNL     1      -6.385   2.195 124.763  0.00  0.00    +0.000 C 
ATOM     17  C   UNL     1      -7.886   2.195 125.070  0.00  0.00    +0.000 C 
ATOM     18  C   UNL     1      -8.292   3.562 125.674  0.00  0.00    +0.000 C 
ENDROOT
BRANCH  10  19
ATOM     19  O   UNL     1      -5.724   6.267 117.930  0.00  0.00    +0.000 OA
ATOM     20  H   UNL     1      -5.789   7.183 118.242  0.00  0.00    +0.000 HD
ENDBRANCH  10  19
BRANCH   1  21
ATOM     21  O   UNL     1      -8.134   1.380 127.377  0.00  0.00    +0.000 OA
BRANCH  21  22
ATOM     22  C   UNL     1      -7.704   0.503 128.317  0.00  0.00    +0.000 C 
ATOM     23  O   UNL     1      -7.849   0.731 129.515  0.00  0.00    +0.000 OA
BRANCH  22  24
ATOM     24  C   UNL     1      -7.033  -0.733 127.799  0.00  0.00    +0.000 C 
BRANCH  24  25
ATOM     25  C   UNL     1      -7.895  -1.991 127.911  0.00  0.00    +0.000 C 
BRANCH  25  26
ATOM     26  C   UNL     1      -7.967  -2.782 126.601  0.00  0.00    +0.000 C 
ATOM     27  C   UNL     1      -9.370  -2.833 125.996  0.00  0.00    +0.000 C 
ATOM     28  C   UNL     1      -9.140  -3.215 124.543  0.00  0.00    +0.000 C 
ATOM     29  C   UNL     1      -7.752  -2.693 124.180  0.00  0.00    +0.000 C 
ATOM     30  C   UNL     1      -7.123  -2.190 125.471  0.00  0.00    +0.000 C 
ENDBRANCH  25  26
ENDBRANCH  24  25
ENDBRANCH  22  24
ENDBRANCH  21  22
ENDBRANCH   1  21
TORSDOF 6
ENDMDL
MODEL 2
REMARK VINA RESULT:      -8.7      0.743      1.278
REMARK  Name = Estradiol cypionate
REMARK  7 active torsions:
REMARK  status: ('A' for Active; 'I' for Inactive)
REMARK    1  A    between atoms: C_2  and  O_24
REMARK    2  A    between atoms: C_13  and  O_14
REMARK    3  A    between atoms: C_22  and  C_23
REMARK    4  A    between atoms: O_24  and  C_25
REMARK    5  A    between atoms: C_25  and  C_27
REMARK    6  A    between atoms: C_27  and  C_28
REMARK    7  A    between atoms: C_28  and  C_29
REMARK                            x       y       z     vdW  Elec       q    Type
REMARK                         _______ _______ _______ _____ _____    ______ ____
ROOT
ATOM      1  C   UNL     1      -8.192   1.215 126.105  0.00  0.00    +0.000 C 
ATOM      2  C   UNL     1      -9.686   0.989 125.798  0.00  0.00    +0.000 C 
ATOM      3  C   UNL     1      -9.936   1.587 124.399  0.00  0.00    +0.000 C 
ATOM      4  C   UNL     1      -8.534   1.888 123.876  0.00  0.00    +0.000 C 
ATOM      5  C   UNL     1      -8.343   2.865 122.717  0.00  0.00    +0.000 C 
ATOM      6  C   UNL     1      -9.115   2.447 121.466  0.00  0.00    +0.000 C 
ATOM      7  C   UNL     1      -8.978   3.513 120.383  0.00  0.00    +0.000 C 
ATOM      8  C   UNL     1      -7.579   4.055 120.217  0.00  0.00    +0.000 A 
ATOM      9  C   UNL     1      -7.318   4.870 119.101  0.00  0.00    +0.000 A 
ATOM     10  C   UNL     1      -6.059   5.429 118.920  0.00  0.00    +0.000 A 
ATOM     11  C   UNL     1      -5.042   5.177 119.825  0.00  0.00    +0.000 A 
ATOM     12  C   UNL     1      -5.288   4.364 120.930  0.00  0.00    +0.000 A 
ATOM     13  C   UNL     1      -6.562   3.818 121.166  0.00  0.00    +0.000 A 
ATOM     14  C   UNL     1      -6.823   2.929 122.374  0.00  0.00    +0.000 C 
ATOM     15  C   UNL     1      -5.987   3.290 123.628  0.00  0.00    +0.000 C 
ATOM     16  C   UNL     1      -6.283   2.381 124.828  0.00  0.00    +0.000 C 
ATOM     17  C   UNL     1      -7.782   2.343 125.142  0.00  0.00    +0.000 C 
ATOM     18  C   UNL     1      -8.230   3.715 125.700  0.00  0.00    +0.000 C 
ENDROOT
BRANCH  10  19
ATOM     19  O   UNL     1      -5.782   6.234 117.856  0.00  0.00    +0.000 OA
ATOM     20  H   UNL     1      -5.075   5.823 117.335  0.00  0.00    +0.000 HD
ENDBRANCH  10  19
BRANCH   1  21
ATOM     21  O   UNL     1      -7.995   1.600 127.477  0.00  0.00    +0.000 OA
BRANCH  21  22
ATOM     22  C   UNL     1      -7.103   1.016 128.315  0.00  0.00    +0.000 C 
ATOM     23  O   UNL     1      -7.087   1.281 129.514  0.00  0.00    +0.000 OA
BRANCH  22  24
ATOM     24  C   UNL     1      -6.144   0.055 127.680  0.00  0.00    +0.000 C 
BRANCH  24  25
ATOM     25  C   UNL     1      -6.277  -1.377 128.200  0.00  0.00    +0.000 C 
BRANCH  25  26
ATOM     26  C   UNL     1      -7.673  -1.967 127.970  0.00  0.00    +0.000 C 
ATOM     27  C   UNL     1      -7.903  -2.449 126.539  0.00  0.00    +0.000 C 
ATOM     28  C   UNL     1      -9.091  -3.389 126.645  0.00  0.00    +0.000 C 
ATOM     29  C   UNL     1      -9.053  -3.966 128.058  0.00  0.00    +0.000 C 
ATOM     30  C   UNL     1      -7.965  -3.212 128.808  0.00  0.00    +0.000 C 
ENDBRANCH  25  26
ENDBRANCH  24  25
ENDBRANCH  22  24
ENDBRANCH  21  22
ENDBRANCH   1  21
TORSDOF 6
ENDMDL
MODEL 3
REMARK VINA RESULT:      -8.6      3.480      5.246
REMARK  Name = Estradiol cypionate
REMARK  7 active torsions:
REMARK  status: ('A' for Active; 'I' for Inactive)
REMARK    1  A    between atoms: C_2  and  O_24
REMARK    2  A    between atoms: C_13  and  O_14
REMARK    3  A    between atoms: C_22  and  C_23
REMARK    4  A    between atoms: O_24  and  C_25
REMARK    5  A    between atoms: C_25  and  C_27
REMARK    6  A    between atoms: C_27  and  C_28
REMARK    7  A    between atoms: C_28  and  C_29
REMARK                            x       y       z     vdW  Elec       q    Type
REMARK                         _______ _______ _______ _____ _____    ______ ____
ROOT
ATOM      1  C   UNL     1      -8.656  -0.216 123.820  0.00  0.00    +0.000 C 
ATOM      2  C   UNL     1      -9.635   0.864 123.318  0.00  0.00    +0.000 C 
ATOM      3  C   UNL     1      -9.049   2.220 123.762  0.00  0.00    +0.000 C 
ATOM      4  C   UNL     1      -7.652   1.867 124.262  0.00  0.00    +0.000 C 
ATOM      5  C   UNL     1      -6.897   2.835 125.171  0.00  0.00    +0.000 C 
ATOM      6  C   UNL     1      -6.718   4.213 124.537  0.00  0.00    +0.000 C 
ATOM      7  C   UNL     1      -6.060   5.167 125.530  0.00  0.00    +0.000 C 
ATOM      8  C   UNL     1      -4.901   4.570 126.292  0.00  0.00    +0.000 A 
ATOM      9  C   UNL     1      -4.102   5.438 127.058  0.00  0.00    +0.000 A 
ATOM     10  C   UNL     1      -3.047   4.937 127.811  0.00  0.00    +0.000 A 
ATOM     11  C   UNL     1      -2.760   3.583 127.804  0.00  0.00    +0.000 A 
ATOM     12  C   UNL     1      -3.542   2.716 127.043  0.00  0.00    +0.000 A 
ATOM     13  C   UNL     1      -4.642   3.183 126.303  0.00  0.00    +0.000 A 
ATOM     14  C   UNL     1      -5.491   2.231 125.472  0.00  0.00    +0.000 C 
ATOM     15  C   UNL     1      -5.615   0.803 126.061  0.00  0.00    +0.000 C 
ATOM     16  C   UNL     1      -6.485  -0.126 125.204  0.00  0.00    +0.000 C 
ATOM     17  C   UNL     1      -7.860   0.493 124.930  0.00  0.00    +0.000 C 
ATOM     18  C   UNL     1      -8.682   0.531 126.241  0.00  0.00    +0.000 C 
ENDROOT
BRANCH  10  19
ATOM     19  O   UNL     1      -2.265   5.752 128.573  0.00  0.00    +0.000 OA
ATOM     20  H   UNL     1      -1.335   5.563 128.371  0.00  0.00    +0.000 HD
ENDBRANCH  10  19
BRANCH   1  21
ATOM     21  O   UNL     1      -9.361  -1.361 124.331  0.00  0.00    +0.000 OA
BRANCH  21  22
ATOM     22  C   UNL     1      -9.020  -2.647 124.072  0.00  0.00    +0.000 C 
ATOM     23  O   UNL     1      -9.394  -3.210 123.046  0.00  0.00    +0.000 OA
BRANCH  22  24
ATOM     24  C   UNL     1      -8.186  -3.325 125.116  0.00  0.00    +0.000 C 
BRANCH  24  25
ATOM     25  C   UNL     1      -8.932  -3.579 126.427  0.00  0.00    +0.000 C 
BRANCH  25  26
ATOM     26  C   UNL     1      -8.370  -2.766 127.598  0.00  0.00    +0.000 C 
ATOM     27  C   UNL     1      -8.554  -3.445 128.955  0.00  0.00    +0.000 C 
ATOM     28  C   UNL     1      -7.552  -2.753 129.862  0.00  0.00    +0.000 C 
ATOM     29  C   UNL     1      -6.414  -2.283 128.959  0.00  0.00    +0.000 C 
ATOM     30  C   UNL     1      -6.860  -2.537 127.527  0.00  0.00    +0.000 C 
ENDBRANCH  25  26
ENDBRANCH  24  25
ENDBRANCH  22  24
ENDBRANCH  21  22
ENDBRANCH   1  21
TORSDOF 6
ENDMDL
MODEL 4
REMARK VINA RESULT:      -8.5      7.337     10.036
REMARK  Name = Estradiol cypionate
REMARK  7 active torsions:
REMARK  status: ('A' for Active; 'I' for Inactive)
REMARK    1  A    between atoms: C_2  and  O_24
REMARK    2  A    between atoms: C_13  and  O_14
REMARK    3  A    between atoms: C_22  and  C_23
REMARK    4  A    between atoms: O_24  and  C_25
REMARK    5  A    between atoms: C_25  and  C_27
REMARK    6  A    between atoms: C_27  and  C_28
REMARK    7  A    between atoms: C_28  and  C_29
REMARK                            x       y       z     vdW  Elec       q    Type
REMARK                         _______ _______ _______ _____ _____    ______ ____
ROOT
ATOM      1  C   UNL     1     -10.382   4.722 131.131  0.00  0.00    +0.000 C 
ATOM      2  C   UNL     1     -10.350   3.277 130.593  0.00  0.00    +0.000 C 
ATOM      3  C   UNL     1      -8.861   2.905 130.442  0.00  0.00    +0.000 C 
ATOM      4  C   UNL     1      -8.127   4.049 131.136  0.00  0.00    +0.000 C 
ATOM      5  C   UNL     1      -6.646   4.291 130.853  0.00  0.00    +0.000 C 
ATOM      6  C   UNL     1      -5.784   3.068 131.160  0.00  0.00    +0.000 C 
ATOM      7  C   UNL     1      -4.336   3.329 130.754  0.00  0.00    +0.000 C 
ATOM      8  C   UNL     1      -3.817   4.692 131.146  0.00  0.00    +0.000 A 
ATOM      9  C   UNL     1      -2.438   4.932 131.011  0.00  0.00    +0.000 A 
ATOM     10  C   UNL     1      -1.911   6.181 131.319  0.00  0.00    +0.000 A 
ATOM     11  C   UNL     1      -2.732   7.197 131.776  0.00  0.00    +0.000 A 
ATOM     12  C   UNL     1      -4.099   6.966 131.920  0.00  0.00    +0.000 A 
ATOM     13  C   UNL     1      -4.671   5.728 131.577  0.00  0.00    +0.000 A 
ATOM     14  C   UNL     1      -6.165   5.482 131.738  0.00  0.00    +0.000 C 
ATOM     15  C   UNL     1      -7.049   6.734 131.510  0.00  0.00    +0.000 C 
ATOM     16  C   UNL     1      -8.548   6.448 131.671  0.00  0.00    +0.000 C 
ATOM     17  C   UNL     1      -8.989   5.277 130.786  0.00  0.00    +0.000 C 
ATOM     18  C   UNL     1      -8.933   5.701 129.298  0.00  0.00    +0.000 C 
ENDROOT
BRANCH  10  19
ATOM     19  O   UNL     1      -0.581   6.447 131.185  0.00  0.00    +0.000 OA
ATOM     20  H   UNL     1      -0.303   7.004 131.929  0.00  0.00    +0.000 HD
ENDBRANCH  10  19
BRANCH   1  21
ATOM     21  O   UNL     1     -11.424   5.489 130.499  0.00  0.00    +0.000 OA
BRANCH  21  22
ATOM     22  C   UNL     1     -12.098   6.501 131.098  0.00  0.00    +0.000 C 
ATOM     23  O   UNL     1     -11.875   6.811 132.265  0.00  0.00    +0.000 OA
BRANCH  22  24
ATOM     24  C   UNL     1     -13.130   7.187 130.255  0.00  0.00    +0.000 C 
BRANCH  24  25
ATOM     25  C   UNL     1     -12.674   8.539 129.707  0.00  0.00    +0.000 C 
BRANCH  25  26
ATOM     26  C   UNL     1     -12.380   8.504 128.204  0.00  0.00    +0.000 C 
ATOM     27  C   UNL     1     -10.906   8.273 127.876  0.00  0.00    +0.000 C 
ATOM     28  C   UNL     1     -10.910   7.806 126.430  0.00  0.00    +0.000 C 
ATOM     29  C   UNL     1     -12.256   7.121 126.208  0.00  0.00    +0.000 C 
ATOM     30  C   UNL     1     -13.084   7.367 127.460  0.00  0.00    +0.000 C 
ENDBRANCH  25  26
ENDBRANCH  24  25
ENDBRANCH  22  24
ENDBRANCH  21  22
ENDBRANCH   1  21
TORSDOF 6
ENDMDL
MODEL 5
REMARK VINA RESULT:      -8.3      5.275      8.744
REMARK  Name = Estradiol cypionate
REMARK  7 active torsions:
REMARK  status: ('A' for Active; 'I' for Inactive)
REMARK    1  A    between atoms: C_2  and  O_24
REMARK    2  A    between atoms: C_13  and  O_14
REMARK    3  A    between atoms: C_22  and  C_23
REMARK    4  A    between atoms: O_24  and  C_25
REMARK    5  A    between atoms: C_25  and  C_27
REMARK    6  A    between atoms: C_27  and  C_28
REMARK    7  A    between atoms: C_28  and  C_29
REMARK                            x       y       z     vdW  Elec       q    Type
REMARK                         _______ _______ _______ _____ _____    ______ ____
ROOT
ATOM      1  C   UNL     1      -6.804   0.134 132.760  0.00  0.00    +0.000 C 
ATOM      2  C   UNL     1      -6.974  -1.209 133.499  0.00  0.00    +0.000 C 
ATOM      3  C   UNL     1      -7.432  -2.231 132.440  0.00  0.00    +0.000 C 
ATOM      4  C   UNL     1      -7.252  -1.491 131.118  0.00  0.00    +0.000 C 
ATOM      5  C   UNL     1      -7.976  -1.978 129.863  0.00  0.00    +0.000 C 
ATOM      6  C   UNL     1      -7.635  -3.427 129.517  0.00  0.00    +0.000 C 
ATOM      7  C   UNL     1      -8.469  -3.893 128.327  0.00  0.00    +0.000 C 
ATOM      8  C   UNL     1      -8.565  -2.889 127.204  0.00  0.00    +0.000 A 
ATOM      9  C   UNL     1      -9.121  -3.318 125.985  0.00  0.00    +0.000 A 
ATOM     10  C   UNL     1      -9.271  -2.425 124.931  0.00  0.00    +0.000 A 
ATOM     11  C   UNL     1      -8.860  -1.109 125.060  0.00  0.00    +0.000 A 
ATOM     12  C   UNL     1      -8.301  -0.676 126.261  0.00  0.00    +0.000 A 
ATOM     13  C   UNL     1      -8.174  -1.542 127.362  0.00  0.00    +0.000 A 
ATOM     14  C   UNL     1      -7.560  -1.064 128.670  0.00  0.00    +0.000 C 
ATOM     15  C   UNL     1      -7.828   0.427 128.996  0.00  0.00    +0.000 C 
ATOM     16  C   UNL     1      -7.204   0.873 130.325  0.00  0.00    +0.000 C 
ATOM     17  C   UNL     1      -7.634  -0.042 131.477  0.00  0.00    +0.000 C 
ATOM     18  C   UNL     1      -9.138   0.173 131.776  0.00  0.00    +0.000 C 
ENDROOT
BRANCH  10  19
ATOM     19  O   UNL     1      -9.819  -2.809 123.744  0.00  0.00    +0.000 OA
ATOM     20  H   UNL     1      -9.207  -3.419 123.305  0.00  0.00    +0.000 HD
ENDBRANCH  10  19
BRANCH   1  21
ATOM     21  O   UNL     1      -7.291   1.231 133.554  0.00  0.00    +0.000 OA
BRANCH  21  22
ATOM     22  C   UNL     1      -6.694   2.445 133.628  0.00  0.00    +0.000 C 
ATOM     23  O   UNL     1      -5.512   2.593 133.330  0.00  0.00    +0.000 OA
BRANCH  22  24
ATOM     24  C   UNL     1      -7.560   3.570 134.109  0.00  0.00    +0.000 C 
BRANCH  24  25
ATOM     25  C   UNL     1      -9.012   3.469 133.643  0.00  0.00    +0.000 C 
BRANCH  25  26
ATOM     26  C   UNL     1      -9.352   4.467 132.532  0.00  0.00    +0.000 C 
ATOM     27  C   UNL     1      -8.754   5.855 132.756  0.00  0.00    +0.000 C 
ATOM     28  C   UNL     1      -8.792   6.508 131.384  0.00  0.00    +0.000 C 
ATOM     29  C   UNL     1      -8.706   5.371 130.369  0.00  0.00    +0.000 C 
ATOM     30  C   UNL     1      -8.811   4.073 131.157  0.00  0.00    +0.000 C 
ENDBRANCH  25  26
ENDBRANCH  24  25
ENDBRANCH  22  24
ENDBRANCH  21  22
ENDBRANCH   1  21
TORSDOF 6
ENDMDL
MODEL 6
REMARK VINA RESULT:      -8.2      2.587      8.900
REMARK  Name = Estradiol cypionate
REMARK  7 active torsions:
REMARK  status: ('A' for Active; 'I' for Inactive)
REMARK    1  A    between atoms: C_2  and  O_24
REMARK    2  A    between atoms: C_13  and  O_14
REMARK    3  A    between atoms: C_22  and  C_23
REMARK    4  A    between atoms: O_24  and  C_25
REMARK    5  A    between atoms: C_25  and  C_27
REMARK    6  A    between atoms: C_27  and  C_28
REMARK    7  A    between atoms: C_28  and  C_29
REMARK                            x       y       z     vdW  Elec       q    Type
REMARK                         _______ _______ _______ _____ _____    ______ ____
ROOT
ATOM      1  C   UNL     1      -9.119  -0.838 124.613  0.00  0.00    +0.000 C 
ATOM      2  C   UNL     1      -9.020  -2.327 124.221  0.00  0.00    +0.000 C 
ATOM      3  C   UNL     1      -8.474  -3.065 125.459  0.00  0.00    +0.000 C 
ATOM      4  C   UNL     1      -8.532  -2.016 126.565  0.00  0.00    +0.000 C 
ATOM      5  C   UNL     1      -7.702  -2.195 127.835  0.00  0.00    +0.000 C 
ATOM      6  C   UNL     1      -8.016  -3.504 128.559  0.00  0.00    +0.000 C 
ATOM      7  C   UNL     1      -7.082  -3.681 129.753  0.00  0.00    +0.000 C 
ATOM      8  C   UNL     1      -6.882  -2.433 130.577  0.00  0.00    +0.000 A 
ATOM      9  C   UNL     1      -6.221  -2.560 131.812  0.00  0.00    +0.000 A 
ATOM     10  C   UNL     1      -5.974  -1.437 132.593  0.00  0.00    +0.000 A 
ATOM     11  C   UNL     1      -6.390  -0.185 132.176  0.00  0.00    +0.000 A 
ATOM     12  C   UNL     1      -7.052  -0.049 130.957  0.00  0.00    +0.000 A 
ATOM     13  C   UNL     1      -7.280  -1.157 130.122  0.00  0.00    +0.000 A 
ATOM     14  C   UNL     1      -8.006  -1.003 128.793  0.00  0.00    +0.000 C 
ATOM     15  C   UNL     1      -7.762   0.353 128.084  0.00  0.00    +0.000 C 
ATOM     16  C   UNL     1      -8.500   0.471 126.743  0.00  0.00    +0.000 C 
ATOM     17  C   UNL     1      -8.178  -0.712 125.824  0.00  0.00    +0.000 C 
ATOM     18  C   UNL     1      -6.706  -0.617 125.354  0.00  0.00    +0.000 C 
ENDROOT
BRANCH  10  19
ATOM     19  O   UNL     1      -5.324  -1.529 133.788  0.00  0.00    +0.000 OA
ATOM     20  H   UNL     1      -5.148  -2.464 133.971  0.00  0.00    +0.000 HD
ENDBRANCH  10  19
BRANCH   1  21
ATOM     21  O   UNL     1      -8.699   0.014 123.532  0.00  0.00    +0.000 OA
BRANCH  21  22
ATOM     22  C   UNL     1      -9.523   0.849 122.853  0.00  0.00    +0.000 C 
ATOM     23  O   UNL     1     -10.567   0.442 122.348  0.00  0.00    +0.000 OA
BRANCH  22  24
ATOM     24  C   UNL     1      -9.068   2.273 122.749  0.00  0.00    +0.000 C 
BRANCH  24  25
ATOM     25  C   UNL     1      -7.820   2.580 123.577  0.00  0.00    +0.000 C 
BRANCH  25  26
ATOM     26  C   UNL     1      -6.597   2.901 122.712  0.00  0.00    +0.000 C 
ATOM     27  C   UNL     1      -6.953   3.454 121.333  0.00  0.00    +0.000 C 
ATOM     28  C   UNL     1      -5.678   4.128 120.856  0.00  0.00    +0.000 C 
ATOM     29  C   UNL     1      -4.936   4.573 122.114  0.00  0.00    +0.000 C 
ATOM     30  C   UNL     1      -5.690   3.985 123.297  0.00  0.00    +0.000 C 
ENDBRANCH  25  26
ENDBRANCH  24  25
ENDBRANCH  22  24
ENDBRANCH  21  22
ENDBRANCH   1  21
TORSDOF 6
ENDMDL
MODEL 7
REMARK VINA RESULT:      -8.2      1.710      3.347
REMARK  Name = Estradiol cypionate
REMARK  7 active torsions:
REMARK  status: ('A' for Active; 'I' for Inactive)
REMARK    1  A    between atoms: C_2  and  O_24
REMARK    2  A    between atoms: C_13  and  O_14
REMARK    3  A    between atoms: C_22  and  C_23
REMARK    4  A    between atoms: O_24  and  C_25
REMARK    5  A    between atoms: C_25  and  C_27
REMARK    6  A    between atoms: C_27  and  C_28
REMARK    7  A    between atoms: C_28  and  C_29
REMARK                            x       y       z     vdW  Elec       q    Type
REMARK                         _______ _______ _______ _____ _____    ______ ____
ROOT
ATOM      1  C   UNL     1      -7.024  -0.196 127.591  0.00  0.00    +0.000 C 
ATOM      2  C   UNL     1      -5.985   0.437 128.538  0.00  0.00    +0.000 C 
ATOM      3  C   UNL     1      -5.320   1.582 127.747  0.00  0.00    +0.000 C 
ATOM      4  C   UNL     1      -6.182   1.709 126.495  0.00  0.00    +0.000 C 
ATOM      5  C   UNL     1      -5.637   2.425 125.260  0.00  0.00    +0.000 C 
ATOM      6  C   UNL     1      -5.215   3.863 125.557  0.00  0.00    +0.000 C 
ATOM      7  C   UNL     1      -4.578   4.490 124.320  0.00  0.00    +0.000 C 
ATOM      8  C   UNL     1      -5.312   4.208 123.032  0.00  0.00    +0.000 A 
ATOM      9  C   UNL     1      -4.925   4.924 121.885  0.00  0.00    +0.000 A 
ATOM     10  C   UNL     1      -5.540   4.675 120.664  0.00  0.00    +0.000 A 
ATOM     11  C   UNL     1      -6.549   3.734 120.563  0.00  0.00    +0.000 A 
ATOM     12  C   UNL     1      -6.945   3.023 121.695  0.00  0.00    +0.000 A 
ATOM     13  C   UNL     1      -6.315   3.219 122.937  0.00  0.00    +0.000 A 
ATOM     14  C   UNL     1      -6.753   2.442 124.171  0.00  0.00    +0.000 C 
ATOM     15  C   UNL     1      -7.262   1.008 123.877  0.00  0.00    +0.000 C 
ATOM     16  C   UNL     1      -7.685   0.250 125.142  0.00  0.00    +0.000 C 
ATOM     17  C   UNL     1      -6.568   0.248 126.190  0.00  0.00    +0.000 C 
ATOM     18  C   UNL     1      -5.398  -0.639 125.699  0.00  0.00    +0.000 C 
ENDROOT
BRANCH  10  19
ATOM     19  O   UNL     1      -5.177   5.345 119.533  0.00  0.00    +0.000 OA
ATOM     20  H   UNL     1      -5.967   5.759 119.154  0.00  0.00    +0.000 HD
ENDBRANCH  10  19
BRANCH   1  21
ATOM     21  O   UNL     1      -7.030  -1.631 127.710  0.00  0.00    +0.000 OA
BRANCH  21  22
ATOM     22  C   UNL     1      -8.133  -2.370 127.984  0.00  0.00    +0.000 C 
ATOM     23  O   UNL     1      -8.450  -2.634 129.141  0.00  0.00    +0.000 OA
BRANCH  22  24
ATOM     24  C   UNL     1      -8.910  -2.849 126.796  0.00  0.00    +0.000 C 
BRANCH  24  25
ATOM     25  C   UNL     1      -8.247  -4.012 126.058  0.00  0.00    +0.000 C 
BRANCH  25  26
ATOM     26  C   UNL     1      -8.149  -3.780 124.546  0.00  0.00    +0.000 C 
ATOM     27  C   UNL     1      -9.169  -2.774 124.017  0.00  0.00    +0.000 C 
ATOM     28  C   UNL     1      -8.611  -2.344 122.671  0.00  0.00    +0.000 C 
ATOM     29  C   UNL     1      -7.095  -2.497 122.770  0.00  0.00    +0.000 C 
ATOM     30  C   UNL     1      -6.812  -3.191 124.095  0.00  0.00    +0.000 C 
ENDBRANCH  25  26
ENDBRANCH  24  25
ENDBRANCH  22  24
ENDBRANCH  21  22
ENDBRANCH   1  21
TORSDOF 6
ENDMDL
MODEL 8
REMARK VINA RESULT:      -8.0      2.402      4.115
REMARK  Name = Estradiol cypionate
REMARK  7 active torsions:
REMARK  status: ('A' for Active; 'I' for Inactive)
REMARK    1  A    between atoms: C_2  and  O_24
REMARK    2  A    between atoms: C_13  and  O_14
REMARK    3  A    between atoms: C_22  and  C_23
REMARK    4  A    between atoms: O_24  and  C_25
REMARK    5  A    between atoms: C_25  and  C_27
REMARK    6  A    between atoms: C_27  and  C_28
REMARK    7  A    between atoms: C_28  and  C_29
REMARK                            x       y       z     vdW  Elec       q    Type
REMARK                         _______ _______ _______ _____ _____    ______ ____
ROOT
ATOM      1  C   UNL     1      -7.552  -0.615 126.918  0.00  0.00    +0.000 C 
ATOM      2  C   UNL     1      -6.694  -0.003 128.043  0.00  0.00    +0.000 C 
ATOM      3  C   UNL     1      -5.984   1.221 127.429  0.00  0.00    +0.000 C 
ATOM      4  C   UNL     1      -6.664   1.395 126.075  0.00  0.00    +0.000 C 
ATOM      5  C   UNL     1      -5.988   2.217 124.978  0.00  0.00    +0.000 C 
ATOM      6  C   UNL     1      -5.688   3.648 125.421  0.00  0.00    +0.000 C 
ATOM      7  C   UNL     1      -4.915   4.385 124.330  0.00  0.00    +0.000 C 
ATOM      8  C   UNL     1      -5.443   4.159 122.934  0.00  0.00    +0.000 A 
ATOM      9  C   UNL     1      -4.935   4.968 121.902  0.00  0.00    +0.000 A 
ATOM     10  C   UNL     1      -5.355   4.777 120.591  0.00  0.00    +0.000 A 
ATOM     11  C   UNL     1      -6.289   3.801 120.287  0.00  0.00    +0.000 A 
ATOM     12  C   UNL     1      -6.803   2.999 121.304  0.00  0.00    +0.000 A 
ATOM     13  C   UNL     1      -6.368   3.137 122.634  0.00  0.00    +0.000 A 
ATOM     14  C   UNL     1      -6.936   2.259 123.741  0.00  0.00    +0.000 C 
ATOM     15  C   UNL     1      -7.322   0.828 123.289  0.00  0.00    +0.000 C 
ATOM     16  C   UNL     1      -7.881  -0.031 124.431  0.00  0.00    +0.000 C 
ATOM     17  C   UNL     1      -6.925  -0.057 125.628  0.00  0.00    +0.000 C 
ATOM     18  C   UNL     1      -5.652  -0.857 125.260  0.00  0.00    +0.000 C 
ENDROOT
BRANCH  10  19
ATOM     19  O   UNL     1      -4.870   5.536 119.568  0.00  0.00    +0.000 OA
ATOM     20  H   UNL     1      -5.204   5.177 118.732  0.00  0.00    +0.000 HD
ENDBRANCH  10  19
BRANCH   1  21
ATOM     21  O   UNL     1      -7.500  -2.053 126.947  0.00  0.00    +0.000 OA
BRANCH  21  22
ATOM     22  C   UNL     1      -8.584  -2.855 127.082  0.00  0.00    +0.000 C 
ATOM     23  O   UNL     1      -9.485  -2.853 126.247  0.00  0.00    +0.000 OA
BRANCH  22  24
ATOM     24  C   UNL     1      -8.613  -3.713 128.310  0.00  0.00    +0.000 C 
BRANCH  24  25
ATOM     25  C   UNL     1      -7.878  -3.101 129.503  0.00  0.00    +0.000 C 
BRANCH  25  26
ATOM     26  C   UNL     1      -6.588  -3.849 129.854  0.00  0.00    +0.000 C 
ATOM     27  C   UNL     1      -5.328  -3.184 129.301  0.00  0.00    +0.000 C 
ATOM     28  C   UNL     1      -4.198  -3.771 130.130  0.00  0.00    +0.000 C 
ATOM     29  C   UNL     1      -4.805  -4.133 131.483  0.00  0.00    +0.000 C 
ATOM     30  C   UNL     1      -6.308  -3.930 131.356  0.00  0.00    +0.000 C 
ENDBRANCH  25  26
ENDBRANCH  24  25
ENDBRANCH  22  24
ENDBRANCH  21  22
ENDBRANCH   1  21
TORSDOF 6
ENDMDL
MODEL 9
REMARK VINA RESULT:      -7.8      4.722     10.037
REMARK  Name = Estradiol cypionate
REMARK  7 active torsions:
REMARK  status: ('A' for Active; 'I' for Inactive)
REMARK    1  A    between atoms: C_2  and  O_24
REMARK    2  A    between atoms: C_13  and  O_14
REMARK    3  A    between atoms: C_22  and  C_23
REMARK    4  A    between atoms: O_24  and  C_25
REMARK    5  A    between atoms: C_25  and  C_27
REMARK    6  A    between atoms: C_27  and  C_28
REMARK    7  A    between atoms: C_28  and  C_29
REMARK                            x       y       z     vdW  Elec       q    Type
REMARK                         _______ _______ _______ _____ _____    ______ ____
ROOT
ATOM      1  C   UNL     1      -7.185  -1.183 127.032  0.00  0.00    +0.000 C 
ATOM      2  C   UNL     1      -6.198  -0.003 126.919  0.00  0.00    +0.000 C 
ATOM      3  C   UNL     1      -5.203  -0.158 128.086  0.00  0.00    +0.000 C 
ATOM      4  C   UNL     1      -5.510  -1.543 128.646  0.00  0.00    +0.000 C 
ATOM      5  C   UNL     1      -5.051  -1.918 130.055  0.00  0.00    +0.000 C 
ATOM      6  C   UNL     1      -3.540  -1.782 130.233  0.00  0.00    +0.000 C 
ATOM      7  C   UNL     1      -3.154  -2.060 131.683  0.00  0.00    +0.000 C 
ATOM      8  C   UNL     1      -3.845  -3.256 132.292  0.00  0.00    +0.000 A 
ATOM      9  C   UNL     1      -3.387  -3.715 133.540  0.00  0.00    +0.000 A 
ATOM     10  C   UNL     1      -4.012  -4.787 134.165  0.00  0.00    +0.000 A 
ATOM     11  C   UNL     1      -5.081  -5.427 133.562  0.00  0.00    +0.000 A 
ATOM     12  C   UNL     1      -5.539  -4.984 132.322  0.00  0.00    +0.000 A 
ATOM     13  C   UNL     1      -4.957  -3.876 131.682  0.00  0.00    +0.000 A 
ATOM     14  C   UNL     1      -5.460  -3.399 130.326  0.00  0.00    +0.000 C 
ATOM     15  C   UNL     1      -6.978  -3.605 130.097  0.00  0.00    +0.000 C 
ATOM     16  C   UNL     1      -7.452  -3.105 128.726  0.00  0.00    +0.000 C 
ATOM     17  C   UNL     1      -7.040  -1.648 128.492  0.00  0.00    +0.000 C 
ATOM     18  C   UNL     1      -7.848  -0.722 129.434  0.00  0.00    +0.000 C 
ENDROOT
BRANCH  10  19
ATOM     19  O   UNL     1      -3.598  -5.244 135.380  0.00  0.00    +0.000 OA
ATOM     20  H   UNL     1      -2.932  -5.935 135.238  0.00  0.00    +0.000 HD
ENDBRANCH  10  19
BRANCH   1  21
ATOM     21  O   UNL     1      -8.532  -0.765 126.747  0.00  0.00    +0.000 OA
BRANCH  21  22
ATOM     22  C   UNL     1      -9.267  -1.216 125.701  0.00  0.00    +0.000 C 
ATOM     23  O   UNL     1      -9.885  -0.441 124.976  0.00  0.00    +0.000 OA
BRANCH  22  24
ATOM     24  C   UNL     1      -9.286  -2.702 125.509  0.00  0.00    +0.000 C 
BRANCH  24  25
ATOM     25  C   UNL     1      -9.339  -3.130 124.042  0.00  0.00    +0.000 C 
BRANCH  25  26
ATOM     26  C   UNL     1      -7.955  -3.189 123.388  0.00  0.00    +0.000 C 
ATOM     27  C   UNL     1      -7.529  -1.870 122.744  0.00  0.00    +0.000 C 
ATOM     28  C   UNL     1      -6.022  -1.991 122.599  0.00  0.00    +0.000 C 
ATOM     29  C   UNL     1      -5.560  -2.924 123.715  0.00  0.00    +0.000 C 
ATOM     30  C   UNL     1      -6.817  -3.479 124.368  0.00  0.00    +0.000 C 
ENDBRANCH  25  26
ENDBRANCH  24  25
ENDBRANCH  22  24
ENDBRANCH  21  22
ENDBRANCH   1  21
TORSDOF 6
ENDMDL
