MODEL 1
REMARK VINA RESULT:      -9.4      0.000      0.000
REMARK  Name = Estradiol benzoate
REMARK  5 active torsions:
REMARK  status: ('A' for Active; 'I' for Inactive)
REMARK    1  A    between atoms: C_2  and  O_3
REMARK    2  A    between atoms: C_14  and  O_15
REMARK    3  A    between atoms: O_15  and  C_16
REMARK    4  A    between atoms: C_16  and  C_18
REMARK    5  A    between atoms: C_31  and  C_32
REMARK                            x       y       z     vdW  Elec       q    Type
REMARK                         _______ _______ _______ _____ _____    ______ ____
ROOT
ATOM      1  C   UNL     1      -1.008   6.768 132.644  0.00  0.00    +0.000 C 
ATOM      2  C   UNL     1      -0.894   6.371 134.127  0.00  0.00    +0.000 C 
ATOM      3  C   UNL     1      -2.325   6.012 134.587  0.00  0.00    +0.000 C 
ATOM      4  C   UNL     1      -3.153   6.094 133.307  0.00  0.00    +0.000 C 
ATOM      5  C   UNL     1      -4.671   6.271 133.386  0.00  0.00    +0.000 C 
ATOM      6  C   UNL     1      -5.363   5.159 134.178  0.00  0.00    +0.000 C 
ATOM      7  C   UNL     1      -6.873   5.413 134.278  0.00  0.00    +0.000 C 
ATOM      8  C   UNL     1      -7.519   5.878 132.991  0.00  0.00    +0.000 A 
ATOM      9  C   UNL     1      -8.933   5.919 132.890  0.00  0.00    +0.000 A 
ATOM     10  C   UNL     1      -9.547   6.370 131.714  0.00  0.00    +0.000 A 
ATOM     11  C   UNL     1      -8.744   6.770 130.655  0.00  0.00    +0.000 A 
ATOM     12  C   UNL     1      -7.366   6.729 130.743  0.00  0.00    +0.000 A 
ATOM     13  C   UNL     1      -6.728   6.313 131.908  0.00  0.00    +0.000 A 
ATOM     14  C   UNL     1      -5.215   6.254 131.934  0.00  0.00    +0.000 C 
ATOM     15  C   UNL     1      -4.524   7.332 131.058  0.00  0.00    +0.000 C 
ATOM     16  C   UNL     1      -2.998   7.233 131.083  0.00  0.00    +0.000 C 
ATOM     17  C   UNL     1      -2.468   7.228 132.516  0.00  0.00    +0.000 C 
ATOM     18  C   UNL     1      -2.660   8.636 133.136  0.00  0.00    +0.000 C 
ENDROOT
BRANCH   1  19
ATOM     19  O   UNL     1      -0.078   7.767 132.281  0.00  0.00    +0.000 OA
ATOM     20  H   UNL     1      -0.018   7.767 131.309  0.00  0.00    +0.000 HD
ENDBRANCH   1  19
BRANCH  10  21
ATOM     21  O   UNL     1     -10.969   6.399 131.642  0.00  0.00    +0.000 OA
BRANCH  21  22
ATOM     22  C   UNL     1     -11.631   5.983 130.490  0.00  0.00    +0.000 C 
ATOM     23  O   UNL     1     -11.635   4.873 129.963  0.00  0.00    +0.000 OA
BRANCH  22  24
ATOM     24  C   UNL     1     -12.431   7.023 129.837  0.00  0.00    +0.000 A 
ATOM     25  C   UNL     1     -13.046   6.674 128.622  0.00  0.00    +0.000 A 
ATOM     26  C   UNL     1     -13.571   7.661 127.796  0.00  0.00    +0.000 A 
ATOM     27  C   UNL     1     -13.545   8.989 128.215  0.00  0.00    +0.000 A 
ATOM     28  C   UNL     1     -12.949   9.334 129.434  0.00  0.00    +0.000 A 
ATOM     29  C   UNL     1     -12.377   8.353 130.246  0.00  0.00    +0.000 A 
ENDBRANCH  22  24
ENDBRANCH  21  22
ENDBRANCH  10  21
TORSDOF 4
ENDMDL
MODEL 2
REMARK VINA RESULT:      -9.4      9.857     10.974
REMARK  Name = Estradiol benzoate
REMARK  5 active torsions:
REMARK  status: ('A' for Active; 'I' for Inactive)
REMARK    1  A    between atoms: C_2  and  O_3
REMARK    2  A    between atoms: C_14  and  O_15
REMARK    3  A    between atoms: O_15  and  C_16
REMARK    4  A    between atoms: C_16  and  C_18
REMARK    5  A    between atoms: C_31  and  C_32
REMARK                            x       y       z     vdW  Elec       q    Type
REMARK                         _______ _______ _______ _____ _____    ______ ____
ROOT
ATOM      1  C   UNL     1      -3.948  -2.961 133.156  0.00  0.00    +0.000 C 
ATOM      2  C   UNL     1      -3.189  -1.627 133.038  0.00  0.00    +0.000 C 
ATOM      3  C   UNL     1      -3.829  -0.873 131.850  0.00  0.00    +0.000 C 
ATOM      4  C   UNL     1      -5.003  -1.758 131.442  0.00  0.00    +0.000 C 
ATOM      5  C   UNL     1      -5.609  -1.632 130.042  0.00  0.00    +0.000 C 
ATOM      6  C   UNL     1      -6.113  -0.221 129.734  0.00  0.00    +0.000 C 
ATOM      7  C   UNL     1      -6.657  -0.132 128.302  0.00  0.00    +0.000 C 
ATOM      8  C   UNL     1      -7.518  -1.303 127.882  0.00  0.00    +0.000 A 
ATOM      9  C   UNL     1      -8.265  -1.229 126.678  0.00  0.00    +0.000 A 
ATOM     10  C   UNL     1      -9.049  -2.314 126.263  0.00  0.00    +0.000 A 
ATOM     11  C   UNL     1      -9.078  -3.455 127.053  0.00  0.00    +0.000 A 
ATOM     12  C   UNL     1      -8.356  -3.534 128.228  0.00  0.00    +0.000 A 
ATOM     13  C   UNL     1      -7.548  -2.484 128.652  0.00  0.00    +0.000 A 
ATOM     14  C   UNL     1      -6.808  -2.612 129.968  0.00  0.00    +0.000 C 
ATOM     15  C   UNL     1      -6.377  -4.062 130.313  0.00  0.00    +0.000 C 
ATOM     16  C   UNL     1      -5.655  -4.166 131.657  0.00  0.00    +0.000 C 
ATOM     17  C   UNL     1      -4.488  -3.184 131.735  0.00  0.00    +0.000 C 
ATOM     18  C   UNL     1      -3.359  -3.655 130.783  0.00  0.00    +0.000 C 
ENDROOT
BRANCH   1  19
ATOM     19  O   UNL     1      -3.120  -4.014 133.605  0.00  0.00    +0.000 OA
ATOM     20  H   UNL     1      -3.074  -4.671 132.889  0.00  0.00    +0.000 HD
ENDBRANCH   1  19
BRANCH  10  21
ATOM     21  O   UNL     1      -9.789  -2.210 125.051  0.00  0.00    +0.000 OA
BRANCH  21  22
ATOM     22  C   UNL     1      -9.454  -2.988 123.945  0.00  0.00    +0.000 C 
ATOM     23  O   UNL     1     -10.180  -3.706 123.261  0.00  0.00    +0.000 OA
BRANCH  22  24
ATOM     24  C   UNL     1      -8.042  -2.921 123.558  0.00  0.00    +0.000 A 
ATOM     25  C   UNL     1      -7.169  -3.810 124.209  0.00  0.00    +0.000 A 
ATOM     26  C   UNL     1      -5.794  -3.624 124.126  0.00  0.00    +0.000 A 
ATOM     27  C   UNL     1      -5.289  -2.594 123.336  0.00  0.00    +0.000 A 
ATOM     28  C   UNL     1      -6.159  -1.720 122.673  0.00  0.00    +0.000 A 
ATOM     29  C   UNL     1      -7.543  -1.872 122.791  0.00  0.00    +0.000 A 
ENDBRANCH  22  24
ENDBRANCH  21  22
ENDBRANCH  10  21
TORSDOF 4
ENDMDL
MODEL 3
REMARK VINA RESULT:      -9.0      5.458      6.549
REMARK  Name = Estradiol benzoate
REMARK  5 active torsions:
REMARK  status: ('A' for Active; 'I' for Inactive)
REMARK    1  A    between atoms: C_2  and  O_3
REMARK    2  A    between atoms: C_14  and  O_15
REMARK    3  A    between atoms: O_15  and  C_16
REMARK    4  A    between atoms: C_16  and  C_18
REMARK    5  A    between atoms: C_31  and  C_32
REMARK                            x       y       z     vdW  Elec       q    Type
REMARK                         _______ _______ _______ _____ _____    ______ ____
ROOT
ATOM      1  C   UNL     1      -6.112  -2.572 128.730  0.00  0.00    +0.000 C 
ATOM      2  C   UNL     1      -6.392  -3.359 130.023  0.00  0.00    +0.000 C 
ATOM      3  C   UNL     1      -7.229  -2.421 130.923  0.00  0.00    +0.000 C 
ATOM      4  C   UNL     1      -7.494  -1.205 130.041  0.00  0.00    +0.000 C 
ATOM      5  C   UNL     1      -7.874   0.135 130.676  0.00  0.00    +0.000 C 
ATOM      6  C   UNL     1      -9.134   0.051 131.541  0.00  0.00    +0.000 C 
ATOM      7  C   UNL     1      -9.441   1.402 132.200  0.00  0.00    +0.000 C 
ATOM      8  C   UNL     1      -9.283   2.598 131.286  0.00  0.00    +0.000 A 
ATOM      9  C   UNL     1      -9.758   3.868 131.703  0.00  0.00    +0.000 A 
ATOM     10  C   UNL     1      -9.598   4.990 130.879  0.00  0.00    +0.000 A 
ATOM     11  C   UNL     1      -8.970   4.830 129.652  0.00  0.00    +0.000 A 
ATOM     12  C   UNL     1      -8.507   3.597 129.237  0.00  0.00    +0.000 A 
ATOM     13  C   UNL     1      -8.626   2.471 130.045  0.00  0.00    +0.000 A 
ATOM     14  C   UNL     1      -8.134   1.137 129.521  0.00  0.00    +0.000 C 
ATOM     15  C   UNL     1      -6.909   1.241 128.576  0.00  0.00    +0.000 C 
ATOM     16  C   UNL     1      -6.449  -0.117 128.043  0.00  0.00    +0.000 C 
ATOM     17  C   UNL     1      -6.215  -1.107 129.182  0.00  0.00    +0.000 C 
ATOM     18  C   UNL     1      -4.952  -0.684 129.976  0.00  0.00    +0.000 C 
ENDROOT
BRANCH   1  19
ATOM     19  O   UNL     1      -4.857  -2.890 128.166  0.00  0.00    +0.000 OA
ATOM     20  H   UNL     1      -4.345  -3.361 128.847  0.00  0.00    +0.000 HD
ENDBRANCH   1  19
BRANCH  10  21
ATOM     21  O   UNL     1     -10.087   6.251 131.324  0.00  0.00    +0.000 OA
BRANCH  21  22
ATOM     22  C   UNL     1     -11.398   6.639 131.060  0.00  0.00    +0.000 C 
ATOM     23  O   UNL     1     -12.385   6.562 131.787  0.00  0.00    +0.000 OA
BRANCH  22  24
ATOM     24  C   UNL     1     -11.605   7.220 129.730  0.00  0.00    +0.000 A 
ATOM     25  C   UNL     1     -12.693   6.725 128.990  0.00  0.00    +0.000 A 
ATOM     26  C   UNL     1     -12.793   6.997 127.630  0.00  0.00    +0.000 A 
ATOM     27  C   UNL     1     -11.847   7.820 127.025  0.00  0.00    +0.000 A 
ATOM     28  C   UNL     1     -10.775   8.329 127.768  0.00  0.00    +0.000 A 
ATOM     29  C   UNL     1     -10.641   8.020 129.123  0.00  0.00    +0.000 A 
ENDBRANCH  22  24
ENDBRANCH  21  22
ENDBRANCH  10  21
TORSDOF 4
ENDMDL
MODEL 4
REMARK VINA RESULT:      -9.0     10.256     12.743
REMARK  Name = Estradiol benzoate
REMARK  5 active torsions:
REMARK  status: ('A' for Active; 'I' for Inactive)
REMARK    1  A    between atoms: C_2  and  O_3
REMARK    2  A    between atoms: C_14  and  O_15
REMARK    3  A    between atoms: O_15  and  C_16
REMARK    4  A    between atoms: C_16  and  C_18
REMARK    5  A    between atoms: C_31  and  C_32
REMARK                            x       y       z     vdW  Elec       q    Type
REMARK                         _______ _______ _______ _____ _____    ______ ____
ROOT
ATOM      1  C   UNL     1      -7.134  -1.734 123.062  0.00  0.00    +0.000 C 
ATOM      2  C   UNL     1      -8.340  -2.663 122.833  0.00  0.00    +0.000 C 
ATOM      3  C   UNL     1      -8.760  -3.173 124.230  0.00  0.00    +0.000 C 
ATOM      4  C   UNL     1      -7.857  -2.403 125.189  0.00  0.00    +0.000 C 
ATOM      5  C   UNL     1      -7.614  -2.931 126.605  0.00  0.00    +0.000 C 
ATOM      6  C   UNL     1      -8.905  -3.107 127.408  0.00  0.00    +0.000 C 
ATOM      7  C   UNL     1      -8.615  -3.692 128.796  0.00  0.00    +0.000 C 
ATOM      8  C   UNL     1      -7.418  -3.085 129.496  0.00  0.00    +0.000 A 
ATOM      9  C   UNL     1      -7.188  -3.371 130.867  0.00  0.00    +0.000 A 
ATOM     10  C   UNL     1      -6.071  -2.836 131.524  0.00  0.00    +0.000 A 
ATOM     11  C   UNL     1      -5.203  -2.025 130.808  0.00  0.00    +0.000 A 
ATOM     12  C   UNL     1      -5.421  -1.739 129.474  0.00  0.00    +0.000 A 
ATOM     13  C   UNL     1      -6.505  -2.278 128.788  0.00  0.00    +0.000 A 
ATOM     14  C   UNL     1      -6.716  -1.900 127.336  0.00  0.00    +0.000 C 
ATOM     15  C   UNL     1      -5.402  -1.639 126.553  0.00  0.00    +0.000 C 
ATOM     16  C   UNL     1      -5.644  -1.235 125.098  0.00  0.00    +0.000 C 
ATOM     17  C   UNL     1      -6.548  -2.242 124.388  0.00  0.00    +0.000 C 
ATOM     18  C   UNL     1      -5.769  -3.566 124.177  0.00  0.00    +0.000 C 
ENDROOT
BRANCH   1  19
ATOM     19  O   UNL     1      -6.209  -1.778 121.995  0.00  0.00    +0.000 OA
ATOM     20  H   UNL     1      -6.461  -2.525 121.424  0.00  0.00    +0.000 HD
ENDBRANCH   1  19
BRANCH  10  21
ATOM     21  O   UNL     1      -5.867  -3.139 132.900  0.00  0.00    +0.000 OA
BRANCH  21  22
ATOM     22  C   UNL     1      -6.907  -3.013 133.818  0.00  0.00    +0.000 C 
ATOM     23  O   UNL     1      -7.531  -2.004 134.140  0.00  0.00    +0.000 OA
BRANCH  22  24
ATOM     24  C   UNL     1      -7.300  -4.264 134.471  0.00  0.00    +0.000 A 
ATOM     25  C   UNL     1      -8.573  -4.292 135.066  0.00  0.00    +0.000 A 
ATOM     26  C   UNL     1      -8.910  -5.313 135.946  0.00  0.00    +0.000 A 
ATOM     27  C   UNL     1      -8.004  -6.344 136.178  0.00  0.00    +0.000 A 
ATOM     28  C   UNL     1      -6.743  -6.326 135.571  0.00  0.00    +0.000 A 
ATOM     29  C   UNL     1      -6.379  -5.278 134.722  0.00  0.00    +0.000 A 
ENDBRANCH  22  24
ENDBRANCH  21  22
ENDBRANCH  10  21
TORSDOF 4
ENDMDL
MODEL 5
REMARK VINA RESULT:      -8.9      6.214      7.457
REMARK  Name = Estradiol benzoate
REMARK  5 active torsions:
REMARK  status: ('A' for Active; 'I' for Inactive)
REMARK    1  A    between atoms: C_2  and  O_3
REMARK    2  A    between atoms: C_14  and  O_15
REMARK    3  A    between atoms: O_15  and  C_16
REMARK    4  A    between atoms: C_16  and  C_18
REMARK    5  A    between atoms: C_31  and  C_32
REMARK                            x       y       z     vdW  Elec       q    Type
REMARK                         _______ _______ _______ _____ _____    ______ ____
ROOT
ATOM      1  C   UNL     1      -5.219  -3.852 130.635  0.00  0.00    +0.000 C 
ATOM      2  C   UNL     1      -4.412  -3.592 129.350  0.00  0.00    +0.000 C 
ATOM      3  C   UNL     1      -4.822  -2.183 128.864  0.00  0.00    +0.000 C 
ATOM      4  C   UNL     1      -5.737  -1.665 129.969  0.00  0.00    +0.000 C 
ATOM      5  C   UNL     1      -6.720  -0.526 129.682  0.00  0.00    +0.000 C 
ATOM      6  C   UNL     1      -6.033   0.743 129.174  0.00  0.00    +0.000 C 
ATOM      7  C   UNL     1      -7.063   1.832 128.845  0.00  0.00    +0.000 C 
ATOM      8  C   UNL     1      -8.168   1.981 129.867  0.00  0.00    +0.000 A 
ATOM      9  C   UNL     1      -9.041   3.098 129.800  0.00  0.00    +0.000 A 
ATOM     10  C   UNL     1     -10.085   3.238 130.724  0.00  0.00    +0.000 A 
ATOM     11  C   UNL     1     -10.242   2.267 131.703  0.00  0.00    +0.000 A 
ATOM     12  C   UNL     1      -9.396   1.178 131.777  0.00  0.00    +0.000 A 
ATOM     13  C   UNL     1      -8.368   0.997 130.857  0.00  0.00    +0.000 A 
ATOM     14  C   UNL     1      -7.447  -0.196 131.010  0.00  0.00    +0.000 C 
ATOM     15  C   UNL     1      -8.134  -1.453 131.607  0.00  0.00    +0.000 C 
ATOM     16  C   UNL     1      -7.176  -2.634 131.774  0.00  0.00    +0.000 C 
ATOM     17  C   UNL     1      -6.446  -2.942 130.469  0.00  0.00    +0.000 C 
ATOM     18  C   UNL     1      -7.448  -3.546 129.453  0.00  0.00    +0.000 C 
ENDROOT
BRANCH   1  19
ATOM     19  O   UNL     1      -5.558  -5.214 130.793  0.00  0.00    +0.000 OA
ATOM     20  H   UNL     1      -6.419  -5.350 130.360  0.00  0.00    +0.000 HD
ENDBRANCH   1  19
BRANCH  10  21
ATOM     21  O   UNL     1     -10.943   4.371 130.633  0.00  0.00    +0.000 OA
BRANCH  21  22
ATOM     22  C   UNL     1     -10.594   5.578 131.232  0.00  0.00    +0.000 C 
ATOM     23  O   UNL     1     -10.035   5.769 132.310  0.00  0.00    +0.000 OA
BRANCH  22  24
ATOM     24  C   UNL     1     -10.942   6.769 130.453  0.00  0.00    +0.000 A 
ATOM     25  C   UNL     1     -12.283   7.187 130.507  0.00  0.00    +0.000 A 
ATOM     26  C   UNL     1     -12.765   8.111 129.588  0.00  0.00    +0.000 A 
ATOM     27  C   UNL     1     -11.891   8.672 128.661  0.00  0.00    +0.000 A 
ATOM     28  C   UNL     1     -10.551   8.270 128.619  0.00  0.00    +0.000 A 
ATOM     29  C   UNL     1     -10.072   7.306 129.508  0.00  0.00    +0.000 A 
ENDBRANCH  22  24
ENDBRANCH  21  22
ENDBRANCH  10  21
TORSDOF 4
ENDMDL
MODEL 6
REMARK VINA RESULT:      -8.4      5.637      6.849
REMARK  Name = Estradiol benzoate
REMARK  5 active torsions:
REMARK  status: ('A' for Active; 'I' for Inactive)
REMARK    1  A    between atoms: C_2  and  O_3
REMARK    2  A    between atoms: C_14  and  O_15
REMARK    3  A    between atoms: O_15  and  C_16
REMARK    4  A    between atoms: C_16  and  C_18
REMARK    5  A    between atoms: C_31  and  C_32
REMARK                            x       y       z     vdW  Elec       q    Type
REMARK                         _______ _______ _______ _____ _____    ______ ____
ROOT
ATOM      1  C   UNL     1      -2.489   6.237 133.891  0.00  0.00    +0.000 C 
ATOM      2  C   UNL     1      -1.075   6.621 133.421  0.00  0.00    +0.000 C 
ATOM      3  C   UNL     1      -1.058   6.404 131.891  0.00  0.00    +0.000 C 
ATOM      4  C   UNL     1      -2.501   6.036 131.556  0.00  0.00    +0.000 C 
ATOM      5  C   UNL     1      -2.822   5.296 130.255  0.00  0.00    +0.000 C 
ATOM      6  C   UNL     1      -2.355   6.049 129.007  0.00  0.00    +0.000 C 
ATOM      7  C   UNL     1      -2.647   5.241 127.735  0.00  0.00    +0.000 C 
ATOM      8  C   UNL     1      -4.011   4.588 127.705  0.00  0.00    +0.000 A 
ATOM      9  C   UNL     1      -4.489   4.015 126.498  0.00  0.00    +0.000 A 
ATOM     10  C   UNL     1      -5.740   3.386 126.458  0.00  0.00    +0.000 A 
ATOM     11  C   UNL     1      -6.498   3.339 127.619  0.00  0.00    +0.000 A 
ATOM     12  C   UNL     1      -6.043   3.897 128.798  0.00  0.00    +0.000 A 
ATOM     13  C   UNL     1      -4.793   4.503 128.875  0.00  0.00    +0.000 A 
ATOM     14  C   UNL     1      -4.362   5.131 130.185  0.00  0.00    +0.000 C 
ATOM     15  C   UNL     1      -4.912   4.410 131.444  0.00  0.00    +0.000 C 
ATOM     16  C   UNL     1      -4.482   5.080 132.750  0.00  0.00    +0.000 C 
ATOM     17  C   UNL     1      -2.966   5.260 132.806  0.00  0.00    +0.000 C 
ATOM     18  C   UNL     1      -2.293   3.874 132.975  0.00  0.00    +0.000 C 
ENDROOT
BRANCH   1  19
ATOM     19  O   UNL     1      -2.491   5.670 135.185  0.00  0.00    +0.000 OA
ATOM     20  H   UNL     1      -2.733   6.376 135.810  0.00  0.00    +0.000 HD
ENDBRANCH   1  19
BRANCH  10  21
ATOM     21  O   UNL     1      -6.193   2.822 125.231  0.00  0.00    +0.000 OA
BRANCH  21  22
ATOM     22  C   UNL     1      -7.050   3.533 124.395  0.00  0.00    +0.000 C 
ATOM     23  O   UNL     1      -8.207   3.890 124.603  0.00  0.00    +0.000 OA
BRANCH  22  24
ATOM     24  C   UNL     1      -6.471   3.900 123.100  0.00  0.00    +0.000 A 
ATOM     25  C   UNL     1      -7.099   3.374 121.958  0.00  0.00    +0.000 A 
ATOM     26  C   UNL     1      -6.461   3.424 120.724  0.00  0.00    +0.000 A 
ATOM     27  C   UNL     1      -5.229   4.062 120.617  0.00  0.00    +0.000 A 
ATOM     28  C   UNL     1      -4.612   4.603 121.751  0.00  0.00    +0.000 A 
ATOM     29  C   UNL     1      -5.225   4.514 123.002  0.00  0.00    +0.000 A 
ENDBRANCH  22  24
ENDBRANCH  21  22
ENDBRANCH  10  21
TORSDOF 4
ENDMDL
MODEL 7
REMARK VINA RESULT:      -8.4     10.129     11.551
REMARK  Name = Estradiol benzoate
REMARK  5 active torsions:
REMARK  status: ('A' for Active; 'I' for Inactive)
REMARK    1  A    between atoms: C_2  and  O_3
REMARK    2  A    between atoms: C_14  and  O_15
REMARK    3  A    between atoms: O_15  and  C_16
REMARK    4  A    between atoms: C_16  and  C_18
REMARK    5  A    between atoms: C_31  and  C_32
REMARK                            x       y       z     vdW  Elec       q    Type
REMARK                         _______ _______ _______ _____ _____    ______ ____
ROOT
ATOM      1  C   UNL     1      -6.206  -4.855 137.221  0.00  0.00    +0.000 C 
ATOM      2  C   UNL     1      -5.424  -6.167 137.026  0.00  0.00    +0.000 C 
ATOM      3  C   UNL     1      -5.177  -6.296 135.506  0.00  0.00    +0.000 C 
ATOM      4  C   UNL     1      -5.713  -4.987 134.933  0.00  0.00    +0.000 C 
ATOM      5  C   UNL     1      -6.089  -4.894 133.452  0.00  0.00    +0.000 C 
ATOM      6  C   UNL     1      -4.926  -5.234 132.517  0.00  0.00    +0.000 C 
ATOM      7  C   UNL     1      -5.368  -5.184 131.048  0.00  0.00    +0.000 C 
ATOM      8  C   UNL     1      -6.244  -4.001 130.696  0.00  0.00    +0.000 A 
ATOM      9  C   UNL     1      -6.522  -3.715 129.334  0.00  0.00    +0.000 A 
ATOM     10  C   UNL     1      -7.350  -2.638 128.991  0.00  0.00    +0.000 A 
ATOM     11  C   UNL     1      -7.887  -1.861 130.009  0.00  0.00    +0.000 A 
ATOM     12  C   UNL     1      -7.619  -2.130 131.337  0.00  0.00    +0.000 A 
ATOM     13  C   UNL     1      -6.823  -3.209 131.708  0.00  0.00    +0.000 A 
ATOM     14  C   UNL     1      -6.532  -3.434 133.178  0.00  0.00    +0.000 C 
ATOM     15  C   UNL     1      -7.685  -3.005 134.124  0.00  0.00    +0.000 C 
ATOM     16  C   UNL     1      -7.355  -3.220 135.602  0.00  0.00    +0.000 C 
ATOM     17  C   UNL     1      -6.898  -4.654 135.864  0.00  0.00    +0.000 C 
ATOM     18  C   UNL     1      -8.107  -5.612 135.713  0.00  0.00    +0.000 C 
ENDROOT
BRANCH   1  19
ATOM     19  O   UNL     1      -7.115  -4.924 138.300  0.00  0.00    +0.000 OA
ATOM     20  H   UNL     1      -7.121  -4.051 138.730  0.00  0.00    +0.000 HD
ENDBRANCH   1  19
BRANCH  10  21
ATOM     21  O   UNL     1      -7.610  -2.375 127.616  0.00  0.00    +0.000 OA
BRANCH  21  22
ATOM     22  C   UNL     1      -8.693  -2.967 126.972  0.00  0.00    +0.000 C 
ATOM     23  O   UNL     1      -9.428  -3.868 127.371  0.00  0.00    +0.000 OA
BRANCH  22  24
ATOM     24  C   UNL     1      -8.982  -2.425 125.641  0.00  0.00    +0.000 A 
ATOM     25  C   UNL     1      -9.140  -3.358 124.602  0.00  0.00    +0.000 A 
ATOM     26  C   UNL     1      -9.124  -2.938 123.277  0.00  0.00    +0.000 A 
ATOM     27  C   UNL     1      -9.020  -1.579 122.992  0.00  0.00    +0.000 A 
ATOM     28  C   UNL     1      -8.882  -0.648 124.028  0.00  0.00    +0.000 A 
ATOM     29  C   UNL     1      -8.849  -1.068 125.360  0.00  0.00    +0.000 A 
ENDBRANCH  22  24
ENDBRANCH  21  22
ENDBRANCH  10  21
TORSDOF 4
ENDMDL
MODEL 8
REMARK VINA RESULT:      -8.3      7.362     10.694
REMARK  Name = Estradiol benzoate
REMARK  5 active torsions:
REMARK  status: ('A' for Active; 'I' for Inactive)
REMARK    1  A    between atoms: C_2  and  O_3
REMARK    2  A    between atoms: C_14  and  O_15
REMARK    3  A    between atoms: O_15  and  C_16
REMARK    4  A    between atoms: C_16  and  C_18
REMARK    5  A    between atoms: C_31  and  C_32
REMARK                            x       y       z     vdW  Elec       q    Type
REMARK                         _______ _______ _______ _____ _____    ______ ____
ROOT
ATOM      1  C   UNL     1      -7.524  -2.944 124.137  0.00  0.00    +0.000 C 
ATOM      2  C   UNL     1      -8.569  -2.364 123.167  0.00  0.00    +0.000 C 
ATOM      3  C   UNL     1      -8.397  -0.829 123.219  0.00  0.00    +0.000 C 
ATOM      4  C   UNL     1      -7.176  -0.626 124.112  0.00  0.00    +0.000 C 
ATOM      5  C   UNL     1      -6.943   0.723 124.798  0.00  0.00    +0.000 C 
ATOM      6  C   UNL     1      -6.849   1.888 123.810  0.00  0.00    +0.000 C 
ATOM      7  C   UNL     1      -6.674   3.222 124.547  0.00  0.00    +0.000 C 
ATOM      8  C   UNL     1      -5.689   3.180 125.695  0.00  0.00    +0.000 A 
ATOM      9  C   UNL     1      -5.266   4.392 126.301  0.00  0.00    +0.000 A 
ATOM     10  C   UNL     1      -4.373   4.370 127.381  0.00  0.00    +0.000 A 
ATOM     11  C   UNL     1      -3.913   3.144 127.839  0.00  0.00    +0.000 A 
ATOM     12  C   UNL     1      -4.317   1.960 127.253  0.00  0.00    +0.000 A 
ATOM     13  C   UNL     1      -5.224   1.948 126.199  0.00  0.00    +0.000 A 
ATOM     14  C   UNL     1      -5.603   0.622 125.570  0.00  0.00    +0.000 C 
ATOM     15  C   UNL     1      -5.610  -0.569 126.565  0.00  0.00    +0.000 C 
ATOM     16  C   UNL     1      -5.971  -1.898 125.899  0.00  0.00    +0.000 C 
ATOM     17  C   UNL     1      -7.280  -1.790 125.121  0.00  0.00    +0.000 C 
ATOM     18  C   UNL     1      -8.459  -1.656 126.119  0.00  0.00    +0.000 C 
ENDROOT
BRANCH   1  19
ATOM     19  O   UNL     1      -7.973  -4.125 124.770  0.00  0.00    +0.000 OA
ATOM     20  H   UNL     1      -7.235  -4.464 125.306  0.00  0.00    +0.000 HD
ENDBRANCH   1  19
BRANCH  10  21
ATOM     21  O   UNL     1      -3.965   5.602 127.967  0.00  0.00    +0.000 OA
BRANCH  21  22
ATOM     22  C   UNL     1      -4.495   6.018 129.186  0.00  0.00    +0.000 C 
ATOM     23  O   UNL     1      -5.648   5.920 129.598  0.00  0.00    +0.000 OA
BRANCH  22  24
ATOM     24  C   UNL     1      -3.528   6.652 130.086  0.00  0.00    +0.000 A 
ATOM     25  C   UNL     1      -2.241   6.086 130.127  0.00  0.00    +0.000 A 
ATOM     26  C   UNL     1      -1.361   6.426 131.148  0.00  0.00    +0.000 A 
ATOM     27  C   UNL     1      -1.738   7.383 132.086  0.00  0.00    +0.000 A 
ATOM     28  C   UNL     1      -3.012   7.960 132.034  0.00  0.00    +0.000 A 
ATOM     29  C   UNL     1      -3.920   7.588 131.039  0.00  0.00    +0.000 A 
ENDBRANCH  22  24
ENDBRANCH  21  22
ENDBRANCH  10  21
TORSDOF 4
ENDMDL
MODEL 9
REMARK VINA RESULT:      -8.3      9.021     11.945
REMARK  Name = Estradiol benzoate
REMARK  5 active torsions:
REMARK  status: ('A' for Active; 'I' for Inactive)
REMARK    1  A    between atoms: C_2  and  O_3
REMARK    2  A    between atoms: C_14  and  O_15
REMARK    3  A    between atoms: O_15  and  C_16
REMARK    4  A    between atoms: C_16  and  C_18
REMARK    5  A    between atoms: C_31  and  C_32
REMARK                            x       y       z     vdW  Elec       q    Type
REMARK                         _______ _______ _______ _____ _____    ______ ____
ROOT
ATOM      1  C   UNL     1      -8.972   2.660 124.156  0.00  0.00    +0.000 C 
ATOM      2  C   UNL     1      -9.412   1.745 122.999  0.00  0.00    +0.000 C 
ATOM      3  C   UNL     1      -9.344   0.301 123.545  0.00  0.00    +0.000 C 
ATOM      4  C   UNL     1      -9.001   0.481 125.020  0.00  0.00    +0.000 C 
ATOM      5  C   UNL     1      -8.389  -0.677 125.813  0.00  0.00    +0.000 C 
ATOM      6  C   UNL     1      -9.264  -1.933 125.810  0.00  0.00    +0.000 C 
ATOM      7  C   UNL     1      -8.582  -3.081 126.566  0.00  0.00    +0.000 C 
ATOM      8  C   UNL     1      -7.925  -2.673 127.867  0.00  0.00    +0.000 A 
ATOM      9  C   UNL     1      -7.469  -3.672 128.766  0.00  0.00    +0.000 A 
ATOM     10  C   UNL     1      -6.838  -3.312 129.964  0.00  0.00    +0.000 A 
ATOM     11  C   UNL     1      -6.671  -1.964 130.250  0.00  0.00    +0.000 A 
ATOM     12  C   UNL     1      -7.114  -0.986 129.382  0.00  0.00    +0.000 A 
ATOM     13  C   UNL     1      -7.720  -1.312 128.173  0.00  0.00    +0.000 A 
ATOM     14  C   UNL     1      -8.220  -0.197 127.277  0.00  0.00    +0.000 C 
ATOM     15  C   UNL     1      -7.375   1.103 127.353  0.00  0.00    +0.000 C 
ATOM     16  C   UNL     1      -7.917   2.219 126.460  0.00  0.00    +0.000 C 
ATOM     17  C   UNL     1      -8.103   1.736 125.022  0.00  0.00    +0.000 C 
ATOM     18  C   UNL     1      -6.712   1.517 124.373  0.00  0.00    +0.000 C 
ENDROOT
BRANCH   1  19
ATOM     19  O   UNL     1      -8.282   3.806 123.705  0.00  0.00    +0.000 OA
ATOM     20  H   UNL     1      -8.353   3.824 122.734  0.00  0.00    +0.000 HD
ENDBRANCH   1  19
BRANCH  10  21
ATOM     21  O   UNL     1      -6.392  -4.337 130.847  0.00  0.00    +0.000 OA
BRANCH  21  22
ATOM     22  C   UNL     1      -5.628  -4.026 131.968  0.00  0.00    +0.000 C 
ATOM     23  O   UNL     1      -4.459  -3.650 132.023  0.00  0.00    +0.000 OA
BRANCH  22  24
ATOM     24  C   UNL     1      -6.333  -4.166 133.245  0.00  0.00    +0.000 A 
ATOM     25  C   UNL     1      -6.006  -5.288 134.025  0.00  0.00    +0.000 A 
ATOM     26  C   UNL     1      -6.818  -5.658 135.092  0.00  0.00    +0.000 A 
ATOM     27  C   UNL     1      -7.914  -4.867 135.423  0.00  0.00    +0.000 A 
ATOM     28  C   UNL     1      -8.229  -3.738 134.658  0.00  0.00    +0.000 A 
ATOM     29  C   UNL     1      -7.446  -3.388 133.555  0.00  0.00    +0.000 A 
ENDBRANCH  22  24
ENDBRANCH  21  22
ENDBRANCH  10  21
TORSDOF 4
ENDMDL
