MODEL 1
REMARK VINA RESULT:      -8.0      0.000      0.000
REMARK  Name = Eszopiclone
REMARK  3 active torsions:
REMARK  status: ('A' for Active; 'I' for Inactive)
REMARK    1  A    between atoms: C_1  and  N_2
REMARK    2  A    between atoms: C_8  and  O_10
REMARK    3  A    between atoms: O_10  and  C_11
REMARK                            x       y       z     vdW  Elec       q    Type
REMARK                         _______ _______ _______ _____ _____    ______ ____
ROOT
ATOM      1  C   UNL     1      -9.097   5.752 129.567  0.00  0.00    +0.000 C 
ATOM      2  N   UNL     1      -9.533   5.534 130.939  0.00  0.00    +0.000 N 
ATOM      3  C   UNL     1     -10.583   6.474 131.253  0.00  0.00    +0.000 C 
ATOM      4  O   UNL     1     -11.163   6.632 132.289  0.00  0.00    +0.000 OA
ATOM      5  C   UNL     1     -10.913   7.229 129.990  0.00  0.00    +0.000 A 
ATOM      6  N   UNL     1     -11.783   8.262 129.733  0.00  0.00    +0.000 NA
ATOM      7  C   UNL     1     -11.924   8.597 128.412  0.00  0.00    +0.000 A 
ATOM      8  C   UNL     1     -11.365   7.836 127.429  0.00  0.00    +0.000 A 
ATOM      9  N   UNL     1     -10.562   6.787 127.723  0.00  0.00    +0.000 NA
ATOM     10  C   UNL     1     -10.232   6.597 129.013  0.00  0.00    +0.000 A 
ATOM     11  C   UNL     1      -8.767   4.762 131.884  0.00  0.00    +0.000 A 
ATOM     12  N   UNL     1      -7.443   4.999 132.118  0.00  0.00    +0.000 NA
ATOM     13  C   UNL     1      -6.753   4.119 132.945  0.00  0.00    +0.000 A 
ATOM     14  C   UNL     1      -7.253   2.911 133.400  0.00  0.00    +0.000 A 
ATOM     15 CL   UNL     1      -6.361   1.856 134.429  0.00  0.00    +0.000 Cl
ATOM     16  C   UNL     1      -8.553   2.615 133.042  0.00  0.00    +0.000 A 
ATOM     17  C   UNL     1      -9.342   3.598 132.401  0.00  0.00    +0.000 A 
ENDROOT
BRANCH   1  18
ATOM     18  O   UNL     1      -8.946   4.582 128.765  0.00  0.00    +0.000 OA
BRANCH  18  26
ATOM     19  C   UNL     1      -7.117   1.883 123.179  0.00  0.00    +0.000 C 
ATOM     20  N   UNL     1      -6.817   2.984 124.124  0.00  0.00    +0.000 NA
ATOM     21  C   UNL     1      -6.132   2.447 125.351  0.00  0.00    +0.000 C 
ATOM     22  C   UNL     1      -6.058   3.503 126.521  0.00  0.00    +0.000 C 
ATOM     23  N   UNL     1      -7.350   4.144 126.901  0.00  0.00    +0.000 N 
ATOM     24  C   UNL     1      -8.075   4.630 125.702  0.00  0.00    +0.000 C 
ATOM     25  C   UNL     1      -8.077   3.544 124.609  0.00  0.00    +0.000 C 
ATOM     26  C   UNL     1      -7.719   4.138 128.279  0.00  0.00    +0.000 C 
ATOM     27  O   UNL     1      -6.920   3.740 129.133  0.00  0.00    +0.000 OA
ENDBRANCH  18  26
ENDBRANCH   1  18
TORSDOF 2
ENDMDL
MODEL 2
REMARK VINA RESULT:      -8.0      1.611      2.540
REMARK  Name = Eszopiclone
REMARK  3 active torsions:
REMARK  status: ('A' for Active; 'I' for Inactive)
REMARK    1  A    between atoms: C_1  and  N_2
REMARK    2  A    between atoms: C_8  and  O_10
REMARK    3  A    between atoms: O_10  and  C_11
REMARK                            x       y       z     vdW  Elec       q    Type
REMARK                         _______ _______ _______ _____ _____    ______ ____
ROOT
ATOM      1  C   UNL     1      -8.882   5.586 129.580  0.00  0.00    +0.000 C 
ATOM      2  N   UNL     1      -9.322   5.408 130.956  0.00  0.00    +0.000 N 
ATOM      3  C   UNL     1     -10.336   6.390 131.257  0.00  0.00    +0.000 C 
ATOM      4  O   UNL     1     -10.907   6.586 132.291  0.00  0.00    +0.000 OA
ATOM      5  C   UNL     1     -10.643   7.135 129.983  0.00  0.00    +0.000 A 
ATOM      6  N   UNL     1     -11.475   8.194 129.710  0.00  0.00    +0.000 NA
ATOM      7  C   UNL     1     -11.608   8.512 128.383  0.00  0.00    +0.000 A 
ATOM      8  C   UNL     1     -11.080   7.715 127.413  0.00  0.00    +0.000 A 
ATOM      9  N   UNL     1     -10.315   6.642 127.722  0.00  0.00    +0.000 NA
ATOM     10  C   UNL     1      -9.988   6.462 129.015  0.00  0.00    +0.000 A 
ATOM     11  C   UNL     1      -8.582   4.624 131.913  0.00  0.00    +0.000 A 
ATOM     12  N   UNL     1      -7.249   4.816 132.140  0.00  0.00    +0.000 NA
ATOM     13  C   UNL     1      -6.589   3.926 132.980  0.00  0.00    +0.000 A 
ATOM     14  C   UNL     1      -7.131   2.745 133.456  0.00  0.00    +0.000 A 
ATOM     15 CL   UNL     1      -6.274   1.677 134.501  0.00  0.00    +0.000 Cl
ATOM     16  C   UNL     1      -8.442   2.491 133.107  0.00  0.00    +0.000 A 
ATOM     17  C   UNL     1      -9.197   3.490 132.451  0.00  0.00    +0.000 A 
ENDROOT
BRANCH   1  18
ATOM     18  O   UNL     1      -8.776   4.398 128.798  0.00  0.00    +0.000 OA
BRANCH  18  26
ATOM     19  C   UNL     1      -2.470   5.762 128.365  0.00  0.00    +0.000 C 
ATOM     20  N   UNL     1      -3.469   4.683 128.187  0.00  0.00    +0.000 NA
ATOM     21  C   UNL     1      -4.263   4.908 126.929  0.00  0.00    +0.000 C 
ATOM     22  C   UNL     1      -5.534   3.979 126.835  0.00  0.00    +0.000 C 
ATOM     23  N   UNL     1      -6.443   3.999 128.018  0.00  0.00    +0.000 N 
ATOM     24  C   UNL     1      -5.678   3.838 129.278  0.00  0.00    +0.000 C 
ATOM     25  C   UNL     1      -4.447   4.765 129.270  0.00  0.00    +0.000 C 
ATOM     26  C   UNL     1      -7.833   4.226 127.788  0.00  0.00    +0.000 C 
ATOM     27  O   UNL     1      -8.273   4.260 126.636  0.00  0.00    +0.000 OA
ENDBRANCH  18  26
ENDBRANCH   1  18
TORSDOF 2
ENDMDL
MODEL 3
REMARK VINA RESULT:      -7.7      2.125      2.783
REMARK  Name = Eszopiclone
REMARK  3 active torsions:
REMARK  status: ('A' for Active; 'I' for Inactive)
REMARK    1  A    between atoms: C_1  and  N_2
REMARK    2  A    between atoms: C_8  and  O_10
REMARK    3  A    between atoms: O_10  and  C_11
REMARK                            x       y       z     vdW  Elec       q    Type
REMARK                         _______ _______ _______ _____ _____    ______ ____
ROOT
ATOM      1  C   UNL     1      -9.283   5.938 129.381  0.00  0.00    +0.000 C 
ATOM      2  N   UNL     1      -8.760   5.809 130.733  0.00  0.00    +0.000 N 
ATOM      3  C   UNL     1      -9.737   6.318 131.666  0.00  0.00    +0.000 C 
ATOM      4  O   UNL     1      -9.657   6.418 132.856  0.00  0.00    +0.000 OA
ATOM      5  C   UNL     1     -10.979   6.663 130.883  0.00  0.00    +0.000 A 
ATOM      6  N   UNL     1     -12.176   7.227 131.254  0.00  0.00    +0.000 NA
ATOM      7  C   UNL     1     -13.141   7.252 130.280  0.00  0.00    +0.000 A 
ATOM      8  C   UNL     1     -12.962   6.604 129.095  0.00  0.00    +0.000 A 
ATOM      9  N   UNL     1     -11.787   6.005 128.791  0.00  0.00    +0.000 NA
ATOM     10  C   UNL     1     -10.760   6.180 129.643  0.00  0.00    +0.000 A 
ATOM     11  C   UNL     1      -7.367   5.559 131.007  0.00  0.00    +0.000 A 
ATOM     12  N   UNL     1      -6.369   6.318 130.465  0.00  0.00    +0.000 NA
ATOM     13  C   UNL     1      -5.053   5.922 130.676  0.00  0.00    +0.000 A 
ATOM     14  C   UNL     1      -4.675   4.712 131.231  0.00  0.00    +0.000 A 
ATOM     15 CL   UNL     1      -3.029   4.268 131.478  0.00  0.00    +0.000 Cl
ATOM     16  C   UNL     1      -5.699   3.888 131.653  0.00  0.00    +0.000 A 
ATOM     17  C   UNL     1      -7.028   4.371 131.659  0.00  0.00    +0.000 A 
ENDROOT
BRANCH   1  18
ATOM     18  O   UNL     1      -9.135   4.794 128.540  0.00  0.00    +0.000 OA
BRANCH  18  26
ATOM     19  C   UNL     1      -2.910   3.827 127.080  0.00  0.00    +0.000 C 
ATOM     20  N   UNL     1      -4.290   3.412 126.739  0.00  0.00    +0.000 NA
ATOM     21  C   UNL     1      -4.977   4.489 125.943  0.00  0.00    +0.000 C 
ATOM     22  C   UNL     1      -6.531   4.251 125.809  0.00  0.00    +0.000 C 
ATOM     23  N   UNL     1      -7.266   4.018 127.086  0.00  0.00    +0.000 N 
ATOM     24  C   UNL     1      -6.576   3.002 127.918  0.00  0.00    +0.000 C 
ATOM     25  C   UNL     1      -5.067   3.302 127.974  0.00  0.00    +0.000 C 
ATOM     26  C   UNL     1      -8.425   4.809 127.343  0.00  0.00    +0.000 C 
ATOM     27  O   UNL     1      -8.874   5.554 126.467  0.00  0.00    +0.000 OA
ENDBRANCH  18  26
ENDBRANCH   1  18
TORSDOF 2
ENDMDL
MODEL 4
REMARK VINA RESULT:      -7.7      5.856      7.460
REMARK  Name = Eszopiclone
REMARK  3 active torsions:
REMARK  status: ('A' for Active; 'I' for Inactive)
REMARK    1  A    between atoms: C_1  and  N_2
REMARK    2  A    between atoms: C_8  and  O_10
REMARK    3  A    between atoms: O_10  and  C_11
REMARK                            x       y       z     vdW  Elec       q    Type
REMARK                         _______ _______ _______ _____ _____    ______ ____
ROOT
ATOM      1  C   UNL     1      -5.630   2.816 126.872  0.00  0.00    +0.000 C 
ATOM      2  N   UNL     1      -6.255   3.514 125.758  0.00  0.00    +0.000 N 
ATOM      3  C   UNL     1      -5.888   4.909 125.810  0.00  0.00    +0.000 C 
ATOM      4  O   UNL     1      -6.234   5.804 125.093  0.00  0.00    +0.000 OA
ATOM      5  C   UNL     1      -4.887   5.076 126.926  0.00  0.00    +0.000 A 
ATOM      6  N   UNL     1      -4.258   6.183 127.443  0.00  0.00    +0.000 NA
ATOM      7  C   UNL     1      -3.284   5.926 128.373  0.00  0.00    +0.000 A 
ATOM      8  C   UNL     1      -2.868   4.652 128.622  0.00  0.00    +0.000 A 
ATOM      9  N   UNL     1      -3.474   3.588 128.044  0.00  0.00    +0.000 NA
ATOM     10  C   UNL     1      -4.580   3.821 127.314  0.00  0.00    +0.000 A 
ATOM     11  C   UNL     1      -7.334   2.943 124.991  0.00  0.00    +0.000 A 
ATOM     12  N   UNL     1      -8.457   2.433 125.577  0.00  0.00    +0.000 NA
ATOM     13  C   UNL     1      -9.383   1.782 124.770  0.00  0.00    +0.000 A 
ATOM     14  C   UNL     1      -9.170   1.440 123.446  0.00  0.00    +0.000 A 
ATOM     15 CL   UNL     1     -10.352   0.638 122.484  0.00  0.00    +0.000 Cl
ATOM     16  C   UNL     1      -7.969   1.843 122.898  0.00  0.00    +0.000 A 
ATOM     17  C   UNL     1      -7.119   2.703 123.631  0.00  0.00    +0.000 A 
ENDROOT
BRANCH   1  18
ATOM     18  O   UNL     1      -4.995   1.578 126.558  0.00  0.00    +0.000 OA
BRANCH  18  26
ATOM     19  C   UNL     1      -9.231  -3.034 124.944  0.00  0.00    +0.000 C 
ATOM     20  N   UNL     1      -7.816  -2.793 125.312  0.00  0.00    +0.000 NA
ATOM     21  C   UNL     1      -7.701  -2.515 126.786  0.00  0.00    +0.000 C 
ATOM     22  C   UNL     1      -6.283  -1.954 127.192  0.00  0.00    +0.000 C 
ATOM     23  N   UNL     1      -5.803  -0.775 126.415  0.00  0.00    +0.000 N 
ATOM     24  C   UNL     1      -5.962  -1.000 124.957  0.00  0.00    +0.000 C 
ATOM     25  C   UNL     1      -7.363  -1.566 124.660  0.00  0.00    +0.000 C 
ATOM     26  C   UNL     1      -5.349   0.365 127.142  0.00  0.00    +0.000 C 
ATOM     27  O   UNL     1      -5.229   0.309 128.370  0.00  0.00    +0.000 OA
ENDBRANCH  18  26
ENDBRANCH   1  18
TORSDOF 2
ENDMDL
MODEL 5
REMARK VINA RESULT:      -7.7      1.938      2.767
REMARK  Name = Eszopiclone
REMARK  3 active torsions:
REMARK  status: ('A' for Active; 'I' for Inactive)
REMARK    1  A    between atoms: C_1  and  N_2
REMARK    2  A    between atoms: C_8  and  O_10
REMARK    3  A    between atoms: O_10  and  C_11
REMARK                            x       y       z     vdW  Elec       q    Type
REMARK                         _______ _______ _______ _____ _____    ______ ____
ROOT
ATOM      1  C   UNL     1      -8.972   5.727 129.537  0.00  0.00    +0.000 C 
ATOM      2  N   UNL     1      -9.482   5.404 130.862  0.00  0.00    +0.000 N 
ATOM      3  C   UNL     1     -10.566   6.303 131.181  0.00  0.00    +0.000 C 
ATOM      4  O   UNL     1     -11.207   6.377 132.189  0.00  0.00    +0.000 OA
ATOM      5  C   UNL     1     -10.837   7.143 129.958  0.00  0.00    +0.000 A 
ATOM      6  N   UNL     1     -11.711   8.178 129.726  0.00  0.00    +0.000 NA
ATOM      7  C   UNL     1     -11.782   8.607 128.425  0.00  0.00    +0.000 A 
ATOM      8  C   UNL     1     -11.154   7.927 127.425  0.00  0.00    +0.000 A 
ATOM      9  N   UNL     1     -10.349   6.871 127.689  0.00  0.00    +0.000 NA
ATOM     10  C   UNL     1     -10.089   6.593 128.980  0.00  0.00    +0.000 A 
ATOM     11  C   UNL     1      -8.757   4.577 131.793  0.00  0.00    +0.000 A 
ATOM     12  N   UNL     1      -7.452   4.816 132.120  0.00  0.00    +0.000 NA
ATOM     13  C   UNL     1      -6.795   3.888 132.921  0.00  0.00    +0.000 A 
ATOM     14  C   UNL     1      -7.296   2.643 133.258  0.00  0.00    +0.000 A 
ATOM     15 CL   UNL     1      -6.445   1.531 134.259  0.00  0.00    +0.000 Cl
ATOM     16  C   UNL     1      -8.568   2.355 132.805  0.00  0.00    +0.000 A 
ATOM     17  C   UNL     1      -9.338   3.370 132.190  0.00  0.00    +0.000 A 
ENDROOT
BRANCH   1  18
ATOM     18  O   UNL     1      -8.753   4.621 128.663  0.00  0.00    +0.000 OA
BRANCH  18  26
ATOM     19  C   UNL     1      -6.379  -0.872 131.116  0.00  0.00    +0.000 C 
ATOM     20  N   UNL     1      -6.585  -0.124 129.855  0.00  0.00    +0.000 NA
ATOM     21  C   UNL     1      -5.604   1.013 129.755  0.00  0.00    +0.000 C 
ATOM     22  C   UNL     1      -5.960   2.027 128.600  0.00  0.00    +0.000 C 
ATOM     23  N   UNL     1      -7.353   2.560 128.608  0.00  0.00    +0.000 N 
ATOM     24  C   UNL     1      -8.339   1.464 128.766  0.00  0.00    +0.000 C 
ATOM     25  C   UNL     1      -7.900   0.516 129.897  0.00  0.00    +0.000 C 
ATOM     26  C   UNL     1      -7.527   3.974 128.537  0.00  0.00    +0.000 C 
ATOM     27  O   UNL     1      -6.556   4.709 128.332  0.00  0.00    +0.000 OA
ENDBRANCH  18  26
ENDBRANCH   1  18
TORSDOF 2
ENDMDL
MODEL 6
REMARK VINA RESULT:      -7.4      2.679      5.191
REMARK  Name = Eszopiclone
REMARK  3 active torsions:
REMARK  status: ('A' for Active; 'I' for Inactive)
REMARK    1  A    between atoms: C_1  and  N_2
REMARK    2  A    between atoms: C_8  and  O_10
REMARK    3  A    between atoms: O_10  and  C_11
REMARK                            x       y       z     vdW  Elec       q    Type
REMARK                         _______ _______ _______ _____ _____    ______ ____
ROOT
ATOM      1  C   UNL     1      -8.567   4.008 130.678  0.00  0.00    +0.000 C 
ATOM      2  N   UNL     1      -9.163   5.228 131.202  0.00  0.00    +0.000 N 
ATOM      3  C   UNL     1      -8.828   5.353 132.600  0.00  0.00    +0.000 C 
ATOM      4  O   UNL     1      -9.165   6.197 133.381  0.00  0.00    +0.000 OA
ATOM      5  C   UNL     1      -7.876   4.235 132.944  0.00  0.00    +0.000 A 
ATOM      6  N   UNL     1      -7.292   3.850 134.127  0.00  0.00    +0.000 NA
ATOM      7  C   UNL     1      -6.350   2.860 134.024  0.00  0.00    +0.000 A 
ATOM      8  C   UNL     1      -5.917   2.425 132.807  0.00  0.00    +0.000 A 
ATOM      9  N   UNL     1      -6.475   2.875 131.659  0.00  0.00    +0.000 NA
ATOM     10  C   UNL     1      -7.557   3.668 131.762  0.00  0.00    +0.000 A 
ATOM     11  C   UNL     1     -10.198   5.949 130.504  0.00  0.00    +0.000 A 
ATOM     12  N   UNL     1     -11.331   5.339 130.047  0.00  0.00    +0.000 NA
ATOM     13  C   UNL     1     -12.210   6.083 129.268  0.00  0.00    +0.000 A 
ATOM     14  C   UNL     1     -11.938   7.341 128.757  0.00  0.00    +0.000 A 
ATOM     15 CL   UNL     1     -13.063   8.226 127.801  0.00  0.00    +0.000 Cl
ATOM     16  C   UNL     1     -10.725   7.895 129.114  0.00  0.00    +0.000 A 
ATOM     17  C   UNL     1      -9.923   7.255 130.088  0.00  0.00    +0.000 A 
ENDROOT
BRANCH   1  18
ATOM     18  O   UNL     1      -7.892   4.127 129.427  0.00  0.00    +0.000 OA
BRANCH  18  26
ATOM     19  C   UNL     1      -5.856   4.034 123.289  0.00  0.00    +0.000 C 
ATOM     20  N   UNL     1      -5.871   3.257 124.550  0.00  0.00    +0.000 NA
ATOM     21  C   UNL     1      -7.235   2.666 124.783  0.00  0.00    +0.000 C 
ATOM     22  C   UNL     1      -7.409   2.088 126.241  0.00  0.00    +0.000 C 
ATOM     23  N   UNL     1      -7.062   3.018 127.355  0.00  0.00    +0.000 N 
ATOM     24  C   UNL     1      -5.746   3.660 127.120  0.00  0.00    +0.000 C 
ATOM     25  C   UNL     1      -5.660   4.173 125.670  0.00  0.00    +0.000 C 
ATOM     26  C   UNL     1      -8.021   3.201 128.395  0.00  0.00    +0.000 C 
ATOM     27  O   UNL     1      -9.036   2.499 128.433  0.00  0.00    +0.000 OA
ENDBRANCH  18  26
ENDBRANCH   1  18
TORSDOF 2
ENDMDL
MODEL 7
REMARK VINA RESULT:      -7.4      3.808      6.606
REMARK  Name = Eszopiclone
REMARK  3 active torsions:
REMARK  status: ('A' for Active; 'I' for Inactive)
REMARK    1  A    between atoms: C_1  and  N_2
REMARK    2  A    between atoms: C_8  and  O_10
REMARK    3  A    between atoms: O_10  and  C_11
REMARK                            x       y       z     vdW  Elec       q    Type
REMARK                         _______ _______ _______ _____ _____    ______ ____
ROOT
ATOM      1  C   UNL     1      -6.698   5.294 130.181  0.00  0.00    +0.000 C 
ATOM      2  N   UNL     1      -6.705   4.493 128.966  0.00  0.00    +0.000 N 
ATOM      3  C   UNL     1      -8.052   4.044 128.706  0.00  0.00    +0.000 C 
ATOM      4  O   UNL     1      -8.450   3.335 127.828  0.00  0.00    +0.000 OA
ATOM      5  C   UNL     1      -8.954   4.693 129.726  0.00  0.00    +0.000 A 
ATOM      6  N   UNL     1     -10.301   4.577 129.972  0.00  0.00    +0.000 NA
ATOM      7  C   UNL     1     -10.807   5.450 130.901  0.00  0.00    +0.000 A 
ATOM      8  C   UNL     1     -10.045   6.463 131.402  0.00  0.00    +0.000 A 
ATOM      9  N   UNL     1      -8.734   6.581 131.086  0.00  0.00    +0.000 NA
ATOM     10  C   UNL     1      -8.177   5.593 130.362  0.00  0.00    +0.000 A 
ATOM     11  C   UNL     1      -5.500   3.965 128.377  0.00  0.00    +0.000 A 
ATOM     12  N   UNL     1      -4.588   3.249 129.097  0.00  0.00    +0.000 NA
ATOM     13  C   UNL     1      -3.393   2.896 128.480  0.00  0.00    +0.000 A 
ATOM     14  C   UNL     1      -2.969   3.375 127.253  0.00  0.00    +0.000 A 
ATOM     15 CL   UNL     1      -1.481   2.903 126.526  0.00  0.00    +0.000 Cl
ATOM     16  C   UNL     1      -3.844   4.213 126.590  0.00  0.00    +0.000 A 
ATOM     17  C   UNL     1      -5.153   4.396 127.093  0.00  0.00    +0.000 A 
ENDROOT
BRANCH   1  18
ATOM     18  O   UNL     1      -5.974   6.523 130.118  0.00  0.00    +0.000 OA
BRANCH  18  26
ATOM     19  C   UNL     1      -1.137   6.837 134.398  0.00  0.00    +0.000 C 
ATOM     20  N   UNL     1      -1.631   6.098 133.214  0.00  0.00    +0.000 NA
ATOM     21  C   UNL     1      -1.442   6.922 131.968  0.00  0.00    +0.000 C 
ATOM     22  C   UNL     1      -2.215   6.335 130.725  0.00  0.00    +0.000 C 
ATOM     23  N   UNL     1      -3.665   6.057 130.932  0.00  0.00    +0.000 N 
ATOM     24  C   UNL     1      -3.886   5.296 132.186  0.00  0.00    +0.000 C 
ATOM     25  C   UNL     1      -3.078   5.927 133.336  0.00  0.00    +0.000 C 
ATOM     26  C   UNL     1      -4.590   6.590 129.986  0.00  0.00    +0.000 C 
ATOM     27  O   UNL     1      -4.178   7.139 128.959  0.00  0.00    +0.000 OA
ENDBRANCH  18  26
ENDBRANCH   1  18
TORSDOF 2
ENDMDL
MODEL 8
REMARK VINA RESULT:      -7.3      6.044      8.565
REMARK  Name = Eszopiclone
REMARK  3 active torsions:
REMARK  status: ('A' for Active; 'I' for Inactive)
REMARK    1  A    between atoms: C_1  and  N_2
REMARK    2  A    between atoms: C_8  and  O_10
REMARK    3  A    between atoms: O_10  and  C_11
REMARK                            x       y       z     vdW  Elec       q    Type
REMARK                         _______ _______ _______ _____ _____    ______ ____
ROOT
ATOM      1  C   UNL     1      -5.771  -0.873 128.228  0.00  0.00    +0.000 C 
ATOM      2  N   UNL     1      -6.552  -2.102 128.209  0.00  0.00    +0.000 N 
ATOM      3  C   UNL     1      -6.208  -2.896 129.365  0.00  0.00    +0.000 C 
ATOM      4  O   UNL     1      -6.606  -3.982 129.674  0.00  0.00    +0.000 OA
ATOM      5  C   UNL     1      -5.268  -2.080 130.216  0.00  0.00    +0.000 A 
ATOM      6  N   UNL     1      -4.598  -2.363 131.382  0.00  0.00    +0.000 NA
ATOM      7  C   UNL     1      -3.939  -1.305 131.954  0.00  0.00    +0.000 A 
ATOM      8  C   UNL     1      -4.095  -0.039 131.477  0.00  0.00    +0.000 A 
ATOM      9  N   UNL     1      -4.816   0.209 130.358  0.00  0.00    +0.000 NA
ATOM     10  C   UNL     1      -5.268  -0.850 129.662  0.00  0.00    +0.000 A 
ATOM     11  C   UNL     1      -7.249  -2.561 127.034  0.00  0.00    +0.000 A 
ATOM     12  N   UNL     1      -6.634  -2.682 125.821  0.00  0.00    +0.000 NA
ATOM     13  C   UNL     1      -7.415  -3.003 124.716  0.00  0.00    +0.000 A 
ATOM     14  C   UNL     1      -8.799  -3.022 124.710  0.00  0.00    +0.000 A 
ATOM     15 CL   UNL     1      -9.724  -3.432 123.316  0.00  0.00    +0.000 Cl
ATOM     16  C   UNL     1      -9.418  -2.762 125.917  0.00  0.00    +0.000 A 
ATOM     17  C   UNL     1      -8.641  -2.665 127.094  0.00  0.00    +0.000 A 
ENDROOT
BRANCH   1  18
ATOM     18  O   UNL     1      -6.491   0.330 127.962  0.00  0.00    +0.000 OA
BRANCH  18  26
ATOM     19  C   UNL     1     -10.107   0.520 122.604  0.00  0.00    +0.000 C 
ATOM     20  N   UNL     1      -9.476   1.365 123.645  0.00  0.00    +0.000 NA
ATOM     21  C   UNL     1      -7.990   1.447 123.420  0.00  0.00    +0.000 C 
ATOM     22  C   UNL     1      -7.220   2.069 124.649  0.00  0.00    +0.000 C 
ATOM     23  N   UNL     1      -7.499   1.445 125.975  0.00  0.00    +0.000 N 
ATOM     24  C   UNL     1      -8.958   1.298 126.196  0.00  0.00    +0.000 C 
ATOM     25  C   UNL     1      -9.626   0.706 124.941  0.00  0.00    +0.000 C 
ATOM     26  C   UNL     1      -6.385   1.038 126.768  0.00  0.00    +0.000 C 
ATOM     27  O   UNL     1      -5.237   1.328 126.420  0.00  0.00    +0.000 OA
ENDBRANCH  18  26
ENDBRANCH   1  18
TORSDOF 2
ENDMDL
MODEL 9
REMARK VINA RESULT:      -7.3      3.129      4.488
REMARK  Name = Eszopiclone
REMARK  3 active torsions:
REMARK  status: ('A' for Active; 'I' for Inactive)
REMARK    1  A    between atoms: C_1  and  N_2
REMARK    2  A    between atoms: C_8  and  O_10
REMARK    3  A    between atoms: O_10  and  C_11
REMARK                            x       y       z     vdW  Elec       q    Type
REMARK                         _______ _______ _______ _____ _____    ______ ____
ROOT
ATOM      1  C   UNL     1      -7.931   4.549 128.588  0.00  0.00    +0.000 C 
ATOM      2  N   UNL     1      -6.693   4.548 129.353  0.00  0.00    +0.000 N 
ATOM      3  C   UNL     1      -6.934   5.159 130.639  0.00  0.00    +0.000 C 
ATOM      4  O   UNL     1      -6.158   5.376 131.524  0.00  0.00    +0.000 OA
ATOM      5  C   UNL     1      -8.412   5.441 130.740  0.00  0.00    +0.000 A 
ATOM      6  N   UNL     1      -9.170   6.054 131.709  0.00  0.00    +0.000 NA
ATOM      7  C   UNL     1     -10.527   5.995 131.520  0.00  0.00    +0.000 A 
ATOM      8  C   UNL     1     -11.066   5.231 130.528  0.00  0.00    +0.000 A 
ATOM      9  N   UNL     1     -10.283   4.590 129.629  0.00  0.00    +0.000 NA
ATOM     10  C   UNL     1      -8.961   4.835 129.668  0.00  0.00    +0.000 A 
ATOM     11  C   UNL     1      -5.406   4.309 128.749  0.00  0.00    +0.000 A 
ATOM     12  N   UNL     1      -4.976   4.998 127.652  0.00  0.00    +0.000 NA
ATOM     13  C   UNL     1      -3.781   4.608 127.057  0.00  0.00    +0.000 A 
ATOM     14  C   UNL     1      -3.084   3.454 127.373  0.00  0.00    +0.000 A 
ATOM     15 CL   UNL     1      -1.603   3.016 126.611  0.00  0.00    +0.000 Cl
ATOM     16  C   UNL     1      -3.605   2.688 128.397  0.00  0.00    +0.000 A 
ATOM     17  C   UNL     1      -4.684   3.187 129.163  0.00  0.00    +0.000 A 
ENDROOT
BRANCH   1  18
ATOM     18  O   UNL     1      -8.263   3.326 127.932  0.00  0.00    +0.000 OA
BRANCH  18  26
ATOM     19  C   UNL     1      -6.414  -1.323 123.834  0.00  0.00    +0.000 C 
ATOM     20  N   UNL     1      -7.561  -0.473 124.230  0.00  0.00    +0.000 NA
ATOM     21  C   UNL     1      -7.362   0.935 123.737  0.00  0.00    +0.000 C 
ATOM     22  C   UNL     1      -8.382   1.955 124.376  0.00  0.00    +0.000 C 
ATOM     23  N   UNL     1      -8.462   1.947 125.865  0.00  0.00    +0.000 N 
ATOM     24  C   UNL     1      -8.599   0.564 126.382  0.00  0.00    +0.000 C 
ATOM     25  C   UNL     1      -7.582  -0.362 125.688  0.00  0.00    +0.000 C 
ATOM     26  C   UNL     1      -8.335   3.194 126.548  0.00  0.00    +0.000 C 
ATOM     27  O   UNL     1      -8.303   4.250 125.909  0.00  0.00    +0.000 OA
ENDBRANCH  18  26
ENDBRANCH   1  18
TORSDOF 2
ENDMDL
