MODEL 1
REMARK VINA RESULT:      -6.5      0.000      0.000
REMARK  Name = Etacrynic acid
REMARK  8 active torsions:
REMARK  status: ('A' for Active; 'I' for Inactive)
REMARK    1  A    between atoms: C_1  and  C_2
REMARK    2  A    between atoms: C_2  and  C_3
REMARK    3  A    between atoms: C_3  and  C_5
REMARK    4  A    between atoms: C_5  and  C_7
REMARK    5  A    between atoms: C_12  and  O_13
REMARK    6  A    between atoms: O_13  and  C_14
REMARK    7  A    between atoms: C_14  and  C_15
REMARK    8  A    between atoms: C_15  and  O_16
REMARK                            x       y       z     vdW  Elec       q    Type
REMARK                         _______ _______ _______ _____ _____    ______ ____
ROOT
ATOM      1  C   UNL     1      -8.138   0.671 124.075  0.00  0.00    +0.000 A 
ATOM      2  C   UNL     1      -8.728   1.470 123.080  0.00  0.00    +0.000 A 
ATOM      3 CL   UNL     1     -10.270   1.043 122.387  0.00  0.00    +0.000 Cl
ATOM      4  C   UNL     1      -8.074   2.642 122.657  0.00  0.00    +0.000 A 
ATOM      5 CL   UNL     1      -8.638   3.509 121.255  0.00  0.00    +0.000 Cl
ATOM      6  C   UNL     1      -6.926   3.113 123.325  0.00  0.00    +0.000 A 
ATOM      7  C   UNL     1      -6.431   2.381 124.411  0.00  0.00    +0.000 A 
ATOM      8  C   UNL     1      -7.021   1.157 124.772  0.00  0.00    +0.000 A 
ENDROOT
BRANCH   1   9
ATOM      9  C   UNL     1      -8.596  -0.723 124.363  0.00  0.00    +0.000 C 
ATOM     10  O   UNL     1      -9.239  -0.940 125.387  0.00  0.00    +0.000 OA
BRANCH   9  11
ATOM     11  C   UNL     1      -8.192  -1.847 123.424  0.00  0.00    +0.000 C 
ATOM     12  C   UNL     1      -9.012  -2.893 123.203  0.00  0.00    +0.000 C 
BRANCH  11  14
ATOM     13  C   UNL     1      -5.726  -2.486 123.500  0.00  0.00    +0.000 C 
ATOM     14  C   UNL     1      -6.834  -1.739 122.748  0.00  0.00    +0.000 C 
ENDBRANCH  11  14
ENDBRANCH   9  11
ENDBRANCH   1   9
BRANCH   6  15
ATOM     15  O   UNL     1      -6.384   4.286 122.849  0.00  0.00    +0.000 OA
BRANCH  15  16
ATOM     16  C   UNL     1      -5.079   4.230 122.284  0.00  0.00    +0.000 C 
BRANCH  16  17
ATOM     17  C   UNL     1      -4.979   5.017 120.984  0.00  0.00    +0.000 C 
ATOM     18  O   UNL     1      -5.569   4.681 119.958  0.00  0.00    +0.000 OA
BRANCH  17  19
ATOM     19  O   UNL     1      -4.197   6.117 121.032  0.00  0.00    +0.000 OA
ATOM     20  H   UNL     1      -4.437   6.716 121.771  0.00  0.00    +0.000 HD
ENDBRANCH  17  19
ENDBRANCH  16  17
ENDBRANCH  15  16
ENDBRANCH   6  15
TORSDOF 7
ENDMDL
MODEL 2
REMARK VINA RESULT:      -6.1      3.000      3.642
REMARK  Name = Etacrynic acid
REMARK  8 active torsions:
REMARK  status: ('A' for Active; 'I' for Inactive)
REMARK    1  A    between atoms: C_1  and  C_2
REMARK    2  A    between atoms: C_2  and  C_3
REMARK    3  A    between atoms: C_3  and  C_5
REMARK    4  A    between atoms: C_5  and  C_7
REMARK    5  A    between atoms: C_12  and  O_13
REMARK    6  A    between atoms: O_13  and  C_14
REMARK    7  A    between atoms: C_14  and  C_15
REMARK    8  A    between atoms: C_15  and  O_16
REMARK                            x       y       z     vdW  Elec       q    Type
REMARK                         _______ _______ _______ _____ _____    ______ ____
ROOT
ATOM      1  C   UNL     1      -7.717  -1.327 124.795  0.00  0.00    +0.000 A 
ATOM      2  C   UNL     1      -8.621  -0.623 123.981  0.00  0.00    +0.000 A 
ATOM      3 CL   UNL     1      -9.431  -1.413 122.654  0.00  0.00    +0.000 Cl
ATOM      4  C   UNL     1      -8.893   0.729 124.258  0.00  0.00    +0.000 A 
ATOM      5 CL   UNL     1      -9.797   1.696 123.125  0.00  0.00    +0.000 Cl
ATOM      6  C   UNL     1      -8.403   1.342 125.428  0.00  0.00    +0.000 A 
ATOM      7  C   UNL     1      -7.620   0.584 126.308  0.00  0.00    +0.000 A 
ATOM      8  C   UNL     1      -7.262  -0.736 125.985  0.00  0.00    +0.000 A 
ENDROOT
BRANCH   1   9
ATOM      9  C   UNL     1      -7.142  -2.650 124.403  0.00  0.00    +0.000 C 
ATOM     10  O   UNL     1      -7.678  -3.677 124.809  0.00  0.00    +0.000 OA
BRANCH   9  11
ATOM     11  C   UNL     1      -5.869  -2.691 123.574  0.00  0.00    +0.000 C 
ATOM     12  C   UNL     1      -5.807  -2.088 122.370  0.00  0.00    +0.000 C 
BRANCH  11  14
ATOM     13  C   UNL     1      -4.398  -4.768 123.461  0.00  0.00    +0.000 C 
ATOM     14  C   UNL     1      -4.677  -3.433 124.159  0.00  0.00    +0.000 C 
ENDBRANCH  11  14
ENDBRANCH   9  11
ENDBRANCH   1   9
BRANCH   6  15
ATOM     15  O   UNL     1      -8.756   2.660 125.617  0.00  0.00    +0.000 OA
BRANCH  15  16
ATOM     16  C   UNL     1      -7.795   3.522 126.217  0.00  0.00    +0.000 C 
BRANCH  16  17
ATOM     17  C   UNL     1      -7.997   4.977 125.816  0.00  0.00    +0.000 C 
ATOM     18  O   UNL     1      -9.021   5.603 126.083  0.00  0.00    +0.000 OA
BRANCH  17  19
ATOM     19  O   UNL     1      -6.968   5.540 125.146  0.00  0.00    +0.000 OA
ATOM     20  H   UNL     1      -6.278   4.888 124.902  0.00  0.00    +0.000 HD
ENDBRANCH  17  19
ENDBRANCH  16  17
ENDBRANCH  15  16
ENDBRANCH   6  15
TORSDOF 7
ENDMDL
MODEL 3
REMARK VINA RESULT:      -6.1      3.536      4.837
REMARK  Name = Etacrynic acid
REMARK  8 active torsions:
REMARK  status: ('A' for Active; 'I' for Inactive)
REMARK    1  A    between atoms: C_1  and  C_2
REMARK    2  A    between atoms: C_2  and  C_3
REMARK    3  A    between atoms: C_3  and  C_5
REMARK    4  A    between atoms: C_5  and  C_7
REMARK    5  A    between atoms: C_12  and  O_13
REMARK    6  A    between atoms: O_13  and  C_14
REMARK    7  A    between atoms: C_14  and  C_15
REMARK    8  A    between atoms: C_15  and  O_16
REMARK                            x       y       z     vdW  Elec       q    Type
REMARK                         _______ _______ _______ _____ _____    ______ ____
ROOT
ATOM      1  C   UNL     1      -7.958  -1.720 126.337  0.00  0.00    +0.000 A 
ATOM      2  C   UNL     1      -8.090  -2.265 125.049  0.00  0.00    +0.000 A 
ATOM      3 CL   UNL     1      -7.837  -3.966 124.766  0.00  0.00    +0.000 Cl
ATOM      4  C   UNL     1      -8.458  -1.427 123.978  0.00  0.00    +0.000 A 
ATOM      5 CL   UNL     1      -8.377  -2.007 122.338  0.00  0.00    +0.000 Cl
ATOM      6  C   UNL     1      -8.852  -0.093 124.204  0.00  0.00    +0.000 A 
ATOM      7  C   UNL     1      -8.853   0.395 125.516  0.00  0.00    +0.000 A 
ATOM      8  C   UNL     1      -8.391  -0.406 126.574  0.00  0.00    +0.000 A 
ENDROOT
BRANCH   1   9
ATOM      9  C   UNL     1      -7.287  -2.452 127.455  0.00  0.00    +0.000 C 
ATOM     10  O   UNL     1      -6.060  -2.495 127.488  0.00  0.00    +0.000 OA
BRANCH   9  11
ATOM     11  C   UNL     1      -8.136  -3.185 128.479  0.00  0.00    +0.000 C 
ATOM     12  C   UNL     1      -9.093  -4.052 128.091  0.00  0.00    +0.000 C 
BRANCH  11  14
ATOM     13  C   UNL     1      -7.952  -1.413 130.301  0.00  0.00    +0.000 C 
ATOM     14  C   UNL     1      -7.861  -2.902 129.947  0.00  0.00    +0.000 C 
ENDBRANCH  11  14
ENDBRANCH   9  11
ENDBRANCH   1   9
BRANCH   6  15
ATOM     15  O   UNL     1      -9.222   0.628 123.090  0.00  0.00    +0.000 OA
BRANCH  15  16
ATOM     16  C   UNL     1      -9.396   2.032 123.240  0.00  0.00    +0.000 C 
BRANCH  16  17
ATOM     17  C   UNL     1      -8.292   2.826 122.553  0.00  0.00    +0.000 C 
ATOM     18  O   UNL     1      -7.098   2.611 122.753  0.00  0.00    +0.000 OA
BRANCH  17  19
ATOM     19  O   UNL     1      -8.714   3.787 121.703  0.00  0.00    +0.000 OA
ATOM     20  H   UNL     1      -8.147   4.586 121.729  0.00  0.00    +0.000 HD
ENDBRANCH  17  19
ENDBRANCH  16  17
ENDBRANCH  15  16
ENDBRANCH   6  15
TORSDOF 7
ENDMDL
MODEL 4
REMARK VINA RESULT:      -6.0      5.406      7.757
REMARK  Name = Etacrynic acid
REMARK  8 active torsions:
REMARK  status: ('A' for Active; 'I' for Inactive)
REMARK    1  A    between atoms: C_1  and  C_2
REMARK    2  A    between atoms: C_2  and  C_3
REMARK    3  A    between atoms: C_3  and  C_5
REMARK    4  A    between atoms: C_5  and  C_7
REMARK    5  A    between atoms: C_12  and  O_13
REMARK    6  A    between atoms: O_13  and  C_14
REMARK    7  A    between atoms: C_14  and  C_15
REMARK    8  A    between atoms: C_15  and  O_16
REMARK                            x       y       z     vdW  Elec       q    Type
REMARK                         _______ _______ _______ _____ _____    ______ ____
ROOT
ATOM      1  C   UNL     1      -8.343  -2.211 126.841  0.00  0.00    +0.000 A 
ATOM      2  C   UNL     1      -7.343  -1.343 127.311  0.00  0.00    +0.000 A 
ATOM      3 CL   UNL     1      -7.043   0.185 126.526  0.00  0.00    +0.000 Cl
ATOM      4  C   UNL     1      -6.592  -1.703 128.446  0.00  0.00    +0.000 A 
ATOM      5 CL   UNL     1      -5.183  -0.785 128.898  0.00  0.00    +0.000 Cl
ATOM      6  C   UNL     1      -6.934  -2.836 129.211  0.00  0.00    +0.000 A 
ATOM      7  C   UNL     1      -8.027  -3.614 128.811  0.00  0.00    +0.000 A 
ATOM      8  C   UNL     1      -8.716  -3.316 127.623  0.00  0.00    +0.000 A 
ENDROOT
BRANCH   1   9
ATOM      9  C   UNL     1      -8.969  -2.062 125.491  0.00  0.00    +0.000 C 
ATOM     10  O   UNL     1      -9.804  -1.179 125.315  0.00  0.00    +0.000 OA
BRANCH   9  11
ATOM     11  C   UNL     1      -8.612  -3.049 124.393  0.00  0.00    +0.000 C 
ATOM     12  C   UNL     1      -9.531  -3.439 123.487  0.00  0.00    +0.000 C 
BRANCH  11  14
ATOM     13  C   UNL     1      -6.184  -2.559 123.793  0.00  0.00    +0.000 C 
ATOM     14  C   UNL     1      -7.185  -3.573 124.360  0.00  0.00    +0.000 C 
ENDBRANCH  11  14
ENDBRANCH   9  11
ENDBRANCH   1   9
BRANCH   6  15
ATOM     15  O   UNL     1      -6.153  -3.079 130.319  0.00  0.00    +0.000 OA
BRANCH  15  16
ATOM     16  C   UNL     1      -5.276  -4.199 130.278  0.00  0.00    +0.000 C 
BRANCH  16  17
ATOM     17  C   UNL     1      -3.832  -3.791 130.022  0.00  0.00    +0.000 C 
ATOM     18  O   UNL     1      -3.307  -3.866 128.912  0.00  0.00    +0.000 OA
BRANCH  17  19
ATOM     19  O   UNL     1      -3.160  -3.335 131.102  0.00  0.00    +0.000 OA
ATOM     20  H   UNL     1      -3.759  -3.069 131.831  0.00  0.00    +0.000 HD
ENDBRANCH  17  19
ENDBRANCH  16  17
ENDBRANCH  15  16
ENDBRANCH   6  15
TORSDOF 7
ENDMDL
MODEL 5
REMARK VINA RESULT:      -5.9      3.113      3.966
REMARK  Name = Etacrynic acid
REMARK  8 active torsions:
REMARK  status: ('A' for Active; 'I' for Inactive)
REMARK    1  A    between atoms: C_1  and  C_2
REMARK    2  A    between atoms: C_2  and  C_3
REMARK    3  A    between atoms: C_3  and  C_5
REMARK    4  A    between atoms: C_5  and  C_7
REMARK    5  A    between atoms: C_12  and  O_13
REMARK    6  A    between atoms: O_13  and  C_14
REMARK    7  A    between atoms: C_14  and  C_15
REMARK    8  A    between atoms: C_15  and  O_16
REMARK                            x       y       z     vdW  Elec       q    Type
REMARK                         _______ _______ _______ _____ _____    ______ ____
ROOT
ATOM      1  C   UNL     1      -7.721  -0.647 125.407  0.00  0.00    +0.000 A 
ATOM      2  C   UNL     1      -7.311  -0.072 124.192  0.00  0.00    +0.000 A 
ATOM      3 CL   UNL     1      -6.553  -1.039 122.955  0.00  0.00    +0.000 Cl
ATOM      4  C   UNL     1      -7.540   1.298 123.963  0.00  0.00    +0.000 A 
ATOM      5 CL   UNL     1      -6.818   2.095 122.593  0.00  0.00    +0.000 Cl
ATOM      6  C   UNL     1      -8.314   2.063 124.858  0.00  0.00    +0.000 A 
ATOM      7  C   UNL     1      -8.840   1.439 125.996  0.00  0.00    +0.000 A 
ATOM      8  C   UNL     1      -8.530   0.098 126.280  0.00  0.00    +0.000 A 
ENDROOT
BRANCH   1   9
ATOM      9  C   UNL     1      -7.255  -1.995 125.857  0.00  0.00    +0.000 C 
ATOM     10  O   UNL     1      -6.088  -2.135 126.210  0.00  0.00    +0.000 OA
BRANCH   9  11
ATOM     11  C   UNL     1      -8.215  -3.171 125.796  0.00  0.00    +0.000 C 
ATOM     12  C   UNL     1      -8.900  -3.562 126.889  0.00  0.00    +0.000 C 
BRANCH  11  14
ATOM     13  C   UNL     1      -9.483  -3.289 123.589  0.00  0.00    +0.000 C 
ATOM     14  C   UNL     1      -8.368  -3.880 124.460  0.00  0.00    +0.000 C 
ENDBRANCH  11  14
ENDBRANCH   9  11
ENDBRANCH   1   9
BRANCH   6  15
ATOM     15  O   UNL     1      -8.502   3.385 124.522  0.00  0.00    +0.000 OA
BRANCH  15  16
ATOM     16  C   UNL     1      -7.696   4.355 125.180  0.00  0.00    +0.000 C 
BRANCH  16  17
ATOM     17  C   UNL     1      -8.461   5.100 126.266  0.00  0.00    +0.000 C 
ATOM     18  O   UNL     1      -8.354   4.826 127.460  0.00  0.00    +0.000 OA
BRANCH  17  19
ATOM     19  O   UNL     1      -9.270   6.090 125.828  0.00  0.00    +0.000 OA
ATOM     20  H   UNL     1      -9.384   6.077 124.854  0.00  0.00    +0.000 HD
ENDBRANCH  17  19
ENDBRANCH  16  17
ENDBRANCH  15  16
ENDBRANCH   6  15
TORSDOF 7
ENDMDL
MODEL 6
REMARK VINA RESULT:      -5.9      2.088      2.788
REMARK  Name = Etacrynic acid
REMARK  8 active torsions:
REMARK  status: ('A' for Active; 'I' for Inactive)
REMARK    1  A    between atoms: C_1  and  C_2
REMARK    2  A    between atoms: C_2  and  C_3
REMARK    3  A    between atoms: C_3  and  C_5
REMARK    4  A    between atoms: C_5  and  C_7
REMARK    5  A    between atoms: C_12  and  O_13
REMARK    6  A    between atoms: O_13  and  C_14
REMARK    7  A    between atoms: C_14  and  C_15
REMARK    8  A    between atoms: C_15  and  O_16
REMARK                            x       y       z     vdW  Elec       q    Type
REMARK                         _______ _______ _______ _____ _____    ______ ____
ROOT
ATOM      1  C   UNL     1      -7.400  -0.749 124.084  0.00  0.00    +0.000 A 
ATOM      2  C   UNL     1      -8.218   0.375 123.880  0.00  0.00    +0.000 A 
ATOM      3 CL   UNL     1      -9.700   0.250 122.970  0.00  0.00    +0.000 Cl
ATOM      4  C   UNL     1      -7.847   1.611 124.441  0.00  0.00    +0.000 A 
ATOM      5 CL   UNL     1      -8.689   3.069 123.995  0.00  0.00    +0.000 Cl
ATOM      6  C   UNL     1      -6.761   1.705 125.334  0.00  0.00    +0.000 A 
ATOM      7  C   UNL     1      -6.041   0.545 125.643  0.00  0.00    +0.000 A 
ATOM      8  C   UNL     1      -6.345  -0.671 125.007  0.00  0.00    +0.000 A 
ENDROOT
BRANCH   1   9
ATOM      9  C   UNL     1      -7.547  -2.007 123.289  0.00  0.00    +0.000 C 
ATOM     10  O   UNL     1      -6.951  -2.110 122.220  0.00  0.00    +0.000 OA
BRANCH   9  11
ATOM     11  C   UNL     1      -8.486  -3.094 123.784  0.00  0.00    +0.000 C 
ATOM     12  C   UNL     1      -9.679  -3.301 123.192  0.00  0.00    +0.000 C 
BRANCH  11  14
ATOM     13  C   UNL     1      -8.634  -3.484 126.298  0.00  0.00    +0.000 C 
ATOM     14  C   UNL     1      -8.023  -3.932 124.966  0.00  0.00    +0.000 C 
ENDBRANCH  11  14
ENDBRANCH   9  11
ENDBRANCH   1   9
BRANCH   6  15
ATOM     15  O   UNL     1      -6.504   2.957 125.849  0.00  0.00    +0.000 OA
BRANCH  15  16
ATOM     16  C   UNL     1      -5.368   3.655 125.353  0.00  0.00    +0.000 C 
BRANCH  16  17
ATOM     17  C   UNL     1      -5.753   4.767 124.386  0.00  0.00    +0.000 C 
ATOM     18  O   UNL     1      -5.504   4.716 123.183  0.00  0.00    +0.000 OA
BRANCH  17  19
ATOM     19  O   UNL     1      -6.391   5.820 124.941  0.00  0.00    +0.000 OA
ATOM     20  H   UNL     1      -7.305   5.600 125.221  0.00  0.00    +0.000 HD
ENDBRANCH  17  19
ENDBRANCH  16  17
ENDBRANCH  15  16
ENDBRANCH   6  15
TORSDOF 7
ENDMDL
MODEL 7
REMARK VINA RESULT:      -5.9      5.113      7.281
REMARK  Name = Etacrynic acid
REMARK  8 active torsions:
REMARK  status: ('A' for Active; 'I' for Inactive)
REMARK    1  A    between atoms: C_1  and  C_2
REMARK    2  A    between atoms: C_2  and  C_3
REMARK    3  A    between atoms: C_3  and  C_5
REMARK    4  A    between atoms: C_5  and  C_7
REMARK    5  A    between atoms: C_12  and  O_13
REMARK    6  A    between atoms: O_13  and  C_14
REMARK    7  A    between atoms: C_14  and  C_15
REMARK    8  A    between atoms: C_15  and  O_16
REMARK                            x       y       z     vdW  Elec       q    Type
REMARK                         _______ _______ _______ _____ _____    ______ ____
ROOT
ATOM      1  C   UNL     1      -7.264  -2.881 128.755  0.00  0.00    +0.000 A 
ATOM      2  C   UNL     1      -7.097  -1.786 127.890  0.00  0.00    +0.000 A 
ATOM      3 CL   UNL     1      -5.795  -0.650 128.125  0.00  0.00    +0.000 Cl
ATOM      4  C   UNL     1      -7.979  -1.620 126.806  0.00  0.00    +0.000 A 
ATOM      5 CL   UNL     1      -7.966  -0.147 125.877  0.00  0.00    +0.000 Cl
ATOM      6  C   UNL     1      -8.921  -2.616 126.479  0.00  0.00    +0.000 A 
ATOM      7  C   UNL     1      -8.978  -3.773 127.266  0.00  0.00    +0.000 A 
ATOM      8  C   UNL     1      -8.169  -3.897 128.409  0.00  0.00    +0.000 A 
ENDROOT
BRANCH   1   9
ATOM      9  C   UNL     1      -6.582  -2.969 130.083  0.00  0.00    +0.000 C 
ATOM     10  O   UNL     1      -6.940  -2.220 130.988  0.00  0.00    +0.000 OA
BRANCH   9  11
ATOM     11  C   UNL     1      -5.417  -3.928 130.258  0.00  0.00    +0.000 C 
ATOM     12  C   UNL     1      -5.499  -4.969 131.109  0.00  0.00    +0.000 C 
BRANCH  11  14
ATOM     13  C   UNL     1      -3.324  -2.502 129.975  0.00  0.00    +0.000 C 
ATOM     14  C   UNL     1      -4.165  -3.664 129.435  0.00  0.00    +0.000 C 
ENDBRANCH  11  14
ENDBRANCH   9  11
ENDBRANCH   1   9
BRANCH   6  15
ATOM     15  O   UNL     1      -9.712  -2.366 125.380  0.00  0.00    +0.000 OA
BRANCH  15  16
ATOM     16  C   UNL     1      -9.347  -2.980 124.149  0.00  0.00    +0.000 C 
BRANCH  16  17
ATOM     17  C   UNL     1      -9.117  -1.959 123.042  0.00  0.00    +0.000 C 
ATOM     18  O   UNL     1      -9.941  -1.090 122.760  0.00  0.00    +0.000 OA
BRANCH  17  19
ATOM     19  O   UNL     1      -7.941  -2.070 122.389  0.00  0.00    +0.000 OA
ATOM     20  H   UNL     1      -7.263  -2.544 122.915  0.00  0.00    +0.000 HD
ENDBRANCH  17  19
ENDBRANCH  16  17
ENDBRANCH  15  16
ENDBRANCH   6  15
TORSDOF 7
ENDMDL
MODEL 8
REMARK VINA RESULT:      -5.8      5.835      7.662
REMARK  Name = Etacrynic acid
REMARK  8 active torsions:
REMARK  status: ('A' for Active; 'I' for Inactive)
REMARK    1  A    between atoms: C_1  and  C_2
REMARK    2  A    between atoms: C_2  and  C_3
REMARK    3  A    between atoms: C_3  and  C_5
REMARK    4  A    between atoms: C_5  and  C_7
REMARK    5  A    between atoms: C_12  and  O_13
REMARK    6  A    between atoms: O_13  and  C_14
REMARK    7  A    between atoms: C_14  and  C_15
REMARK    8  A    between atoms: C_15  and  O_16
REMARK                            x       y       z     vdW  Elec       q    Type
REMARK                         _______ _______ _______ _____ _____    ______ ____
ROOT
ATOM      1  C   UNL     1      -7.697  -2.043 126.708  0.00  0.00    +0.000 A 
ATOM      2  C   UNL     1      -7.904  -2.798 127.875  0.00  0.00    +0.000 A 
ATOM      3 CL   UNL     1      -9.088  -4.077 127.917  0.00  0.00    +0.000 Cl
ATOM      4  C   UNL     1      -7.125  -2.532 129.017  0.00  0.00    +0.000 A 
ATOM      5 CL   UNL     1      -7.526  -3.261 130.547  0.00  0.00    +0.000 Cl
ATOM      6  C   UNL     1      -6.036  -1.638 128.960  0.00  0.00    +0.000 A 
ATOM      7  C   UNL     1      -5.752  -1.000 127.747  0.00  0.00    +0.000 A 
ATOM      8  C   UNL     1      -6.588  -1.185 126.633  0.00  0.00    +0.000 A 
ENDROOT
BRANCH   1   9
ATOM      9  C   UNL     1      -8.665  -2.044 125.568  0.00  0.00    +0.000 C 
ATOM     10  O   UNL     1      -9.653  -1.317 125.624  0.00  0.00    +0.000 OA
BRANCH   9  11
ATOM     11  C   UNL     1      -8.441  -2.995 124.405  0.00  0.00    +0.000 C 
ATOM     12  C   UNL     1      -9.401  -3.195 123.480  0.00  0.00    +0.000 C 
BRANCH  11  14
ATOM     13  C   UNL     1      -6.054  -2.930 123.515  0.00  0.00    +0.000 C 
ATOM     14  C   UNL     1      -7.098  -3.704 124.329  0.00  0.00    +0.000 C 
ENDBRANCH  11  14
ENDBRANCH   9  11
ENDBRANCH   1   9
BRANCH   6  15
ATOM     15  O   UNL     1      -5.322  -1.476 130.127  0.00  0.00    +0.000 OA
BRANCH  15  16
ATOM     16  C   UNL     1      -3.922  -1.731 130.086  0.00  0.00    +0.000 C 
BRANCH  16  17
ATOM     17  C   UNL     1      -3.610  -3.220 130.021  0.00  0.00    +0.000 C 
ATOM     18  O   UNL     1      -2.977  -3.725 129.095  0.00  0.00    +0.000 OA
BRANCH  17  19
ATOM     19  O   UNL     1      -4.073  -3.953 131.056  0.00  0.00    +0.000 OA
ATOM     20  H   UNL     1      -3.991  -4.917 130.899  0.00  0.00    +0.000 HD
ENDBRANCH  17  19
ENDBRANCH  16  17
ENDBRANCH  15  16
ENDBRANCH   6  15
TORSDOF 7
ENDMDL
MODEL 9
REMARK VINA RESULT:      -5.7      3.956      4.515
REMARK  Name = Etacrynic acid
REMARK  8 active torsions:
REMARK  status: ('A' for Active; 'I' for Inactive)
REMARK    1  A    between atoms: C_1  and  C_2
REMARK    2  A    between atoms: C_2  and  C_3
REMARK    3  A    between atoms: C_3  and  C_5
REMARK    4  A    between atoms: C_5  and  C_7
REMARK    5  A    between atoms: C_12  and  O_13
REMARK    6  A    between atoms: O_13  and  C_14
REMARK    7  A    between atoms: C_14  and  C_15
REMARK    8  A    between atoms: C_15  and  O_16
REMARK                            x       y       z     vdW  Elec       q    Type
REMARK                         _______ _______ _______ _____ _____    ______ ____
ROOT
ATOM      1  C   UNL     1      -8.487  -1.038 125.935  0.00  0.00    +0.000 A 
ATOM      2  C   UNL     1      -7.527  -0.656 126.889  0.00  0.00    +0.000 A 
ATOM      3 CL   UNL     1      -6.299  -1.773 127.419  0.00  0.00    +0.000 Cl
ATOM      4  C   UNL     1      -7.546   0.654 127.402  0.00  0.00    +0.000 A 
ATOM      5 CL   UNL     1      -6.548   1.082 128.764  0.00  0.00    +0.000 Cl
ATOM      6  C   UNL     1      -8.402   1.634 126.859  0.00  0.00    +0.000 A 
ATOM      7  C   UNL     1      -9.254   1.274 125.807  0.00  0.00    +0.000 A 
ATOM      8  C   UNL     1      -9.311  -0.057 125.361  0.00  0.00    +0.000 A 
ENDROOT
BRANCH   1   9
ATOM      9  C   UNL     1      -8.733  -2.466 125.569  0.00  0.00    +0.000 C 
ATOM     10  O   UNL     1      -9.010  -3.270 126.456  0.00  0.00    +0.000 OA
BRANCH   9  11
ATOM     11  C   UNL     1      -8.563  -2.903 124.124  0.00  0.00    +0.000 C 
ATOM     12  C   UNL     1      -9.591  -3.443 123.439  0.00  0.00    +0.000 C 
BRANCH  11  14
ATOM     13  C   UNL     1      -6.076  -3.447 124.226  0.00  0.00    +0.000 C 
ATOM     14  C   UNL     1      -7.196  -2.704 123.490  0.00  0.00    +0.000 C 
ENDBRANCH  11  14
ENDBRANCH   9  11
ENDBRANCH   1   9
BRANCH   6  15
ATOM     15  O   UNL     1      -8.317   2.891 127.414  0.00  0.00    +0.000 OA
BRANCH  15  16
ATOM     16  C   UNL     1      -7.467   3.838 126.777  0.00  0.00    +0.000 C 
BRANCH  16  17
ATOM     17  C   UNL     1      -8.219   4.706 125.777  0.00  0.00    +0.000 C 
ATOM     18  O   UNL     1      -8.925   5.653 126.120  0.00  0.00    +0.000 OA
BRANCH  17  19
ATOM     19  O   UNL     1      -8.056   4.368 124.480  0.00  0.00    +0.000 OA
ATOM     20  H   UNL     1      -8.636   4.884 123.882  0.00  0.00    +0.000 HD
ENDBRANCH  17  19
ENDBRANCH  16  17
ENDBRANCH  15  16
ENDBRANCH   6  15
TORSDOF 7
ENDMDL
