MODEL 1
REMARK VINA RESULT:      -5.7      0.000      0.000
REMARK  Name = Etafedrine
REMARK  8 active torsions:
REMARK  status: ('A' for Active; 'I' for Inactive)
REMARK    1  A    between atoms: C_1  and  C_2
REMARK    2  A    between atoms: C_2  and  N_3
REMARK    3  A    between atoms: N_3  and  C_4
REMARK    4  A    between atoms: N_3  and  C_5
REMARK    5  A    between atoms: C_5  and  C_6
REMARK    6  A    between atoms: C_5  and  C_7
REMARK    7  A    between atoms: C_7  and  O_8
REMARK    8  A    between atoms: C_7  and  C_9
REMARK                            x       y       z     vdW  Elec       q    Type
REMARK                         _______ _______ _______ _____ _____    ______ ____
ROOT
ATOM      1  C   UNL     1     -11.441   6.928 131.225  0.00  0.00    +0.000 C 
ENDROOT
BRANCH   1   2
ATOM      2  C   UNL     1     -12.232   7.404 130.000  0.00  0.00    +0.000 A 
ATOM      3  C   UNL     1     -12.774   6.452 129.126  0.00  0.00    +0.000 A 
ATOM      4  C   UNL     1     -13.465   6.861 127.982  0.00  0.00    +0.000 A 
ATOM      5  C   UNL     1     -13.775   8.200 127.762  0.00  0.00    +0.000 A 
ATOM      6  C   UNL     1     -13.274   9.159 128.626  0.00  0.00    +0.000 A 
ATOM      7  C   UNL     1     -12.415   8.751 129.635  0.00  0.00    +0.000 A 
ENDBRANCH   1   2
BRANCH   1   8
ATOM      8  C   UNL     1     -10.064   6.163 130.937  0.00  0.00    +0.000 C 
ATOM      9  C   UNL     1      -8.951   7.124 130.464  0.00  0.00    +0.000 C 
BRANCH   8  10
ATOM     10  N   UNL     1      -9.472   5.276 131.994  0.00  0.00    +0.000 NA
ATOM     11  C   UNL     1      -8.114   5.695 132.284  0.00  0.00    +0.000 C 
BRANCH  10  13
ATOM     12  C   UNL     1     -10.448   3.502 130.482  0.00  0.00    +0.000 C 
ATOM     13  C   UNL     1      -9.527   3.840 131.647  0.00  0.00    +0.000 C 
ENDBRANCH  10  13
ENDBRANCH   8  10
ENDBRANCH   1   8
BRANCH   1  14
ATOM     14  O   UNL     1     -12.324   6.206 132.078  0.00  0.00    +0.000 OA
ATOM     15  H   UNL     1     -13.073   5.933 131.525  0.00  0.00    +0.000 HD
ENDBRANCH   1  14
TORSDOF 5
ENDMDL
MODEL 2
REMARK VINA RESULT:      -5.6      1.854      5.464
REMARK  Name = Etafedrine
REMARK  8 active torsions:
REMARK  status: ('A' for Active; 'I' for Inactive)
REMARK    1  A    between atoms: C_1  and  C_2
REMARK    2  A    between atoms: C_2  and  N_3
REMARK    3  A    between atoms: N_3  and  C_4
REMARK    4  A    between atoms: N_3  and  C_5
REMARK    5  A    between atoms: C_5  and  C_6
REMARK    6  A    between atoms: C_5  and  C_7
REMARK    7  A    between atoms: C_7  and  O_8
REMARK    8  A    between atoms: C_7  and  C_9
REMARK                            x       y       z     vdW  Elec       q    Type
REMARK                         _______ _______ _______ _____ _____    ______ ____
ROOT
ATOM      1  C   UNL     1     -11.194   6.422 130.739  0.00  0.00    +0.000 C 
ENDROOT
BRANCH   1   2
ATOM      2  C   UNL     1      -9.801   6.361 131.376  0.00  0.00    +0.000 A 
ATOM      3  C   UNL     1      -9.658   5.801 132.652  0.00  0.00    +0.000 A 
ATOM      4  C   UNL     1      -8.405   5.769 133.269  0.00  0.00    +0.000 A 
ATOM      5  C   UNL     1      -7.250   6.135 132.586  0.00  0.00    +0.000 A 
ATOM      6  C   UNL     1      -7.360   6.667 131.311  0.00  0.00    +0.000 A 
ATOM      7  C   UNL     1      -8.630   6.886 130.798  0.00  0.00    +0.000 A 
ENDBRANCH   1   2
BRANCH   1   8
ATOM      8  C   UNL     1     -11.473   7.641 129.737  0.00  0.00    +0.000 C 
ATOM      9  C   UNL     1     -10.840   7.409 128.347  0.00  0.00    +0.000 C 
BRANCH   8  10
ATOM     10  N   UNL     1     -12.880   8.115 129.516  0.00  0.00    +0.000 NA
ATOM     11  C   UNL     1     -13.551   7.240 128.572  0.00  0.00    +0.000 C 
BRANCH  10  13
ATOM     12  C   UNL     1     -13.334  10.508 130.189  0.00  0.00    +0.000 C 
ATOM     13  C   UNL     1     -12.958   9.527 129.087  0.00  0.00    +0.000 C 
ENDBRANCH  10  13
ENDBRANCH   8  10
ENDBRANCH   1   8
BRANCH   1  14
ATOM     14  O   UNL     1     -12.168   6.304 131.773  0.00  0.00    +0.000 OA
ATOM     15  H   UNL     1     -11.754   6.657 132.576  0.00  0.00    +0.000 HD
ENDBRANCH   1  14
TORSDOF 5
ENDMDL
MODEL 3
REMARK VINA RESULT:      -5.5      1.374      2.335
REMARK  Name = Etafedrine
REMARK  8 active torsions:
REMARK  status: ('A' for Active; 'I' for Inactive)
REMARK    1  A    between atoms: C_1  and  C_2
REMARK    2  A    between atoms: C_2  and  N_3
REMARK    3  A    between atoms: N_3  and  C_4
REMARK    4  A    between atoms: N_3  and  C_5
REMARK    5  A    between atoms: C_5  and  C_6
REMARK    6  A    between atoms: C_5  and  C_7
REMARK    7  A    between atoms: C_7  and  O_8
REMARK    8  A    between atoms: C_7  and  C_9
REMARK                            x       y       z     vdW  Elec       q    Type
REMARK                         _______ _______ _______ _____ _____    ______ ____
ROOT
ATOM      1  C   UNL     1     -10.895   6.314 131.520  0.00  0.00    +0.000 C 
ENDROOT
BRANCH   1   2
ATOM      2  C   UNL     1     -11.165   7.017 130.183  0.00  0.00    +0.000 A 
ATOM      3  C   UNL     1     -12.463   7.003 129.655  0.00  0.00    +0.000 A 
ATOM      4  C   UNL     1     -12.725   7.602 128.420  0.00  0.00    +0.000 A 
ATOM      5  C   UNL     1     -11.763   8.362 127.763  0.00  0.00    +0.000 A 
ATOM      6  C   UNL     1     -10.478   8.415 128.279  0.00  0.00    +0.000 A 
ATOM      7  C   UNL     1     -10.184   7.642 129.391  0.00  0.00    +0.000 A 
ENDBRANCH   1   2
BRANCH   1   8
ATOM      8  C   UNL     1     -10.031   4.967 131.460  0.00  0.00    +0.000 C 
ATOM      9  C   UNL     1     -10.605   3.951 130.449  0.00  0.00    +0.000 C 
BRANCH   8  10
ATOM     10  N   UNL     1      -8.549   5.043 131.229  0.00  0.00    +0.000 NA
ATOM     11  C   UNL     1      -7.936   3.768 131.551  0.00  0.00    +0.000 C 
BRANCH  10  13
ATOM     12  C   UNL     1      -6.872   6.932 131.159  0.00  0.00    +0.000 C 
ATOM     13  C   UNL     1      -7.902   6.151 131.964  0.00  0.00    +0.000 C 
ENDBRANCH  10  13
ENDBRANCH   8  10
ENDBRANCH   1   8
BRANCH   1  14
ATOM     14  O   UNL     1     -12.133   6.165 132.208  0.00  0.00    +0.000 OA
ATOM     15  H   UNL     1     -12.202   5.225 132.441  0.00  0.00    +0.000 HD
ENDBRANCH   1  14
TORSDOF 5
ENDMDL
MODEL 4
REMARK VINA RESULT:      -5.4      1.411      2.238
REMARK  Name = Etafedrine
REMARK  8 active torsions:
REMARK  status: ('A' for Active; 'I' for Inactive)
REMARK    1  A    between atoms: C_1  and  C_2
REMARK    2  A    between atoms: C_2  and  N_3
REMARK    3  A    between atoms: N_3  and  C_4
REMARK    4  A    between atoms: N_3  and  C_5
REMARK    5  A    between atoms: C_5  and  C_6
REMARK    6  A    between atoms: C_5  and  C_7
REMARK    7  A    between atoms: C_7  and  O_8
REMARK    8  A    between atoms: C_7  and  C_9
REMARK                            x       y       z     vdW  Elec       q    Type
REMARK                         _______ _______ _______ _____ _____    ______ ____
ROOT
ATOM      1  C   UNL     1     -11.870   7.230 131.038  0.00  0.00    +0.000 C 
ENDROOT
BRANCH   1   2
ATOM      2  C   UNL     1     -11.913   7.383 129.513  0.00  0.00    +0.000 A 
ATOM      3  C   UNL     1     -10.862   8.045 128.864  0.00  0.00    +0.000 A 
ATOM      4  C   UNL     1     -10.897   8.231 127.479  0.00  0.00    +0.000 A 
ATOM      5  C   UNL     1     -11.876   7.634 126.691  0.00  0.00    +0.000 A 
ATOM      6  C   UNL     1     -12.913   6.951 127.306  0.00  0.00    +0.000 A 
ATOM      7  C   UNL     1     -12.973   6.957 128.692  0.00  0.00    +0.000 A 
ENDBRANCH   1   2
BRANCH   1   8
ATOM      8  C   UNL     1     -10.868   6.123 131.620  0.00  0.00    +0.000 C 
ATOM      9  C   UNL     1     -10.756   4.893 130.693  0.00  0.00    +0.000 C 
BRANCH   8  10
ATOM     10  N   UNL     1      -9.474   6.517 132.016  0.00  0.00    +0.000 NA
ATOM     11  C   UNL     1      -8.572   6.318 130.897  0.00  0.00    +0.000 C 
BRANCH  10  13
ATOM     12  C   UNL     1      -7.716   5.011 133.028  0.00  0.00    +0.000 C 
ATOM     13  C   UNL     1      -8.993   5.817 133.225  0.00  0.00    +0.000 C 
ENDBRANCH  10  13
ENDBRANCH   8  10
ENDBRANCH   1   8
BRANCH   1  14
ATOM     14  O   UNL     1     -13.206   7.092 131.515  0.00  0.00    +0.000 OA
ATOM     15  H   UNL     1     -13.202   7.418 132.428  0.00  0.00    +0.000 HD
ENDBRANCH   1  14
TORSDOF 5
ENDMDL
MODEL 5
REMARK VINA RESULT:      -5.2      8.471     10.630
REMARK  Name = Etafedrine
REMARK  8 active torsions:
REMARK  status: ('A' for Active; 'I' for Inactive)
REMARK    1  A    between atoms: C_1  and  C_2
REMARK    2  A    between atoms: C_2  and  N_3
REMARK    3  A    between atoms: N_3  and  C_4
REMARK    4  A    between atoms: N_3  and  C_5
REMARK    5  A    between atoms: C_5  and  C_6
REMARK    6  A    between atoms: C_5  and  C_7
REMARK    7  A    between atoms: C_7  and  O_8
REMARK    8  A    between atoms: C_7  and  C_9
REMARK                            x       y       z     vdW  Elec       q    Type
REMARK                         _______ _______ _______ _____ _____    ______ ____
ROOT
ATOM      1  C   UNL     1      -9.482   0.306 123.059  0.00  0.00    +0.000 C 
ENDROOT
BRANCH   1   2
ATOM      2  C   UNL     1      -8.623  -0.927 123.364  0.00  0.00    +0.000 A 
ATOM      3  C   UNL     1      -7.229  -0.792 123.419  0.00  0.00    +0.000 A 
ATOM      4  C   UNL     1      -6.424  -1.908 123.658  0.00  0.00    +0.000 A 
ATOM      5  C   UNL     1      -6.973  -3.138 124.006  0.00  0.00    +0.000 A 
ATOM      6  C   UNL     1      -8.349  -3.292 123.986  0.00  0.00    +0.000 A 
ATOM      7  C   UNL     1      -9.123  -2.231 123.542  0.00  0.00    +0.000 A 
ENDBRANCH   1   2
BRANCH   1   8
ATOM      8  C   UNL     1      -9.744   1.317 124.273  0.00  0.00    +0.000 C 
ATOM      9  C   UNL     1      -9.662   0.614 125.645  0.00  0.00    +0.000 C 
BRANCH   8  10
ATOM     10  N   UNL     1      -8.946   2.585 124.369  0.00  0.00    +0.000 NA
ATOM     11  C   UNL     1      -8.423   2.937 123.062  0.00  0.00    +0.000 C 
BRANCH  10  13
ATOM     12  C   UNL     1      -6.457   2.506 124.802  0.00  0.00    +0.000 C 
ATOM     13  C   UNL     1      -7.867   2.519 125.378  0.00  0.00    +0.000 C 
ENDBRANCH  10  13
ENDBRANCH   8  10
ENDBRANCH   1   8
BRANCH   1  14
ATOM     14  O   UNL     1     -10.677  -0.126 122.412  0.00  0.00    +0.000 OA
ATOM     15  H   UNL     1     -10.621  -1.093 122.358  0.00  0.00    +0.000 HD
ENDBRANCH   1  14
TORSDOF 5
ENDMDL
MODEL 6
REMARK VINA RESULT:      -5.2      1.976      2.694
REMARK  Name = Etafedrine
REMARK  8 active torsions:
REMARK  status: ('A' for Active; 'I' for Inactive)
REMARK    1  A    between atoms: C_1  and  C_2
REMARK    2  A    between atoms: C_2  and  N_3
REMARK    3  A    between atoms: N_3  and  C_4
REMARK    4  A    between atoms: N_3  and  C_5
REMARK    5  A    between atoms: C_5  and  C_6
REMARK    6  A    between atoms: C_5  and  C_7
REMARK    7  A    between atoms: C_7  and  O_8
REMARK    8  A    between atoms: C_7  and  C_9
REMARK                            x       y       z     vdW  Elec       q    Type
REMARK                         _______ _______ _______ _____ _____    ______ ____
ROOT
ATOM      1  C   UNL     1      -9.844   5.670 129.341  0.00  0.00    +0.000 C 
ENDROOT
BRANCH   1   2
ATOM      2  C   UNL     1     -10.923   6.687 129.734  0.00  0.00    +0.000 A 
ATOM      3  C   UNL     1     -11.098   7.833 128.947  0.00  0.00    +0.000 A 
ATOM      4  C   UNL     1     -12.048   8.793 129.307  0.00  0.00    +0.000 A 
ATOM      5  C   UNL     1     -12.948   8.570 130.344  0.00  0.00    +0.000 A 
ATOM      6  C   UNL     1     -12.814   7.431 131.121  0.00  0.00    +0.000 A 
ATOM      7  C   UNL     1     -11.735   6.595 130.879  0.00  0.00    +0.000 A 
ENDBRANCH   1   2
BRANCH   1   8
ATOM      8  C   UNL     1      -8.648   5.453 130.384  0.00  0.00    +0.000 C 
ATOM      9  C   UNL     1      -8.264   6.761 131.110  0.00  0.00    +0.000 C 
BRANCH   8  10
ATOM     10  N   UNL     1      -8.755   4.376 131.424  0.00  0.00    +0.000 NA
ATOM     11  C   UNL     1      -9.754   3.403 131.023  0.00  0.00    +0.000 C 
BRANCH  10  13
ATOM     12  C   UNL     1      -9.182   3.834 133.855  0.00  0.00    +0.000 C 
ATOM     13  C   UNL     1      -9.029   4.900 132.779  0.00  0.00    +0.000 C 
ENDBRANCH  10  13
ENDBRANCH   8  10
ENDBRANCH   1   8
BRANCH   1  14
ATOM     14  O   UNL     1      -9.399   5.972 128.021  0.00  0.00    +0.000 OA
ATOM     15  H   UNL     1      -9.082   5.136 127.644  0.00  0.00    +0.000 HD
ENDBRANCH   1  14
TORSDOF 5
ENDMDL
MODEL 7
REMARK VINA RESULT:      -5.2      1.512      2.423
REMARK  Name = Etafedrine
REMARK  8 active torsions:
REMARK  status: ('A' for Active; 'I' for Inactive)
REMARK    1  A    between atoms: C_1  and  C_2
REMARK    2  A    between atoms: C_2  and  N_3
REMARK    3  A    between atoms: N_3  and  C_4
REMARK    4  A    between atoms: N_3  and  C_5
REMARK    5  A    between atoms: C_5  and  C_6
REMARK    6  A    between atoms: C_5  and  C_7
REMARK    7  A    between atoms: C_7  and  O_8
REMARK    8  A    between atoms: C_7  and  C_9
REMARK                            x       y       z     vdW  Elec       q    Type
REMARK                         _______ _______ _______ _____ _____    ______ ____
ROOT
ATOM      1  C   UNL     1     -10.000   6.174 131.625  0.00  0.00    +0.000 C 
ENDROOT
BRANCH   1   2
ATOM      2  C   UNL     1     -10.675   7.012 130.533  0.00  0.00    +0.000 A 
ATOM      3  C   UNL     1     -12.023   7.366 130.680  0.00  0.00    +0.000 A 
ATOM      4  C   UNL     1     -12.671   8.097 129.680  0.00  0.00    +0.000 A 
ATOM      5  C   UNL     1     -11.971   8.630 128.602  0.00  0.00    +0.000 A 
ATOM      6  C   UNL     1     -10.630   8.318 128.447  0.00  0.00    +0.000 A 
ATOM      7  C   UNL     1     -10.058   7.420 129.335  0.00  0.00    +0.000 A 
ENDBRANCH   1   2
BRANCH   1   8
ATOM      8  C   UNL     1      -9.900   4.597 131.360  0.00  0.00    +0.000 C 
ATOM      9  C   UNL     1     -10.986   4.101 130.379  0.00  0.00    +0.000 C 
BRANCH   8  10
ATOM     10  N   UNL     1      -8.594   3.997 130.925  0.00  0.00    +0.000 NA
ATOM     11  C   UNL     1      -8.555   3.902 129.478  0.00  0.00    +0.000 C 
BRANCH  10  13
ATOM     12  C   UNL     1      -8.528   2.652 133.064  0.00  0.00    +0.000 C 
ATOM     13  C   UNL     1      -8.316   2.690 131.556  0.00  0.00    +0.000 C 
ENDBRANCH  10  13
ENDBRANCH   8  10
ENDBRANCH   1   8
BRANCH   1  14
ATOM     14  O   UNL     1     -10.595   6.502 132.878  0.00  0.00    +0.000 OA
ATOM     15  H   UNL     1     -11.554   6.489 132.734  0.00  0.00    +0.000 HD
ENDBRANCH   1  14
TORSDOF 5
ENDMDL
MODEL 8
REMARK VINA RESULT:      -5.1      1.759      3.161
REMARK  Name = Etafedrine
REMARK  8 active torsions:
REMARK  status: ('A' for Active; 'I' for Inactive)
REMARK    1  A    between atoms: C_1  and  C_2
REMARK    2  A    between atoms: C_2  and  N_3
REMARK    3  A    between atoms: N_3  and  C_4
REMARK    4  A    between atoms: N_3  and  C_5
REMARK    5  A    between atoms: C_5  and  C_6
REMARK    6  A    between atoms: C_5  and  C_7
REMARK    7  A    between atoms: C_7  and  O_8
REMARK    8  A    between atoms: C_7  and  C_9
REMARK                            x       y       z     vdW  Elec       q    Type
REMARK                         _______ _______ _______ _____ _____    ______ ____
ROOT
ATOM      1  C   UNL     1      -9.099   5.816 132.425  0.00  0.00    +0.000 C 
ENDROOT
BRANCH   1   2
ATOM      2  C   UNL     1     -10.144   6.462 131.508  0.00  0.00    +0.000 A 
ATOM      3  C   UNL     1      -9.725   7.066 130.315  0.00  0.00    +0.000 A 
ATOM      4  C   UNL     1     -10.654   7.694 129.481  0.00  0.00    +0.000 A 
ATOM      5  C   UNL     1     -12.022   7.601 129.719  0.00  0.00    +0.000 A 
ATOM      6  C   UNL     1     -12.465   6.985 130.878  0.00  0.00    +0.000 A 
ATOM      7  C   UNL     1     -11.519   6.553 131.795  0.00  0.00    +0.000 A 
ENDBRANCH   1   2
BRANCH   1   8
ATOM      8  C   UNL     1      -8.933   4.226 132.318  0.00  0.00    +0.000 C 
ATOM      9  C   UNL     1      -9.141   3.526 133.679  0.00  0.00    +0.000 C 
BRANCH   8  10
ATOM     10  N   UNL     1      -9.725   3.464 131.295  0.00  0.00    +0.000 NA
ATOM     11  C   UNL     1     -10.024   2.135 131.795  0.00  0.00    +0.000 C 
BRANCH  10  13
ATOM     12  C   UNL     1      -7.589   3.021 130.018  0.00  0.00    +0.000 C 
ATOM     13  C   UNL     1      -9.063   3.403 129.974  0.00  0.00    +0.000 C 
ENDBRANCH  10  13
ENDBRANCH   8  10
ENDBRANCH   1   8
BRANCH   1  14
ATOM     14  O   UNL     1      -9.323   6.274 133.756  0.00  0.00    +0.000 OA
ATOM     15  H   UNL     1     -10.066   5.754 134.100  0.00  0.00    +0.000 HD
ENDBRANCH   1  14
TORSDOF 5
ENDMDL
MODEL 9
REMARK VINA RESULT:      -5.1      9.407     11.060
REMARK  Name = Etafedrine
REMARK  8 active torsions:
REMARK  status: ('A' for Active; 'I' for Inactive)
REMARK    1  A    between atoms: C_1  and  C_2
REMARK    2  A    between atoms: C_2  and  N_3
REMARK    3  A    between atoms: N_3  and  C_4
REMARK    4  A    between atoms: N_3  and  C_5
REMARK    5  A    between atoms: C_5  and  C_6
REMARK    6  A    between atoms: C_5  and  C_7
REMARK    7  A    between atoms: C_7  and  O_8
REMARK    8  A    between atoms: C_7  and  C_9
REMARK                            x       y       z     vdW  Elec       q    Type
REMARK                         _______ _______ _______ _____ _____    ______ ____
ROOT
ATOM      1  C   UNL     1      -8.101  -0.727 125.841  0.00  0.00    +0.000 C 
ENDROOT
BRANCH   1   2
ATOM      2  C   UNL     1      -8.160  -1.725 127.003  0.00  0.00    +0.000 A 
ATOM      3  C   UNL     1      -7.672  -1.340 128.259  0.00  0.00    +0.000 A 
ATOM      4  C   UNL     1      -7.680  -2.246 129.324  0.00  0.00    +0.000 A 
ATOM      5  C   UNL     1      -8.311  -3.481 129.221  0.00  0.00    +0.000 A 
ATOM      6  C   UNL     1      -8.826  -3.876 127.996  0.00  0.00    +0.000 A 
ATOM      7  C   UNL     1      -8.622  -3.051 126.901  0.00  0.00    +0.000 A 
ENDBRANCH   1   2
BRANCH   1   8
ATOM      8  C   UNL     1      -7.017  -1.019 124.698  0.00  0.00    +0.000 C 
ATOM      9  C   UNL     1      -5.636  -1.384 125.284  0.00  0.00    +0.000 C 
BRANCH   8  10
ATOM     10  N   UNL     1      -7.325  -2.018 123.619  0.00  0.00    +0.000 NA
ATOM     11  C   UNL     1      -6.394  -1.856 122.519  0.00  0.00    +0.000 C 
BRANCH  10  13
ATOM     12  C   UNL     1      -9.520  -3.240 123.338  0.00  0.00    +0.000 C 
ATOM     13  C   UNL     1      -8.726  -1.954 123.150  0.00  0.00    +0.000 C 
ENDBRANCH  10  13
ENDBRANCH   8  10
ENDBRANCH   1   8
BRANCH   1  14
ATOM     14  O   UNL     1      -8.014   0.589 126.381  0.00  0.00    +0.000 OA
ATOM     15  H   UNL     1      -8.799   1.063 126.065  0.00  0.00    +0.000 HD
ENDBRANCH   1  14
TORSDOF 5
ENDMDL
