MODEL 1
REMARK VINA RESULT:      -4.9      0.000      0.000
REMARK  Name = Ethambutol
REMARK  13 active torsions:
REMARK  status: ('A' for Active; 'I' for Inactive)
REMARK    1  A    between atoms: C_1  and  C_2
REMARK    2  A    between atoms: C_2  and  CA_3
REMARK    3  A    between atoms: CA_3  and  C_4
REMARK    4  A    between atoms: CA_3  and  N_6
REMARK    5  A    between atoms: C_4  and  O_5
REMARK    6  A    between atoms: N_6  and  C_7
REMARK    7  A    between atoms: C_7  and  C_8
REMARK    8  A    between atoms: C_8  and  N_9
REMARK    9  A    between atoms: N_9  and  CA_10
REMARK   10  A    between atoms: CA_10  and  C_11
REMARK   11  A    between atoms: CA_10  and  C_13
REMARK   12  A    between atoms: C_11  and  C_12
REMARK   13  A    between atoms: C_13  and  O_14
REMARK                            x       y       z     vdW  Elec       q    Type
REMARK                         _______ _______ _______ _____ _____    ______ ____
ROOT
ATOM      1  C   UNL     1     -11.695   5.629 130.111  0.00  0.00    +0.000 C 
ENDROOT
BRANCH   1   2
ATOM      2  N   UNL     1     -12.162   6.303 128.889  0.00  0.00    +0.000 NA
ATOM      3  H   UNL     1     -11.697   5.893 128.074  0.00  0.00    +0.000 HD
BRANCH   2   4
ATOM      4  CA  UNL     1     -11.893   7.747 128.935  0.00  0.00    +0.000 C 
BRANCH   4   6
ATOM      5  C   UNL     1     -10.913   7.717 126.574  0.00  0.00    +0.000 C 
ATOM      6  C   UNL     1     -10.672   8.053 128.040  0.00  0.00    +0.000 C 
ENDBRANCH   4   6
BRANCH   4   7
ATOM      7  C   UNL     1     -13.159   8.535 128.511  0.00  0.00    +0.000 C 
BRANCH   7   8
ATOM      8  O   UNL     1     -13.028   9.940 128.640  0.00  0.00    +0.000 OA
ATOM      9  H   UNL     1     -13.841  10.335 128.278  0.00  0.00    +0.000 HD
ENDBRANCH   7   8
ENDBRANCH   4   7
ENDBRANCH   2   4
ENDBRANCH   1   2
BRANCH   1  10
ATOM     10  C   UNL     1     -11.932   6.542 131.294  0.00  0.00    +0.000 C 
BRANCH  10  11
ATOM     11  N   UNL     1     -10.820   6.577 132.230  0.00  0.00    +0.000 NA
ATOM     12  H   UNL     1     -11.099   6.113 133.097  0.00  0.00    +0.000 HD
BRANCH  11  13
ATOM     13  CA  UNL     1      -9.618   5.923 131.682  0.00  0.00    +0.000 C 
BRANCH  13  14
ATOM     14  C   UNL     1      -8.589   6.881 131.014  0.00  0.00    +0.000 C 
ATOM     15  C   UNL     1      -7.104   6.686 131.333  0.00  0.00    +0.000 C 
ENDBRANCH  13  14
BRANCH  13  16
ATOM     16  C   UNL     1      -8.928   5.160 132.847  0.00  0.00    +0.000 C 
BRANCH  16  17
ATOM     17  O   UNL     1      -9.852   4.396 133.611  0.00  0.00    +0.000 OA
ATOM     18  H   UNL     1     -10.211   3.698 133.024  0.00  0.00    +0.000 HD
ENDBRANCH  16  17
ENDBRANCH  13  16
ENDBRANCH  11  13
ENDBRANCH  10  11
ENDBRANCH   1  10
TORSDOF 11
ENDMDL
MODEL 2
REMARK VINA RESULT:      -4.8      2.058      2.646
REMARK  Name = Ethambutol
REMARK  13 active torsions:
REMARK  status: ('A' for Active; 'I' for Inactive)
REMARK    1  A    between atoms: C_1  and  C_2
REMARK    2  A    between atoms: C_2  and  CA_3
REMARK    3  A    between atoms: CA_3  and  C_4
REMARK    4  A    between atoms: CA_3  and  N_6
REMARK    5  A    between atoms: C_4  and  O_5
REMARK    6  A    between atoms: N_6  and  C_7
REMARK    7  A    between atoms: C_7  and  C_8
REMARK    8  A    between atoms: C_8  and  N_9
REMARK    9  A    between atoms: N_9  and  CA_10
REMARK   10  A    between atoms: CA_10  and  C_11
REMARK   11  A    between atoms: CA_10  and  C_13
REMARK   12  A    between atoms: C_11  and  C_12
REMARK   13  A    between atoms: C_13  and  O_14
REMARK                            x       y       z     vdW  Elec       q    Type
REMARK                         _______ _______ _______ _____ _____    ______ ____
ROOT
ATOM      1  C   UNL     1     -12.815   7.217 130.595  0.00  0.00    +0.000 C 
ENDROOT
BRANCH   1   2
ATOM      2  N   UNL     1     -13.253   6.987 129.210  0.00  0.00    +0.000 NA
ATOM      3  H   UNL     1     -12.706   6.225 128.800  0.00  0.00    +0.000 HD
BRANCH   2   4
ATOM      4  CA  UNL     1     -13.101   8.198 128.390  0.00  0.00    +0.000 C 
BRANCH   4   6
ATOM      5  C   UNL     1     -13.754  10.590 129.015  0.00  0.00    +0.000 C 
ATOM      6  C   UNL     1     -12.853   9.402 129.327  0.00  0.00    +0.000 C 
ENDBRANCH   4   6
BRANCH   4   7
ATOM      7  C   UNL     1     -11.962   8.000 127.358  0.00  0.00    +0.000 C 
BRANCH   7   8
ATOM      8  O   UNL     1     -11.898   6.690 126.821  0.00  0.00    +0.000 OA
ATOM      9  H   UNL     1     -11.295   6.179 127.391  0.00  0.00    +0.000 HD
ENDBRANCH   7   8
ENDBRANCH   4   7
ENDBRANCH   2   4
ENDBRANCH   1   2
BRANCH   1  10
ATOM     10  C   UNL     1     -11.731   6.219 130.938  0.00  0.00    +0.000 C 
BRANCH  10  11
ATOM     11  N   UNL     1     -11.186   5.534 129.777  0.00  0.00    +0.000 NA
ATOM     12  H   UNL     1     -11.759   5.756 128.960  0.00  0.00    +0.000 HD
BRANCH  11  13
ATOM     13  CA  UNL     1      -9.786   5.916 129.519  0.00  0.00    +0.000 C 
BRANCH  13  14
ATOM     14  C   UNL     1      -9.215   7.014 130.463  0.00  0.00    +0.000 C 
ATOM     15  C   UNL     1      -7.890   6.738 131.177  0.00  0.00    +0.000 C 
ENDBRANCH  13  14
BRANCH  13  16
ATOM     16  C   UNL     1      -8.920   4.631 129.643  0.00  0.00    +0.000 C 
BRANCH  16  17
ATOM     17  O   UNL     1      -9.700   3.446 129.547  0.00  0.00    +0.000 OA
ATOM     18  H   UNL     1      -9.591   2.954 130.387  0.00  0.00    +0.000 HD
ENDBRANCH  16  17
ENDBRANCH  13  16
ENDBRANCH  11  13
ENDBRANCH  10  11
ENDBRANCH   1  10
TORSDOF 11
ENDMDL
MODEL 3
REMARK VINA RESULT:      -4.8      1.447      2.020
REMARK  Name = Ethambutol
REMARK  13 active torsions:
REMARK  status: ('A' for Active; 'I' for Inactive)
REMARK    1  A    between atoms: C_1  and  C_2
REMARK    2  A    between atoms: C_2  and  CA_3
REMARK    3  A    between atoms: CA_3  and  C_4
REMARK    4  A    between atoms: CA_3  and  N_6
REMARK    5  A    between atoms: C_4  and  O_5
REMARK    6  A    between atoms: N_6  and  C_7
REMARK    7  A    between atoms: C_7  and  C_8
REMARK    8  A    between atoms: C_8  and  N_9
REMARK    9  A    between atoms: N_9  and  CA_10
REMARK   10  A    between atoms: CA_10  and  C_11
REMARK   11  A    between atoms: CA_10  and  C_13
REMARK   12  A    between atoms: C_11  and  C_12
REMARK   13  A    between atoms: C_13  and  O_14
REMARK                            x       y       z     vdW  Elec       q    Type
REMARK                         _______ _______ _______ _____ _____    ______ ____
ROOT
ATOM      1  C   UNL     1     -11.600   6.345 130.218  0.00  0.00    +0.000 C 
ENDROOT
BRANCH   1   2
ATOM      2  N   UNL     1     -11.461   7.662 129.577  0.00  0.00    +0.000 NA
ATOM      3  H   UNL     1     -11.783   8.391 130.220  0.00  0.00    +0.000 HD
BRANCH   2   4
ATOM      4  CA  UNL     1     -12.229   7.734 128.326  0.00  0.00    +0.000 C 
BRANCH   4   6
ATOM      5  C   UNL     1     -12.978   9.793 129.644  0.00  0.00    +0.000 C 
ATOM      6  C   UNL     1     -13.206   8.928 128.412  0.00  0.00    +0.000 C 
ENDBRANCH   4   6
BRANCH   4   7
ATOM      7  C   UNL     1     -11.264   7.837 127.118  0.00  0.00    +0.000 C 
BRANCH   7   8
ATOM      8  O   UNL     1     -11.433   6.807 126.160  0.00  0.00    +0.000 OA
ATOM      9  H   UNL     1     -10.623   6.266 126.179  0.00  0.00    +0.000 HD
ENDBRANCH   7   8
ENDBRANCH   4   7
ENDBRANCH   2   4
ENDBRANCH   1   2
BRANCH   1  10
ATOM     10  C   UNL     1     -11.836   6.544 131.700  0.00  0.00    +0.000 C 
BRANCH  10  11
ATOM     11  N   UNL     1     -10.635   6.383 132.504  0.00  0.00    +0.000 NA
ATOM     12  H   UNL     1     -10.874   5.883 133.363  0.00  0.00    +0.000 HD
BRANCH  11  13
ATOM     13  CA  UNL     1      -9.581   5.649 131.780  0.00  0.00    +0.000 C 
BRANCH  13  14
ATOM     14  C   UNL     1      -8.258   6.439 131.558  0.00  0.00    +0.000 C 
ATOM     15  C   UNL     1      -7.042   6.068 132.411  0.00  0.00    +0.000 C 
ENDBRANCH  13  14
BRANCH  13  16
ATOM     16  C   UNL     1      -9.278   4.353 132.583  0.00  0.00    +0.000 C 
BRANCH  16  17
ATOM     17  O   UNL     1      -9.929   4.338 133.846  0.00  0.00    +0.000 OA
ATOM     18  H   UNL     1      -9.911   3.415 134.175  0.00  0.00    +0.000 HD
ENDBRANCH  16  17
ENDBRANCH  13  16
ENDBRANCH  11  13
ENDBRANCH  10  11
ENDBRANCH   1  10
TORSDOF 11
ENDMDL
MODEL 4
REMARK VINA RESULT:      -4.7      1.776      5.203
REMARK  Name = Ethambutol
REMARK  13 active torsions:
REMARK  status: ('A' for Active; 'I' for Inactive)
REMARK    1  A    between atoms: C_1  and  C_2
REMARK    2  A    between atoms: C_2  and  CA_3
REMARK    3  A    between atoms: CA_3  and  C_4
REMARK    4  A    between atoms: CA_3  and  N_6
REMARK    5  A    between atoms: C_4  and  O_5
REMARK    6  A    between atoms: N_6  and  C_7
REMARK    7  A    between atoms: C_7  and  C_8
REMARK    8  A    between atoms: C_8  and  N_9
REMARK    9  A    between atoms: N_9  and  CA_10
REMARK   10  A    between atoms: CA_10  and  C_11
REMARK   11  A    between atoms: CA_10  and  C_13
REMARK   12  A    between atoms: C_11  and  C_12
REMARK   13  A    between atoms: C_13  and  O_14
REMARK                            x       y       z     vdW  Elec       q    Type
REMARK                         _______ _______ _______ _____ _____    ______ ____
ROOT
ATOM      1  C   UNL     1     -11.788   6.538 131.768  0.00  0.00    +0.000 C 
ENDROOT
BRANCH   1   2
ATOM      2  N   UNL     1     -11.425   5.376 130.941  0.00  0.00    +0.000 NA
ATOM      3  H   UNL     1     -11.923   4.548 131.277  0.00  0.00    +0.000 HD
BRANCH   2   4
ATOM      4  CA  UNL     1      -9.977   5.127 130.971  0.00  0.00    +0.000 C 
BRANCH   4   6
ATOM      5  C   UNL     1      -8.168   6.932 130.871  0.00  0.00    +0.000 C 
ATOM      6  C   UNL     1      -9.286   6.305 131.693  0.00  0.00    +0.000 C 
ENDBRANCH   4   6
BRANCH   4   7
ATOM      7  C   UNL     1      -9.689   3.761 131.645  0.00  0.00    +0.000 C 
BRANCH   7   8
ATOM      8  O   UNL     1     -10.675   2.777 131.388  0.00  0.00    +0.000 OA
ATOM      9  H   UNL     1     -10.218   2.016 130.986  0.00  0.00    +0.000 HD
ENDBRANCH   7   8
ENDBRANCH   4   7
ENDBRANCH   2   4
ENDBRANCH   1   2
BRANCH   1  10
ATOM     10  C   UNL     1     -12.876   7.320 131.065  0.00  0.00    +0.000 C 
BRANCH  10  11
ATOM     11  N   UNL     1     -13.004   6.993 129.654  0.00  0.00    +0.000 NA
ATOM     12  H   UNL     1     -13.959   6.678 129.470  0.00  0.00    +0.000 HD
BRANCH  11  13
ATOM     13  CA  UNL     1     -12.686   8.144 128.790  0.00  0.00    +0.000 C 
BRANCH  13  14
ATOM     14  C   UNL     1     -12.893   9.540 129.446  0.00  0.00    +0.000 C 
ATOM     15  C   UNL     1     -13.887  10.506 128.796  0.00  0.00    +0.000 C 
ENDBRANCH  13  14
BRANCH  13  16
ATOM     16  C   UNL     1     -11.204   8.000 128.345  0.00  0.00    +0.000 C 
BRANCH  16  17
ATOM     17  O   UNL     1     -10.852   6.649 128.075  0.00  0.00    +0.000 OA
ATOM     18  H   UNL     1     -10.994   6.495 127.117  0.00  0.00    +0.000 HD
ENDBRANCH  16  17
ENDBRANCH  13  16
ENDBRANCH  11  13
ENDBRANCH  10  11
ENDBRANCH   1  10
TORSDOF 11
ENDMDL
MODEL 5
REMARK VINA RESULT:      -4.6      3.124      5.546
REMARK  Name = Ethambutol
REMARK  13 active torsions:
REMARK  status: ('A' for Active; 'I' for Inactive)
REMARK    1  A    between atoms: C_1  and  C_2
REMARK    2  A    between atoms: C_2  and  CA_3
REMARK    3  A    between atoms: CA_3  and  C_4
REMARK    4  A    between atoms: CA_3  and  N_6
REMARK    5  A    between atoms: C_4  and  O_5
REMARK    6  A    between atoms: N_6  and  C_7
REMARK    7  A    between atoms: C_7  and  C_8
REMARK    8  A    between atoms: C_8  and  N_9
REMARK    9  A    between atoms: N_9  and  CA_10
REMARK   10  A    between atoms: CA_10  and  C_11
REMARK   11  A    between atoms: CA_10  and  C_13
REMARK   12  A    between atoms: C_11  and  C_12
REMARK   13  A    between atoms: C_13  and  O_14
REMARK                            x       y       z     vdW  Elec       q    Type
REMARK                         _______ _______ _______ _____ _____    ______ ____
ROOT
ATOM      1  C   UNL     1     -10.847   5.003 130.672  0.00  0.00    +0.000 C 
ENDROOT
BRANCH   1   2
ATOM      2  N   UNL     1     -10.316   3.988 129.749  0.00  0.00    +0.000 NA
ATOM      3  H   UNL     1     -10.878   3.135 129.818  0.00  0.00    +0.000 HD
BRANCH   2   4
ATOM      4  CA  UNL     1      -8.910   3.676 130.044  0.00  0.00    +0.000 C 
BRANCH   4   6
ATOM      5  C   UNL     1      -8.578   1.724 128.426  0.00  0.00    +0.000 C 
ATOM      6  C   UNL     1      -8.695   2.155 129.882  0.00  0.00    +0.000 C 
ENDBRANCH   4   6
BRANCH   4   7
ATOM      7  C   UNL     1      -7.979   4.512 129.130  0.00  0.00    +0.000 C 
BRANCH   7   8
ATOM      8  O   UNL     1      -8.649   5.143 128.054  0.00  0.00    +0.000 OA
ATOM      9  H   UNL     1      -8.214   4.845 127.235  0.00  0.00    +0.000 HD
ENDBRANCH   7   8
ENDBRANCH   4   7
ENDBRANCH   2   4
ENDBRANCH   1   2
BRANCH   1  10
ATOM     10  C   UNL     1     -11.700   5.978 129.890  0.00  0.00    +0.000 C 
BRANCH  10  11
ATOM     11  N   UNL     1     -11.197   6.243 128.552  0.00  0.00    +0.000 NA
ATOM     12  H   UNL     1     -11.315   5.404 127.979  0.00  0.00    +0.000 HD
BRANCH  11  13
ATOM     13  CA  UNL     1     -11.892   7.377 127.917  0.00  0.00    +0.000 C 
BRANCH  13  14
ATOM     14  C   UNL     1     -11.874   8.704 128.731  0.00  0.00    +0.000 C 
ATOM     15  C   UNL     1     -13.176   9.501 128.847  0.00  0.00    +0.000 C 
ENDBRANCH  13  14
BRANCH  13  16
ATOM     16  C   UNL     1     -11.229   7.616 126.531  0.00  0.00    +0.000 C 
BRANCH  16  17
ATOM     17  O   UNL     1     -10.449   6.504 126.110  0.00  0.00    +0.000 OA
ATOM     18  H   UNL     1      -9.706   6.853 125.574  0.00  0.00    +0.000 HD
ENDBRANCH  16  17
ENDBRANCH  13  16
ENDBRANCH  11  13
ENDBRANCH  10  11
ENDBRANCH   1  10
TORSDOF 11
ENDMDL
MODEL 6
REMARK VINA RESULT:      -4.6      1.971      2.928
REMARK  Name = Ethambutol
REMARK  13 active torsions:
REMARK  status: ('A' for Active; 'I' for Inactive)
REMARK    1  A    between atoms: C_1  and  C_2
REMARK    2  A    between atoms: C_2  and  CA_3
REMARK    3  A    between atoms: CA_3  and  C_4
REMARK    4  A    between atoms: CA_3  and  N_6
REMARK    5  A    between atoms: C_4  and  O_5
REMARK    6  A    between atoms: N_6  and  C_7
REMARK    7  A    between atoms: C_7  and  C_8
REMARK    8  A    between atoms: C_8  and  N_9
REMARK    9  A    between atoms: N_9  and  CA_10
REMARK   10  A    between atoms: CA_10  and  C_11
REMARK   11  A    between atoms: CA_10  and  C_13
REMARK   12  A    between atoms: C_11  and  C_12
REMARK   13  A    between atoms: C_13  and  O_14
REMARK                            x       y       z     vdW  Elec       q    Type
REMARK                         _______ _______ _______ _____ _____    ______ ____
ROOT
ATOM      1  C   UNL     1      -9.752   6.855 130.154  0.00  0.00    +0.000 C 
ENDROOT
BRANCH   1   2
ATOM      2  N   UNL     1     -11.111   6.452 129.757  0.00  0.00    +0.000 NA
ATOM      3  H   UNL     1     -11.065   5.594 129.200  0.00  0.00    +0.000 HD
BRANCH   2   4
ATOM      4  CA  UNL     1     -11.779   7.508 128.983  0.00  0.00    +0.000 C 
BRANCH   4   6
ATOM      5  C   UNL     1     -13.036   9.702 129.362  0.00  0.00    +0.000 C 
ATOM      6  C   UNL     1     -12.656   8.346 129.940  0.00  0.00    +0.000 C 
ENDBRANCH   4   6
BRANCH   4   7
ATOM      7  C   UNL     1     -10.726   8.363 128.234  0.00  0.00    +0.000 C 
BRANCH   7   8
ATOM      8  O   UNL     1     -10.839   8.304 126.823  0.00  0.00    +0.000 OA
ATOM      9  H   UNL     1     -10.881   7.362 126.581  0.00  0.00    +0.000 HD
ENDBRANCH   7   8
ENDBRANCH   4   7
ENDBRANCH   2   4
ENDBRANCH   1   2
BRANCH   1  10
ATOM     10  C   UNL     1      -9.496   6.387 131.570  0.00  0.00    +0.000 C 
BRANCH  10  11
ATOM     11  N   UNL     1     -10.284   5.224 131.946  0.00  0.00    +0.000 NA
ATOM     12  H   UNL     1     -11.067   5.127 131.296  0.00  0.00    +0.000 HD
BRANCH  11  13
ATOM     13  CA  UNL     1      -9.480   3.989 131.942  0.00  0.00    +0.000 C 
BRANCH  13  14
ATOM     14  C   UNL     1      -9.303   3.309 133.331  0.00  0.00    +0.000 C 
ATOM     15  C   UNL     1      -8.485   4.043 134.397  0.00  0.00    +0.000 C 
ENDBRANCH  13  14
BRANCH  13  16
ATOM     16  C   UNL     1     -10.162   2.991 130.964  0.00  0.00    +0.000 C 
BRANCH  16  17
ATOM     17  O   UNL     1     -11.337   3.533 130.376  0.00  0.00    +0.000 OA
ATOM     18  H   UNL     1     -11.202   4.500 130.288  0.00  0.00    +0.000 HD
ENDBRANCH  16  17
ENDBRANCH  13  16
ENDBRANCH  11  13
ENDBRANCH  10  11
ENDBRANCH   1  10
TORSDOF 11
ENDMDL
MODEL 7
REMARK VINA RESULT:      -4.6      2.132      5.532
REMARK  Name = Ethambutol
REMARK  13 active torsions:
REMARK  status: ('A' for Active; 'I' for Inactive)
REMARK    1  A    between atoms: C_1  and  C_2
REMARK    2  A    between atoms: C_2  and  CA_3
REMARK    3  A    between atoms: CA_3  and  C_4
REMARK    4  A    between atoms: CA_3  and  N_6
REMARK    5  A    between atoms: C_4  and  O_5
REMARK    6  A    between atoms: N_6  and  C_7
REMARK    7  A    between atoms: C_7  and  C_8
REMARK    8  A    between atoms: C_8  and  N_9
REMARK    9  A    between atoms: N_9  and  CA_10
REMARK   10  A    between atoms: CA_10  and  C_11
REMARK   11  A    between atoms: CA_10  and  C_13
REMARK   12  A    between atoms: C_11  and  C_12
REMARK   13  A    between atoms: C_13  and  O_14
REMARK                            x       y       z     vdW  Elec       q    Type
REMARK                         _______ _______ _______ _____ _____    ______ ____
ROOT
ATOM      1  C   UNL     1      -8.905   6.185 131.973  0.00  0.00    +0.000 C 
ENDROOT
BRANCH   1   2
ATOM      2  N   UNL     1      -9.885   5.119 132.232  0.00  0.00    +0.000 NA
ATOM      3  H   UNL     1     -10.247   5.212 133.186  0.00  0.00    +0.000 HD
BRANCH   2   4
ATOM      4  CA  UNL     1      -9.287   3.787 132.060  0.00  0.00    +0.000 C 
BRANCH   4   6
ATOM      5  C   UNL     1      -7.615   2.793 133.720  0.00  0.00    +0.000 C 
ATOM      6  C   UNL     1      -9.070   3.157 133.454  0.00  0.00    +0.000 C 
ENDBRANCH   4   6
BRANCH   4   7
ATOM      7  C   UNL     1     -10.186   2.918 131.144  0.00  0.00    +0.000 C 
BRANCH   7   8
ATOM      8  O   UNL     1     -11.301   3.611 130.612  0.00  0.00    +0.000 OA
ATOM      9  H   UNL     1     -11.901   2.940 130.240  0.00  0.00    +0.000 HD
ENDBRANCH   7   8
ENDBRANCH   4   7
ENDBRANCH   2   4
ENDBRANCH   1   2
BRANCH   1  10
ATOM     10  C   UNL     1      -9.306   6.924 130.715  0.00  0.00    +0.000 C 
BRANCH  10  11
ATOM     11  N   UNL     1     -10.465   6.349 130.051  0.00  0.00    +0.000 NA
ATOM     12  H   UNL     1     -10.883   5.644 130.661  0.00  0.00    +0.000 HD
BRANCH  11  13
ATOM     13  CA  UNL     1     -11.471   7.373 129.715  0.00  0.00    +0.000 C 
BRANCH  13  14
ATOM     14  C   UNL     1     -12.171   7.184 128.337  0.00  0.00    +0.000 C 
ATOM     15  C   UNL     1     -13.598   7.715 128.172  0.00  0.00    +0.000 C 
ENDBRANCH  13  14
BRANCH  13  16
ATOM     16  C   UNL     1     -12.542   7.364 130.841  0.00  0.00    +0.000 C 
BRANCH  16  17
ATOM     17  O   UNL     1     -12.428   6.222 131.681  0.00  0.00    +0.000 OA
ATOM     18  H   UNL     1     -12.630   6.510 132.596  0.00  0.00    +0.000 HD
ENDBRANCH  16  17
ENDBRANCH  13  16
ENDBRANCH  11  13
ENDBRANCH  10  11
ENDBRANCH   1  10
TORSDOF 11
ENDMDL
MODEL 8
REMARK VINA RESULT:      -4.6      2.184      2.752
REMARK  Name = Ethambutol
REMARK  13 active torsions:
REMARK  status: ('A' for Active; 'I' for Inactive)
REMARK    1  A    between atoms: C_1  and  C_2
REMARK    2  A    between atoms: C_2  and  CA_3
REMARK    3  A    between atoms: CA_3  and  C_4
REMARK    4  A    between atoms: CA_3  and  N_6
REMARK    5  A    between atoms: C_4  and  O_5
REMARK    6  A    between atoms: N_6  and  C_7
REMARK    7  A    between atoms: C_7  and  C_8
REMARK    8  A    between atoms: C_8  and  N_9
REMARK    9  A    between atoms: N_9  and  CA_10
REMARK   10  A    between atoms: CA_10  and  C_11
REMARK   11  A    between atoms: CA_10  and  C_13
REMARK   12  A    between atoms: C_11  and  C_12
REMARK   13  A    between atoms: C_13  and  O_14
REMARK                            x       y       z     vdW  Elec       q    Type
REMARK                         _______ _______ _______ _____ _____    ______ ____
ROOT
ATOM      1  C   UNL     1     -12.317   7.138 131.243  0.00  0.00    +0.000 C 
ENDROOT
BRANCH   1   2
ATOM      2  N   UNL     1     -11.847   7.823 130.029  0.00  0.00    +0.000 NA
ATOM      3  H   UNL     1     -12.507   8.564 129.777  0.00  0.00    +0.000 HD
BRANCH   2   4
ATOM      4  CA  UNL     1     -11.704   6.887 128.905  0.00  0.00    +0.000 C 
BRANCH   4   6
ATOM      5  C   UNL     1     -12.817   7.042 126.608  0.00  0.00    +0.000 C 
ATOM      6  C   UNL     1     -13.026   6.866 128.107  0.00  0.00    +0.000 C 
ENDBRANCH   4   6
BRANCH   4   7
ATOM      7  C   UNL     1     -10.486   7.286 128.034  0.00  0.00    +0.000 C 
BRANCH   7   8
ATOM      8  O   UNL     1      -9.610   6.210 127.747  0.00  0.00    +0.000 OA
ATOM      9  H   UNL     1      -9.663   6.049 126.788  0.00  0.00    +0.000 HD
ENDBRANCH   7   8
ENDBRANCH   4   7
ENDBRANCH   2   4
ENDBRANCH   1   2
BRANCH   1  10
ATOM     10  C   UNL     1     -11.319   6.064 131.617  0.00  0.00    +0.000 C 
BRANCH  10  11
ATOM     11  N   UNL     1     -10.489   6.416 132.758  0.00  0.00    +0.000 NA
ATOM     12  H   UNL     1     -10.841   5.934 133.588  0.00  0.00    +0.000 HD
BRANCH  11  13
ATOM     13  CA  UNL     1      -9.075   6.060 132.541  0.00  0.00    +0.000 C 
BRANCH  13  14
ATOM     14  C   UNL     1      -8.471   5.082 133.590  0.00  0.00    +0.000 C 
ATOM     15  C   UNL     1      -9.141   3.718 133.777  0.00  0.00    +0.000 C 
ENDBRANCH  13  14
BRANCH  13  16
ATOM     16  C   UNL     1      -8.963   5.429 131.125  0.00  0.00    +0.000 C 
BRANCH  16  17
ATOM     17  O   UNL     1      -8.030   6.117 130.302  0.00  0.00    +0.000 OA
ATOM     18  H   UNL     1      -8.520   6.821 129.828  0.00  0.00    +0.000 HD
ENDBRANCH  16  17
ENDBRANCH  13  16
ENDBRANCH  11  13
ENDBRANCH  10  11
ENDBRANCH   1  10
TORSDOF 11
ENDMDL
MODEL 9
REMARK VINA RESULT:      -4.5      2.613      3.805
REMARK  Name = Ethambutol
REMARK  13 active torsions:
REMARK  status: ('A' for Active; 'I' for Inactive)
REMARK    1  A    between atoms: C_1  and  C_2
REMARK    2  A    between atoms: C_2  and  CA_3
REMARK    3  A    between atoms: CA_3  and  C_4
REMARK    4  A    between atoms: CA_3  and  N_6
REMARK    5  A    between atoms: C_4  and  O_5
REMARK    6  A    between atoms: N_6  and  C_7
REMARK    7  A    between atoms: C_7  and  C_8
REMARK    8  A    between atoms: C_8  and  N_9
REMARK    9  A    between atoms: N_9  and  CA_10
REMARK   10  A    between atoms: CA_10  and  C_11
REMARK   11  A    between atoms: CA_10  and  C_13
REMARK   12  A    between atoms: C_11  and  C_12
REMARK   13  A    between atoms: C_13  and  O_14
REMARK                            x       y       z     vdW  Elec       q    Type
REMARK                         _______ _______ _______ _____ _____    ______ ____
ROOT
ATOM      1  C   UNL     1      -9.429   4.901 129.927  0.00  0.00    +0.000 C 
ENDROOT
BRANCH   1   2
ATOM      2  N   UNL     1     -10.714   5.484 129.509  0.00  0.00    +0.000 NA
ATOM      3  H   UNL     1     -10.704   5.644 128.498  0.00  0.00    +0.000 HD
BRANCH   2   4
ATOM      4  CA  UNL     1     -10.981   6.750 130.206  0.00  0.00    +0.000 C 
BRANCH   4   6
ATOM      5  C   UNL     1     -12.605   8.700 129.894  0.00  0.00    +0.000 C 
ATOM      6  C   UNL     1     -11.647   7.731 129.215  0.00  0.00    +0.000 C 
ENDBRANCH   4   6
BRANCH   4   7
ATOM      7  C   UNL     1     -11.848   6.490 131.464  0.00  0.00    +0.000 C 
BRANCH   7   8
ATOM      8  O   UNL     1     -11.122   5.966 132.562  0.00  0.00    +0.000 OA
ATOM      9  H   UNL     1     -11.535   6.319 133.370  0.00  0.00    +0.000 HD
ENDBRANCH   7   8
ENDBRANCH   4   7
ENDBRANCH   2   4
ENDBRANCH   1   2
BRANCH   1  10
ATOM     10  C   UNL     1      -9.625   3.424 130.191  0.00  0.00    +0.000 C 
BRANCH  10  11
ATOM     11  N   UNL     1     -10.519   3.147 131.303  0.00  0.00    +0.000 NA
ATOM     12  H   UNL     1     -11.411   2.807 130.937  0.00  0.00    +0.000 HD
BRANCH  11  13
ATOM     13  CA  UNL     1      -9.952   2.153 132.232  0.00  0.00    +0.000 C 
BRANCH  13  14
ATOM     14  C   UNL     1      -9.091   1.040 131.565  0.00  0.00    +0.000 C 
ATOM     15  C   UNL     1      -7.882   0.502 132.334  0.00  0.00    +0.000 C 
ENDBRANCH  13  14
BRANCH  13  16
ATOM     16  C   UNL     1      -9.085   2.921 133.269  0.00  0.00    +0.000 C 
BRANCH  16  17
ATOM     17  O   UNL     1      -9.827   3.922 133.952  0.00  0.00    +0.000 OA
ATOM     18  H   UNL     1     -10.256   4.484 133.274  0.00  0.00    +0.000 HD
ENDBRANCH  16  17
ENDBRANCH  13  16
ENDBRANCH  11  13
ENDBRANCH  10  11
ENDBRANCH   1  10
TORSDOF 11
ENDMDL
