MODEL 1
REMARK VINA RESULT:      -4.8      0.000      0.000
REMARK  Name = Ethchlorvynol
REMARK  5 active torsions:
REMARK  status: ('A' for Active; 'I' for Inactive)
REMARK    1  A    between atoms: C_1  and  C_2
REMARK    2  A    between atoms: C_2  and  C_3
REMARK    3  A    between atoms: C_3  and  O_4
REMARK    4  A    between atoms: C_3  and  C_5
REMARK    5  A    between atoms: C_3  and  C_8
REMARK                            x       y       z     vdW  Elec       q    Type
REMARK                         _______ _______ _______ _____ _____    ______ ____
ROOT
ATOM      1  C   UNL     1     -12.727   8.757 128.831  0.00  0.00    +0.000 C 
ENDROOT
BRANCH   1   2
ATOM      2  C   UNL     1     -13.356  10.132 128.978  0.00  0.00    +0.000 C 
ATOM      3  C   UNL     1     -13.330  10.887 130.088  0.00  0.00    +0.000 C 
ATOM      4 CL   UNL     1     -13.887  12.503 130.153  0.00  0.00    +0.000 Cl
ENDBRANCH   1   2
BRANCH   1   6
ATOM      5  C   UNL     1     -12.681   7.149 126.781  0.00  0.00    +0.000 C 
ATOM      6  C   UNL     1     -13.517   7.844 127.858  0.00  0.00    +0.000 C 
ENDBRANCH   1   6
BRANCH   1   7
ATOM      7  O   UNL     1     -11.384   8.901 128.383  0.00  0.00    +0.000 OA
ATOM      8  H   UNL     1     -11.199   8.201 127.741  0.00  0.00    +0.000 HD
ENDBRANCH   1   7
BRANCH   1   9
ATOM      9  C   UNL     1     -12.663   8.095 130.198  0.00  0.00    +0.000 C 
ATOM     10  C   UNL     1     -12.608   7.528 131.370  0.00  0.00    +0.000 C 
ENDBRANCH   1   9
TORSDOF 4
ENDMDL
MODEL 2
REMARK VINA RESULT:      -4.5      2.738      3.589
REMARK  Name = Ethchlorvynol
REMARK  5 active torsions:
REMARK  status: ('A' for Active; 'I' for Inactive)
REMARK    1  A    between atoms: C_1  and  C_2
REMARK    2  A    between atoms: C_2  and  C_3
REMARK    3  A    between atoms: C_3  and  O_4
REMARK    4  A    between atoms: C_3  and  C_5
REMARK    5  A    between atoms: C_3  and  C_8
REMARK                            x       y       z     vdW  Elec       q    Type
REMARK                         _______ _______ _______ _____ _____    ______ ____
ROOT
ATOM      1  C   UNL     1     -12.494   8.413 129.058  0.00  0.00    +0.000 C 
ENDROOT
BRANCH   1   2
ATOM      2  C   UNL     1     -12.294   7.634 130.346  0.00  0.00    +0.000 C 
ATOM      3  C   UNL     1     -11.182   6.962 130.688  0.00  0.00    +0.000 C 
ATOM      4 CL   UNL     1     -10.932   6.255 132.225  0.00  0.00    +0.000 Cl
ENDBRANCH   1   2
BRANCH   1   6
ATOM      5  C   UNL     1     -11.099   7.827 126.936  0.00  0.00    +0.000 C 
ATOM      6  C   UNL     1     -11.176   8.589 128.261  0.00  0.00    +0.000 C 
ENDBRANCH   1   6
BRANCH   1   7
ATOM      7  O   UNL     1     -13.464   7.750 128.255  0.00  0.00    +0.000 OA
ATOM      8  H   UNL     1     -13.648   8.299 127.480  0.00  0.00    +0.000 HD
ENDBRANCH   1   7
BRANCH   1   9
ATOM      9  C   UNL     1     -13.065   9.781 129.392  0.00  0.00    +0.000 C 
ATOM     10  C   UNL     1     -13.555  10.954 129.678  0.00  0.00    +0.000 C 
ENDBRANCH   1   9
TORSDOF 4
ENDMDL
MODEL 3
REMARK VINA RESULT:      -4.5      1.382      2.832
REMARK  Name = Ethchlorvynol
REMARK  5 active torsions:
REMARK  status: ('A' for Active; 'I' for Inactive)
REMARK    1  A    between atoms: C_1  and  C_2
REMARK    2  A    between atoms: C_2  and  C_3
REMARK    3  A    between atoms: C_3  and  O_4
REMARK    4  A    between atoms: C_3  and  C_5
REMARK    5  A    between atoms: C_3  and  C_8
REMARK                            x       y       z     vdW  Elec       q    Type
REMARK                         _______ _______ _______ _____ _____    ______ ____
ROOT
ATOM      1  C   UNL     1     -12.639   8.042 128.744  0.00  0.00    +0.000 C 
ENDROOT
BRANCH   1   2
ATOM      2  C   UNL     1     -13.242   9.436 128.720  0.00  0.00    +0.000 C 
ATOM      3  C   UNL     1     -13.263  10.296 129.752  0.00  0.00    +0.000 C 
ATOM      4 CL   UNL     1     -13.785  11.919 129.627  0.00  0.00    +0.000 Cl
ENDBRANCH   1   2
BRANCH   1   6
ATOM      5  C   UNL     1     -12.489   6.990 131.124  0.00  0.00    +0.000 C 
ATOM      6  C   UNL     1     -11.792   7.785 130.018  0.00  0.00    +0.000 C 
ENDBRANCH   1   6
BRANCH   1   7
ATOM      7  O   UNL     1     -13.682   7.078 128.649  0.00  0.00    +0.000 OA
ATOM      8  H   UNL     1     -13.282   6.209 128.507  0.00  0.00    +0.000 HD
ENDBRANCH   1   7
BRANCH   1   9
ATOM      9  C   UNL     1     -11.763   7.862 127.515  0.00  0.00    +0.000 C 
ATOM     10  C   UNL     1     -11.013   7.707 126.461  0.00  0.00    +0.000 C 
ENDBRANCH   1   9
TORSDOF 4
ENDMDL
MODEL 4
REMARK VINA RESULT:      -4.2      3.497      4.012
REMARK  Name = Ethchlorvynol
REMARK  5 active torsions:
REMARK  status: ('A' for Active; 'I' for Inactive)
REMARK    1  A    between atoms: C_1  and  C_2
REMARK    2  A    between atoms: C_2  and  C_3
REMARK    3  A    between atoms: C_3  and  O_4
REMARK    4  A    between atoms: C_3  and  C_5
REMARK    5  A    between atoms: C_3  and  C_8
REMARK                            x       y       z     vdW  Elec       q    Type
REMARK                         _______ _______ _______ _____ _____    ______ ____
ROOT
ATOM      1  C   UNL     1     -11.432   7.106 129.328  0.00  0.00    +0.000 C 
ENDROOT
BRANCH   1   2
ATOM      2  C   UNL     1      -9.974   7.354 129.676  0.00  0.00    +0.000 C 
ATOM      3  C   UNL     1      -9.331   6.856 130.746  0.00  0.00    +0.000 C 
ATOM      4 CL   UNL     1      -7.647   7.009 131.000  0.00  0.00    +0.000 Cl
ENDBRANCH   1   2
BRANCH   1   6
ATOM      5  C   UNL     1     -10.918   7.955 126.919  0.00  0.00    +0.000 C 
ATOM      6  C   UNL     1     -11.895   7.925 128.097  0.00  0.00    +0.000 C 
ENDBRANCH   1   6
BRANCH   1   7
ATOM      7  O   UNL     1     -11.626   5.716 129.091  0.00  0.00    +0.000 OA
ATOM      8  H   UNL     1     -12.367   5.611 128.478  0.00  0.00    +0.000 HD
ENDBRANCH   1   7
BRANCH   1   9
ATOM      9  C   UNL     1     -12.294   7.469 130.526  0.00  0.00    +0.000 C 
ATOM     10  C   UNL     1     -13.033   7.780 131.553  0.00  0.00    +0.000 C 
ENDBRANCH   1   9
TORSDOF 4
ENDMDL
MODEL 5
REMARK VINA RESULT:      -4.2     13.328     14.099
REMARK  Name = Ethchlorvynol
REMARK  5 active torsions:
REMARK  status: ('A' for Active; 'I' for Inactive)
REMARK    1  A    between atoms: C_1  and  C_2
REMARK    2  A    between atoms: C_2  and  C_3
REMARK    3  A    between atoms: C_3  and  O_4
REMARK    4  A    between atoms: C_3  and  C_5
REMARK    5  A    between atoms: C_3  and  C_8
REMARK                            x       y       z     vdW  Elec       q    Type
REMARK                         _______ _______ _______ _____ _____    ______ ____
ROOT
ATOM      1  C   UNL     1      -7.469  -2.509 124.396  0.00  0.00    +0.000 C 
ENDROOT
BRANCH   1   2
ATOM      2  C   UNL     1      -7.977  -3.399 125.517  0.00  0.00    +0.000 C 
ATOM      3  C   UNL     1      -8.274  -2.993 126.763  0.00  0.00    +0.000 C 
ATOM      4 CL   UNL     1      -9.017  -3.990 127.937  0.00  0.00    +0.000 Cl
ENDBRANCH   1   2
BRANCH   1   6
ATOM      5  C   UNL     1      -9.685  -3.346 123.310  0.00  0.00    +0.000 C 
ATOM      6  C   UNL     1      -8.416  -2.502 123.169  0.00  0.00    +0.000 C 
ENDBRANCH   1   6
BRANCH   1   7
ATOM      7  O   UNL     1      -7.300  -1.185 124.890  0.00  0.00    +0.000 OA
ATOM      8  H   UNL     1      -7.557  -0.564 124.194  0.00  0.00    +0.000 HD
ENDBRANCH   1   7
BRANCH   1   9
ATOM      9  C   UNL     1      -6.094  -2.994 123.966  0.00  0.00    +0.000 C 
ATOM     10  C   UNL     1      -4.916  -3.409 123.597  0.00  0.00    +0.000 C 
ENDBRANCH   1   9
TORSDOF 4
ENDMDL
MODEL 6
REMARK VINA RESULT:      -4.2     13.625     14.666
REMARK  Name = Ethchlorvynol
REMARK  5 active torsions:
REMARK  status: ('A' for Active; 'I' for Inactive)
REMARK    1  A    between atoms: C_1  and  C_2
REMARK    2  A    between atoms: C_2  and  C_3
REMARK    3  A    between atoms: C_3  and  O_4
REMARK    4  A    between atoms: C_3  and  C_5
REMARK    5  A    between atoms: C_3  and  C_8
REMARK                            x       y       z     vdW  Elec       q    Type
REMARK                         _______ _______ _______ _____ _____    ______ ____
ROOT
ATOM      1  C   UNL     1      -6.164  -2.872 124.056  0.00  0.00    +0.000 C 
ENDROOT
BRANCH   1   2
ATOM      2  C   UNL     1      -5.741  -1.952 125.188  0.00  0.00    +0.000 C 
ATOM      3  C   UNL     1      -6.016  -2.140 126.490  0.00  0.00    +0.000 C 
ATOM      4 CL   UNL     1      -5.364  -1.180 127.747  0.00  0.00    +0.000 Cl
ENDBRANCH   1   2
BRANCH   1   6
ATOM      5  C   UNL     1      -8.733  -3.132 123.705  0.00  0.00    +0.000 C 
ATOM      6  C   UNL     1      -7.463  -3.654 124.381  0.00  0.00    +0.000 C 
ENDBRANCH   1   6
BRANCH   1   7
ATOM      7  O   UNL     1      -6.340  -2.105 122.870  0.00  0.00    +0.000 OA
ATOM      8  H   UNL     1      -5.743  -2.451 122.191  0.00  0.00    +0.000 HD
ENDBRANCH   1   7
BRANCH   1   9
ATOM      9  C   UNL     1      -5.042  -3.858 123.777  0.00  0.00    +0.000 C 
ATOM     10  C   UNL     1      -4.079  -4.704 123.537  0.00  0.00    +0.000 C 
ENDBRANCH   1   9
TORSDOF 4
ENDMDL
MODEL 7
REMARK VINA RESULT:      -4.2     12.989     14.055
REMARK  Name = Ethchlorvynol
REMARK  5 active torsions:
REMARK  status: ('A' for Active; 'I' for Inactive)
REMARK    1  A    between atoms: C_1  and  C_2
REMARK    2  A    between atoms: C_2  and  C_3
REMARK    3  A    between atoms: C_3  and  O_4
REMARK    4  A    between atoms: C_3  and  C_5
REMARK    5  A    between atoms: C_3  and  C_8
REMARK                            x       y       z     vdW  Elec       q    Type
REMARK                         _______ _______ _______ _____ _____    ______ ____
ROOT
ATOM      1  C   UNL     1      -8.702  -2.914 124.955  0.00  0.00    +0.000 C 
ENDROOT
BRANCH   1   2
ATOM      2  C   UNL     1      -7.514  -3.620 124.325  0.00  0.00    +0.000 C 
ATOM      3  C   UNL     1      -6.242  -3.190 124.359  0.00  0.00    +0.000 C 
ATOM      4 CL   UNL     1      -4.912  -4.107 123.798  0.00  0.00    +0.000 Cl
ENDBRANCH   1   2
BRANCH   1   6
ATOM      5  C   UNL     1      -8.947  -0.666 123.660  0.00  0.00    +0.000 C 
ATOM      6  C   UNL     1      -8.543  -1.372 124.957  0.00  0.00    +0.000 C 
ENDBRANCH   1   6
BRANCH   1   7
ATOM      7  O   UNL     1      -9.889  -3.282 124.260  0.00  0.00    +0.000 OA
ATOM      8  H   UNL     1     -10.621  -3.295 124.892  0.00  0.00    +0.000 HD
ENDBRANCH   1   7
BRANCH   1   9
ATOM      9  C   UNL     1      -8.865  -3.403 126.385  0.00  0.00    +0.000 C 
ATOM     10  C   UNL     1      -9.004  -3.822 127.611  0.00  0.00    +0.000 C 
ENDBRANCH   1   9
TORSDOF 4
ENDMDL
MODEL 8
REMARK VINA RESULT:      -4.1     13.778     14.796
REMARK  Name = Ethchlorvynol
REMARK  5 active torsions:
REMARK  status: ('A' for Active; 'I' for Inactive)
REMARK    1  A    between atoms: C_1  and  C_2
REMARK    2  A    between atoms: C_2  and  C_3
REMARK    3  A    between atoms: C_3  and  O_4
REMARK    4  A    between atoms: C_3  and  C_5
REMARK    5  A    between atoms: C_3  and  C_8
REMARK                            x       y       z     vdW  Elec       q    Type
REMARK                         _______ _______ _______ _____ _____    ______ ____
ROOT
ATOM      1  C   UNL     1      -7.284  -2.487 124.415  0.00  0.00    +0.000 C 
ENDROOT
BRANCH   1   2
ATOM      2  C   UNL     1      -6.237  -3.566 124.197  0.00  0.00    +0.000 C 
ATOM      3  C   UNL     1      -5.036  -3.385 123.621  0.00  0.00    +0.000 C 
ATOM      4 CL   UNL     1      -3.818  -4.583 123.564  0.00  0.00    +0.000 Cl
ENDBRANCH   1   2
BRANCH   1   6
ATOM      5  C   UNL     1      -8.325  -3.162 126.706  0.00  0.00    +0.000 C 
ATOM      6  C   UNL     1      -7.489  -2.154 125.915  0.00  0.00    +0.000 C 
ENDBRANCH   1   6
BRANCH   1   7
ATOM      7  O   UNL     1      -6.904  -1.316 123.701  0.00  0.00    +0.000 OA
ATOM      8  H   UNL     1      -6.878  -1.527 122.758  0.00  0.00    +0.000 HD
ENDBRANCH   1   7
BRANCH   1   9
ATOM      9  C   UNL     1      -8.602  -2.953 123.819  0.00  0.00    +0.000 C 
ATOM     10  C   UNL     1      -9.733  -3.352 123.308  0.00  0.00    +0.000 C 
ENDBRANCH   1   9
TORSDOF 4
ENDMDL
MODEL 9
REMARK VINA RESULT:      -4.1     13.538     14.610
REMARK  Name = Ethchlorvynol
REMARK  5 active torsions:
REMARK  status: ('A' for Active; 'I' for Inactive)
REMARK    1  A    between atoms: C_1  and  C_2
REMARK    2  A    between atoms: C_2  and  C_3
REMARK    3  A    between atoms: C_3  and  O_4
REMARK    4  A    between atoms: C_3  and  C_5
REMARK    5  A    between atoms: C_3  and  C_8
REMARK                            x       y       z     vdW  Elec       q    Type
REMARK                         _______ _______ _______ _____ _____    ______ ____
ROOT
ATOM      1  C   UNL     1      -7.344  -2.525 124.783  0.00  0.00    +0.000 C 
ENDROOT
BRANCH   1   2
ATOM      2  C   UNL     1      -6.464  -3.618 124.202  0.00  0.00    +0.000 C 
ATOM      3  C   UNL     1      -5.168  -3.484 123.871  0.00  0.00    +0.000 C 
ATOM      4 CL   UNL     1      -4.169  -4.787 123.396  0.00  0.00    +0.000 Cl
ENDBRANCH   1   2
BRANCH   1   6
ATOM      5  C   UNL     1      -9.436  -3.214 123.392  0.00  0.00    +0.000 C 
ATOM      6  C   UNL     1      -8.847  -2.904 124.769  0.00  0.00    +0.000 C 
ENDBRANCH   1   6
BRANCH   1   7
ATOM      7  O   UNL     1      -6.923  -2.242 126.113  0.00  0.00    +0.000 OA
ATOM      8  H   UNL     1      -6.788  -1.288 126.195  0.00  0.00    +0.000 HD
ENDBRANCH   1   7
BRANCH   1   9
ATOM      9  C   UNL     1      -7.140  -1.250 123.981  0.00  0.00    +0.000 C 
ATOM     10  C   UNL     1      -6.966  -0.157 123.293  0.00  0.00    +0.000 C 
ENDBRANCH   1   9
TORSDOF 4
ENDMDL
