MODEL 1
REMARK VINA RESULT:      -8.5      0.000      0.000
REMARK  Name = Ethinylestradiol
REMARK  4 active torsions:
REMARK  status: ('A' for Active; 'I' for Inactive)
REMARK    1  A    between atoms: C_5  and  O_6
REMARK    2  A    between atoms: C_5  and  C_7
REMARK    3  A    between atoms: C_9  and  C_10
REMARK    4  A    between atoms: C_22  and  O_23
REMARK                            x       y       z     vdW  Elec       q    Type
REMARK                         _______ _______ _______ _____ _____    ______ ____
ROOT
ATOM      1  C   UNL     1      -7.188   1.767 124.875  0.00  0.00    +0.000 C 
ATOM      2  C   UNL     1      -7.713   2.604 125.890  0.00  0.00    +0.000 C 
ATOM      3  C   UNL     1      -8.554   2.299 124.703  0.00  0.00    +0.000 C 
ATOM      4  C   UNL     1      -7.933   0.597 123.662  0.00  0.00    +0.000 C 
ATOM      5  C   UNL     1      -8.845   0.822 124.644  0.00  0.00    +0.000 C 
ATOM      6  C   UNL     1      -9.286  -0.067 125.734  0.00  0.00    +0.000 C 
ATOM      7  C   UNL     1      -9.984   1.398 123.324  0.00  0.00    +0.000 C 
ATOM      8  C   UNL     1      -9.144   2.091 122.083  0.00  0.00    +0.000 C 
ATOM      9  C   UNL     1      -7.969   3.143 122.395  0.00  0.00    +0.000 C 
ATOM     10  C   UNL     1      -7.338   3.790 121.201  0.00  0.00    +0.000 A 
ATOM     11  C   UNL     1      -6.023   4.299 121.267  0.00  0.00    +0.000 A 
ATOM     12  C   UNL     1      -5.136   4.189 122.491  0.00  0.00    +0.000 C 
ATOM     13  C   UNL     1      -5.856   3.758 123.745  0.00  0.00    +0.000 C 
ATOM     14  C   UNL     1      -6.748   2.604 123.366  0.00  0.00    +0.000 C 
ATOM     15  C   UNL     1      -5.487   4.877 120.121  0.00  0.00    +0.000 A 
ATOM     16  C   UNL     1      -6.272   4.998 118.975  0.00  0.00    +0.000 A 
ATOM     17  C   UNL     1      -7.587   4.572 118.945  0.00  0.00    +0.000 A 
ATOM     18  C   UNL     1      -8.127   3.986 120.066  0.00  0.00    +0.000 A 
ENDROOT
BRANCH   4  19
ATOM     19  O   UNL     1      -8.691  -0.546 123.115  0.00  0.00    +0.000 OA
ATOM     20  H   UNL     1      -8.229  -1.304 122.735  0.00  0.00    +0.000 HD
ENDBRANCH   4  19
BRANCH   4  21
ATOM     21  C   UNL     1      -6.794  -0.402 124.196  0.00  0.00    +0.000 C 
ATOM     22  C   UNL     1      -5.977  -1.240 124.559  0.00  0.00    +0.000 C 
ENDBRANCH   4  21
BRANCH  16  23
ATOM     23  O   UNL     1      -5.780   5.549 117.832  0.00  0.00    +0.000 OA
ATOM     24  H   UNL     1      -6.432   6.185 117.502  0.00  0.00    +0.000 HD
ENDBRANCH  16  23
TORSDOF 3
ENDMDL
MODEL 2
REMARK VINA RESULT:      -8.0      4.781      8.447
REMARK  Name = Ethinylestradiol
REMARK  4 active torsions:
REMARK  status: ('A' for Active; 'I' for Inactive)
REMARK    1  A    between atoms: C_5  and  O_6
REMARK    2  A    between atoms: C_5  and  C_7
REMARK    3  A    between atoms: C_9  and  C_10
REMARK    4  A    between atoms: C_22  and  O_23
REMARK                            x       y       z     vdW  Elec       q    Type
REMARK                         _______ _______ _______ _____ _____    ______ ____
ROOT
ATOM      1  C   UNL     1      -7.706  -3.223 124.607  0.00  0.00    +0.000 C 
ATOM      2  C   UNL     1      -8.958  -2.994 123.985  0.00  0.00    +0.000 C 
ATOM      3  C   UNL     1      -8.176  -1.830 124.476  0.00  0.00    +0.000 C 
ATOM      4  C   UNL     1      -6.148  -2.250 124.754  0.00  0.00    +0.000 C 
ATOM      5  C   UNL     1      -6.872  -1.733 123.727  0.00  0.00    +0.000 C 
ATOM      6  C   UNL     1      -6.642  -1.834 122.274  0.00  0.00    +0.000 C 
ATOM      7  C   UNL     1      -6.816  -0.130 124.622  0.00  0.00    +0.000 C 
ATOM      8  C   UNL     1      -6.777  -0.369 126.254  0.00  0.00    +0.000 C 
ATOM      9  C   UNL     1      -7.774  -1.429 126.938  0.00  0.00    +0.000 C 
ATOM     10  C   UNL     1      -7.730  -1.498 128.432  0.00  0.00    +0.000 A 
ATOM     11  C   UNL     1      -8.124  -2.669 129.113  0.00  0.00    +0.000 A 
ATOM     12  C   UNL     1      -8.559  -3.944 128.417  0.00  0.00    +0.000 C 
ATOM     13  C   UNL     1      -8.827  -3.787 126.941  0.00  0.00    +0.000 C 
ATOM     14  C   UNL     1      -7.690  -2.977 126.371  0.00  0.00    +0.000 C 
ATOM     15  C   UNL     1      -8.049  -2.676 130.502  0.00  0.00    +0.000 A 
ATOM     16  C   UNL     1      -7.656  -1.523 131.180  0.00  0.00    +0.000 A 
ATOM     17  C   UNL     1      -7.351  -0.353 130.509  0.00  0.00    +0.000 A 
ATOM     18  C   UNL     1      -7.408  -0.334 129.135  0.00  0.00    +0.000 A 
ENDROOT
BRANCH   4  19
ATOM     19  O   UNL     1      -4.932  -1.503 124.374  0.00  0.00    +0.000 OA
ATOM     20  H   UNL     1      -4.859  -1.096 123.503  0.00  0.00    +0.000 HD
ENDBRANCH   4  19
BRANCH   4  21
ATOM     21  C   UNL     1      -5.457  -3.626 124.293  0.00  0.00    +0.000 C 
ATOM     22  C   UNL     1      -4.844  -4.621 123.925  0.00  0.00    +0.000 C 
ENDBRANCH   4  21
BRANCH  16  23
ATOM     23  O   UNL     1      -7.562  -1.494 132.537  0.00  0.00    +0.000 OA
ATOM     24  H   UNL     1      -8.450  -1.623 132.902  0.00  0.00    +0.000 HD
ENDBRANCH  16  23
TORSDOF 3
ENDMDL
MODEL 3
REMARK VINA RESULT:      -7.4      5.530      8.128
REMARK  Name = Ethinylestradiol
REMARK  4 active torsions:
REMARK  status: ('A' for Active; 'I' for Inactive)
REMARK    1  A    between atoms: C_5  and  O_6
REMARK    2  A    between atoms: C_5  and  C_7
REMARK    3  A    between atoms: C_9  and  C_10
REMARK    4  A    between atoms: C_22  and  O_23
REMARK                            x       y       z     vdW  Elec       q    Type
REMARK                         _______ _______ _______ _____ _____    ______ ____
ROOT
ATOM      1  C   UNL     1      -7.474  -2.456 130.477  0.00  0.00    +0.000 C 
ATOM      2  C   UNL     1      -6.874  -3.639 130.972  0.00  0.00    +0.000 C 
ATOM      3  C   UNL     1      -6.046  -2.689 130.186  0.00  0.00    +0.000 C 
ATOM      4  C   UNL     1      -6.853  -0.763 130.096  0.00  0.00    +0.000 C 
ATOM      5  C   UNL     1      -5.949  -1.370 130.909  0.00  0.00    +0.000 C 
ATOM      6  C   UNL     1      -5.661  -1.128 132.335  0.00  0.00    +0.000 C 
ATOM      7  C   UNL     1      -4.706  -1.073 129.590  0.00  0.00    +0.000 C 
ATOM      8  C   UNL     1      -5.411  -1.109 128.099  0.00  0.00    +0.000 C 
ATOM      9  C   UNL     1      -6.447  -2.281 127.725  0.00  0.00    +0.000 C 
ATOM     10  C   UNL     1      -6.952  -2.281 126.316  0.00  0.00    +0.000 A 
ATOM     11  C   UNL     1      -8.191  -2.877 125.994  0.00  0.00    +0.000 A 
ATOM     12  C   UNL     1      -9.120  -3.498 127.018  0.00  0.00    +0.000 C 
ATOM     13  C   UNL     1      -8.500  -3.704 128.378  0.00  0.00    +0.000 C 
ATOM     14  C   UNL     1      -7.756  -2.438 128.718  0.00  0.00    +0.000 C 
ATOM     15  C   UNL     1      -8.612  -2.834 124.669  0.00  0.00    +0.000 A 
ATOM     16  C   UNL     1      -7.785  -2.273 123.697  0.00  0.00    +0.000 A 
ATOM     17  C   UNL     1      -6.537  -1.766 124.008  0.00  0.00    +0.000 A 
ATOM     18  C   UNL     1      -6.111  -1.789 125.316  0.00  0.00    +0.000 A 
ENDROOT
BRANCH   4  19
ATOM     19  O   UNL     1      -6.236   0.566 130.275  0.00  0.00    +0.000 OA
ATOM     20  H   UNL     1      -6.478   1.122 131.026  0.00  0.00    +0.000 HD
ENDBRANCH   4  19
BRANCH   4  21
ATOM     21  C   UNL     1      -8.129  -0.296 130.954  0.00  0.00    +0.000 C 
ATOM     22  C   UNL     1      -9.080   0.155 131.580  0.00  0.00    +0.000 C 
ENDBRANCH   4  21
BRANCH  16  23
ATOM     23  O   UNL     1      -8.167  -2.205 122.393  0.00  0.00    +0.000 OA
ATOM     24  H   UNL     1      -7.525  -2.704 121.866  0.00  0.00    +0.000 HD
ENDBRANCH  16  23
TORSDOF 3
ENDMDL
MODEL 4
REMARK VINA RESULT:      -7.1      5.752      7.964
REMARK  Name = Ethinylestradiol
REMARK  4 active torsions:
REMARK  status: ('A' for Active; 'I' for Inactive)
REMARK    1  A    between atoms: C_5  and  O_6
REMARK    2  A    between atoms: C_5  and  C_7
REMARK    3  A    between atoms: C_9  and  C_10
REMARK    4  A    between atoms: C_22  and  O_23
REMARK                            x       y       z     vdW  Elec       q    Type
REMARK                         _______ _______ _______ _____ _____    ______ ____
ROOT
ATOM      1  C   UNL     1      -4.787  -1.584 129.216  0.00  0.00    +0.000 C 
ATOM      2  C   UNL     1      -4.997  -0.312 129.803  0.00  0.00    +0.000 C 
ATOM      3  C   UNL     1      -6.057  -1.345 129.928  0.00  0.00    +0.000 C 
ATOM      4  C   UNL     1      -5.364  -3.290 129.606  0.00  0.00    +0.000 C 
ATOM      5  C   UNL     1      -5.540  -2.522 130.714  0.00  0.00    +0.000 C 
ATOM      6  C   UNL     1      -4.783  -2.515 131.979  0.00  0.00    +0.000 C 
ATOM      7  C   UNL     1      -7.316  -2.982 130.633  0.00  0.00    +0.000 C 
ATOM      8  C   UNL     1      -7.792  -3.219 129.071  0.00  0.00    +0.000 C 
ATOM      9  C   UNL     1      -7.369  -2.167 127.931  0.00  0.00    +0.000 C 
ATOM     10  C   UNL     1      -7.935  -2.417 126.568  0.00  0.00    +0.000 A 
ATOM     11  C   UNL     1      -7.281  -1.933 125.415  0.00  0.00    +0.000 A 
ATOM     12  C   UNL     1      -5.960  -1.190 125.443  0.00  0.00    +0.000 C 
ATOM     13  C   UNL     1      -5.529  -0.739 126.817  0.00  0.00    +0.000 C 
ATOM     14  C   UNL     1      -5.750  -1.901 127.751  0.00  0.00    +0.000 C 
ATOM     15  C   UNL     1      -7.849  -2.209 124.176  0.00  0.00    +0.000 A 
ATOM     16  C   UNL     1      -9.064  -2.889 124.107  0.00  0.00    +0.000 A 
ATOM     17  C   UNL     1      -9.741  -3.288 125.246  0.00  0.00    +0.000 A 
ATOM     18  C   UNL     1      -9.185  -3.033 126.478  0.00  0.00    +0.000 A 
ENDROOT
BRANCH   4  19
ATOM     19  O   UNL     1      -5.594  -4.546 130.348  0.00  0.00    +0.000 OA
ATOM     20  H   UNL     1      -6.486  -4.809 130.603  0.00  0.00    +0.000 HD
ENDBRANCH   4  19
BRANCH   4  21
ATOM     21  C   UNL     1      -3.809  -3.661 129.443  0.00  0.00    +0.000 C 
ATOM     22  C   UNL     1      -2.644  -3.969 129.223  0.00  0.00    +0.000 C 
ENDBRANCH   4  21
BRANCH  16  23
ATOM     23  O   UNL     1      -9.646  -3.185 122.913  0.00  0.00    +0.000 OA
ATOM     24  H   UNL     1      -9.467  -2.454 122.303  0.00  0.00    +0.000 HD
ENDBRANCH  16  23
TORSDOF 3
ENDMDL
MODEL 5
REMARK VINA RESULT:      -7.1      3.896      8.170
REMARK  Name = Ethinylestradiol
REMARK  4 active torsions:
REMARK  status: ('A' for Active; 'I' for Inactive)
REMARK    1  A    between atoms: C_5  and  O_6
REMARK    2  A    between atoms: C_5  and  C_7
REMARK    3  A    between atoms: C_9  and  C_10
REMARK    4  A    between atoms: C_22  and  O_23
REMARK                            x       y       z     vdW  Elec       q    Type
REMARK                         _______ _______ _______ _____ _____    ______ ____
ROOT
ATOM      1  C   UNL     1      -6.444  -1.300 124.323  0.00  0.00    +0.000 C 
ATOM      2  C   UNL     1      -5.400  -2.120 123.830  0.00  0.00    +0.000 C 
ATOM      3  C   UNL     1      -6.625  -2.763 124.370  0.00  0.00    +0.000 C 
ATOM      4  C   UNL     1      -8.274  -1.482 124.440  0.00  0.00    +0.000 C 
ATOM      5  C   UNL     1      -7.819  -2.384 123.531  0.00  0.00    +0.000 C 
ATOM      6  C   UNL     1      -7.938  -2.376 122.062  0.00  0.00    +0.000 C 
ATOM      7  C   UNL     1      -8.594  -3.682 124.574  0.00  0.00    +0.000 C 
ATOM      8  C   UNL     1      -8.573  -3.247 126.166  0.00  0.00    +0.000 C 
ATOM      9  C   UNL     1      -7.234  -2.642 126.819  0.00  0.00    +0.000 C 
ATOM     10  C   UNL     1      -7.288  -2.375 128.291  0.00  0.00    +0.000 A 
ATOM     11  C   UNL     1      -6.442  -1.412 128.881  0.00  0.00    +0.000 A 
ATOM     12  C   UNL     1      -5.475  -0.545 128.098  0.00  0.00    +0.000 C 
ATOM     13  C   UNL     1      -5.260  -0.985 126.672  0.00  0.00    +0.000 C 
ATOM     14  C   UNL     1      -6.618  -1.292 126.096  0.00  0.00    +0.000 C 
ATOM     15  C   UNL     1      -6.548  -1.200 130.252  0.00  0.00    +0.000 A 
ATOM     16  C   UNL     1      -7.424  -1.977 131.007  0.00  0.00    +0.000 A 
ATOM     17  C   UNL     1      -8.190  -2.977 130.434  0.00  0.00    +0.000 A 
ATOM     18  C   UNL     1      -8.106  -3.190 129.077  0.00  0.00    +0.000 A 
ENDROOT
BRANCH   4  19
ATOM     19  O   UNL     1      -9.682  -1.675 124.040  0.00  0.00    +0.000 OA
ATOM     20  H   UNL     1     -10.400  -1.347 124.595  0.00  0.00    +0.000 HD
ENDBRANCH   4  19
BRANCH   4  21
ATOM     21  C   UNL     1      -8.282  -0.012 123.789  0.00  0.00    +0.000 C 
ATOM     22  C   UNL     1      -8.231   1.138 123.373  0.00  0.00    +0.000 C 
ENDBRANCH   4  21
BRANCH  16  23
ATOM     23  O   UNL     1      -7.562  -1.793 132.348  0.00  0.00    +0.000 OA
ATOM     24  H   UNL     1      -8.149  -1.035 132.488  0.00  0.00    +0.000 HD
ENDBRANCH  16  23
TORSDOF 3
ENDMDL
MODEL 6
REMARK VINA RESULT:      -7.0      8.315      9.093
REMARK  Name = Ethinylestradiol
REMARK  4 active torsions:
REMARK  status: ('A' for Active; 'I' for Inactive)
REMARK    1  A    between atoms: C_5  and  O_6
REMARK    2  A    between atoms: C_5  and  C_7
REMARK    3  A    between atoms: C_9  and  C_10
REMARK    4  A    between atoms: C_22  and  O_23
REMARK                            x       y       z     vdW  Elec       q    Type
REMARK                         _______ _______ _______ _____ _____    ______ ____
ROOT
ATOM      1  C   UNL     1      -7.259   3.430 132.360  0.00  0.00    +0.000 C 
ATOM      2  C   UNL     1      -7.417   3.530 133.764  0.00  0.00    +0.000 C 
ATOM      3  C   UNL     1      -8.559   3.047 132.946  0.00  0.00    +0.000 C 
ATOM      4  C   UNL     1      -7.992   2.349 131.059  0.00  0.00    +0.000 C 
ATOM      5  C   UNL     1      -8.193   1.754 132.264  0.00  0.00    +0.000 C 
ATOM      6  C   UNL     1      -7.538   0.568 132.845  0.00  0.00    +0.000 C 
ATOM      7  C   UNL     1      -9.988   1.793 131.876  0.00  0.00    +0.000 C 
ATOM      8  C   UNL     1     -10.359   3.103 130.943  0.00  0.00    +0.000 C 
ATOM      9  C   UNL     1      -9.771   4.552 131.318  0.00  0.00    +0.000 C 
ATOM     10  C   UNL     1     -10.248   5.690 130.471  0.00  0.00    +0.000 A 
ATOM     11  C   UNL     1      -9.473   6.862 130.333  0.00  0.00    +0.000 A 
ATOM     12  C   UNL     1      -8.105   7.047 130.961  0.00  0.00    +0.000 C 
ATOM     13  C   UNL     1      -7.748   6.007 131.994  0.00  0.00    +0.000 C 
ATOM     14  C   UNL     1      -8.127   4.667 131.418  0.00  0.00    +0.000 C 
ATOM     15  C   UNL     1      -9.963   7.879 129.521  0.00  0.00    +0.000 A 
ATOM     16  C   UNL     1     -11.217   7.748 128.927  0.00  0.00    +0.000 A 
ATOM     17  C   UNL     1     -12.007   6.631 129.135  0.00  0.00    +0.000 A 
ATOM     18  C   UNL     1     -11.531   5.611 129.924  0.00  0.00    +0.000 A 
ENDROOT
BRANCH   4  19
ATOM     19  O   UNL     1      -8.372   1.135 130.310  0.00  0.00    +0.000 OA
ATOM     20  H   UNL     1      -9.248   1.058 129.913  0.00  0.00    +0.000 HD
ENDBRANCH   4  19
BRANCH   4  21
ATOM     21  C   UNL     1      -6.461   2.158 130.609  0.00  0.00    +0.000 C 
ATOM     22  C   UNL     1      -5.329   1.987 130.172  0.00  0.00    +0.000 C 
ENDBRANCH   4  21
BRANCH  16  23
ATOM     23  O   UNL     1     -11.727   8.717 128.120  0.00  0.00    +0.000 OA
ATOM     24  H   UNL     1     -10.989   9.257 127.799  0.00  0.00    +0.000 HD
ENDBRANCH  16  23
TORSDOF 3
ENDMDL
MODEL 7
REMARK VINA RESULT:      -7.0     10.218     12.282
REMARK  Name = Ethinylestradiol
REMARK  4 active torsions:
REMARK  status: ('A' for Active; 'I' for Inactive)
REMARK    1  A    between atoms: C_5  and  O_6
REMARK    2  A    between atoms: C_5  and  C_7
REMARK    3  A    between atoms: C_9  and  C_10
REMARK    4  A    between atoms: C_22  and  O_23
REMARK                            x       y       z     vdW  Elec       q    Type
REMARK                         _______ _______ _______ _____ _____    ______ ____
ROOT
ATOM      1  C   UNL     1      -2.803   5.649 133.546  0.00  0.00    +0.000 C 
ATOM      2  C   UNL     1      -2.221   4.488 132.980  0.00  0.00    +0.000 C 
ATOM      3  C   UNL     1      -2.811   5.510 132.077  0.00  0.00    +0.000 C 
ATOM      4  C   UNL     1      -3.023   7.386 132.973  0.00  0.00    +0.000 C 
ATOM      5  C   UNL     1      -2.059   6.810 132.208  0.00  0.00    +0.000 C 
ATOM      6  C   UNL     1      -0.600   7.024 132.219  0.00  0.00    +0.000 C 
ATOM      7  C   UNL     1      -3.102   7.220 130.753  0.00  0.00    +0.000 C 
ATOM      8  C   UNL     1      -4.704   7.188 131.150  0.00  0.00    +0.000 C 
ATOM      9  C   UNL     1      -5.295   5.968 132.015  0.00  0.00    +0.000 C 
ATOM     10  C   UNL     1      -6.775   5.981 132.235  0.00  0.00    +0.000 A 
ATOM     11  C   UNL     1      -7.346   5.323 133.345  0.00  0.00    +0.000 A 
ATOM     12  C   UNL     1      -6.536   4.616 134.415  0.00  0.00    +0.000 C 
ATOM     13  C   UNL     1      -5.085   4.406 134.060  0.00  0.00    +0.000 C 
ATOM     14  C   UNL     1      -4.582   5.703 133.480  0.00  0.00    +0.000 C 
ATOM     15  C   UNL     1      -8.727   5.381 133.502  0.00  0.00    +0.000 A 
ATOM     16  C   UNL     1      -9.507   6.019 132.539  0.00  0.00    +0.000 A 
ATOM     17  C   UNL     1      -8.947   6.590 131.411  0.00  0.00    +0.000 A 
ATOM     18  C   UNL     1      -7.582   6.552 131.248  0.00  0.00    +0.000 A 
ENDROOT
BRANCH   4  19
ATOM     19  O   UNL     1      -2.702   8.744 132.490  0.00  0.00    +0.000 OA
ATOM     20  H   UNL     1      -1.922   8.898 131.942  0.00  0.00    +0.000 HD
ENDBRANCH   4  19
BRANCH   4  21
ATOM     21  C   UNL     1      -2.424   7.750 134.419  0.00  0.00    +0.000 C 
ATOM     22  C   UNL     1      -2.004   8.122 135.508  0.00  0.00    +0.000 C 
ENDBRANCH   4  21
BRANCH  16  23
ATOM     23  O   UNL     1     -10.859   6.105 132.662  0.00  0.00    +0.000 OA
ATOM     24  H   UNL     1     -11.055   6.624 133.456  0.00  0.00    +0.000 HD
ENDBRANCH  16  23
TORSDOF 3
ENDMDL
MODEL 8
REMARK VINA RESULT:      -6.8      8.973     10.410
REMARK  Name = Ethinylestradiol
REMARK  4 active torsions:
REMARK  status: ('A' for Active; 'I' for Inactive)
REMARK    1  A    between atoms: C_5  and  O_6
REMARK    2  A    between atoms: C_5  and  C_7
REMARK    3  A    between atoms: C_9  and  C_10
REMARK    4  A    between atoms: C_22  and  O_23
REMARK                            x       y       z     vdW  Elec       q    Type
REMARK                         _______ _______ _______ _____ _____    ______ ____
ROOT
ATOM      1  C   UNL     1      -6.196   5.028 132.525  0.00  0.00    +0.000 C 
ATOM      2  C   UNL     1      -5.600   5.897 133.471  0.00  0.00    +0.000 C 
ATOM      3  C   UNL     1      -6.911   5.276 133.792  0.00  0.00    +0.000 C 
ATOM      4  C   UNL     1      -7.328   3.579 132.646  0.00  0.00    +0.000 C 
ATOM      5  C   UNL     1      -6.766   3.778 133.867  0.00  0.00    +0.000 C 
ATOM      6  C   UNL     1      -5.728   2.994 134.561  0.00  0.00    +0.000 C 
ATOM      7  C   UNL     1      -8.475   3.941 134.521  0.00  0.00    +0.000 C 
ATOM      8  C   UNL     1      -9.482   4.584 133.381  0.00  0.00    +0.000 C 
ATOM      9  C   UNL     1      -9.017   5.863 132.526  0.00  0.00    +0.000 C 
ATOM     10  C   UNL     1     -10.039   6.431 131.591  0.00  0.00    +0.000 A 
ATOM     11  C   UNL     1      -9.648   7.171 130.455  0.00  0.00    +0.000 A 
ATOM     12  C   UNL     1      -8.203   7.403 130.057  0.00  0.00    +0.000 C 
ATOM     13  C   UNL     1      -7.197   7.038 131.120  0.00  0.00    +0.000 C 
ATOM     14  C   UNL     1      -7.611   5.700 131.677  0.00  0.00    +0.000 C 
ATOM     15  C   UNL     1     -10.644   7.662 129.618  0.00  0.00    +0.000 A 
ATOM     16  C   UNL     1     -11.984   7.471 129.951  0.00  0.00    +0.000 A 
ATOM     17  C   UNL     1     -12.360   6.816 131.110  0.00  0.00    +0.000 A 
ATOM     18  C   UNL     1     -11.387   6.314 131.942  0.00  0.00    +0.000 A 
ENDROOT
BRANCH   4  19
ATOM     19  O   UNL     1      -7.853   2.250 133.020  0.00  0.00    +0.000 OA
ATOM     20  H   UNL     1      -8.657   1.907 132.609  0.00  0.00    +0.000 HD
ENDBRANCH   4  19
BRANCH   4  21
ATOM     21  C   UNL     1      -6.260   2.889 131.663  0.00  0.00    +0.000 C 
ATOM     22  C   UNL     1      -5.523   2.349 130.848  0.00  0.00    +0.000 C 
ENDBRANCH   4  21
BRANCH  16  23
ATOM     23  O   UNL     1     -12.986   7.928 129.152  0.00  0.00    +0.000 OA
ATOM     24  H   UNL     1     -13.445   8.639 129.625  0.00  0.00    +0.000 HD
ENDBRANCH  16  23
TORSDOF 3
ENDMDL
MODEL 9
REMARK VINA RESULT:      -6.5      5.330      7.542
REMARK  Name = Ethinylestradiol
REMARK  4 active torsions:
REMARK  status: ('A' for Active; 'I' for Inactive)
REMARK    1  A    between atoms: C_5  and  O_6
REMARK    2  A    between atoms: C_5  and  C_7
REMARK    3  A    between atoms: C_9  and  C_10
REMARK    4  A    between atoms: C_22  and  O_23
REMARK                            x       y       z     vdW  Elec       q    Type
REMARK                         _______ _______ _______ _____ _____    ______ ____
ROOT
ATOM      1  C   UNL     1      -7.114   0.471 130.217  0.00  0.00    +0.000 C 
ATOM      2  C   UNL     1      -5.705   0.431 130.353  0.00  0.00    +0.000 C 
ATOM      3  C   UNL     1      -6.296   1.181 129.215  0.00  0.00    +0.000 C 
ATOM      4  C   UNL     1      -8.302   1.688 129.507  0.00  0.00    +0.000 C 
ATOM      5  C   UNL     1      -7.125   2.330 129.730  0.00  0.00    +0.000 C 
ATOM      6  C   UNL     1      -6.776   3.315 130.770  0.00  0.00    +0.000 C 
ATOM      7  C   UNL     1      -7.125   2.747 127.941  0.00  0.00    +0.000 C 
ATOM      8  C   UNL     1      -7.868   1.565 127.061  0.00  0.00    +0.000 C 
ATOM      9  C   UNL     1      -7.527   0.018 127.340  0.00  0.00    +0.000 C 
ATOM     10  C   UNL     1      -8.176  -0.969 126.422  0.00  0.00    +0.000 A 
ATOM     11  C   UNL     1      -8.394  -2.302 126.832  0.00  0.00    +0.000 A 
ATOM     12  C   UNL     1      -8.056  -2.825 128.215  0.00  0.00    +0.000 C 
ATOM     13  C   UNL     1      -7.194  -1.899 129.037  0.00  0.00    +0.000 C 
ATOM     14  C   UNL     1      -7.767  -0.513 128.884  0.00  0.00    +0.000 C 
ATOM     15  C   UNL     1      -9.014  -3.169 125.938  0.00  0.00    +0.000 A 
ATOM     16  C   UNL     1      -9.339  -2.727 124.657  0.00  0.00    +0.000 A 
ATOM     17  C   UNL     1      -9.047  -1.443 124.234  0.00  0.00    +0.000 A 
ATOM     18  C   UNL     1      -8.446  -0.570 125.110  0.00  0.00    +0.000 A 
ENDROOT
BRANCH   4  19
ATOM     19  O   UNL     1      -9.036   2.950 129.284  0.00  0.00    +0.000 OA
ATOM     20  H   UNL     1      -8.837   3.504 128.520  0.00  0.00    +0.000 HD
ENDBRANCH   4  19
BRANCH   4  21
ATOM     21  C   UNL     1      -9.076   1.474 130.900  0.00  0.00    +0.000 C 
ATOM     22  C   UNL     1      -9.732   1.384 131.930  0.00  0.00    +0.000 C 
ENDBRANCH   4  21
BRANCH  16  23
ATOM     23  O   UNL     1      -9.954  -3.544 123.759  0.00  0.00    +0.000 OA
ATOM     24  H   UNL     1     -10.083  -4.407 124.178  0.00  0.00    +0.000 HD
ENDBRANCH  16  23
TORSDOF 3
ENDMDL
