MODEL 1
REMARK VINA RESULT:      -5.4      0.000      0.000
REMARK  Name = Ethionamide
REMARK  4 active torsions:
REMARK  status: ('A' for Active; 'I' for Inactive)
REMARK    1  A    between atoms: C_1  and  C_2
REMARK    2  A    between atoms: C_2  and  C_3
REMARK    3  A    between atoms: C_7  and  C_9
REMARK    4  A    between atoms: C_9  and  N_10
REMARK                            x       y       z     vdW  Elec       q    Type
REMARK                         _______ _______ _______ _____ _____    ______ ____
ROOT
ATOM      1  C   UNL     1     -13.301   9.128 128.808  0.00  0.00    +0.000 A 
ATOM      2  N   UNL     1     -13.887   8.343 127.882  0.00  0.00    +0.000 NA
ATOM      3  C   UNL     1     -13.560   7.034 127.888  0.00  0.00    +0.000 A 
ATOM      4  C   UNL     1     -12.675   6.465 128.791  0.00  0.00    +0.000 A 
ATOM      5  C   UNL     1     -12.066   7.280 129.748  0.00  0.00    +0.000 A 
ATOM      6  C   UNL     1     -12.381   8.640 129.735  0.00  0.00    +0.000 A 
ENDROOT
BRANCH   1   8
ATOM      7  C   UNL     1     -13.512  11.104 130.301  0.00  0.00    +0.000 C 
ATOM      8  C   UNL     1     -13.734  10.569 128.892  0.00  0.00    +0.000 C 
ENDBRANCH   1   8
BRANCH   5   9
ATOM      9  C   UNL     1     -11.127   6.722 130.776  0.00  0.00    +0.000 C 
ATOM     10  S   UNL     1      -9.453   6.797 130.714  0.00  0.00    +0.000 S 
BRANCH   9  11
ATOM     11  N   UNL     1     -11.658   6.083 131.870  0.00  0.00    +0.000 N 
ATOM     12  H   UNL     1     -11.814   6.485 132.782  0.00  0.00    +0.000 HD
ATOM     13  H   UNL     1     -11.930   5.112 131.762  0.00  0.00    +0.000 HD
ENDBRANCH   9  11
ENDBRANCH   5   9
TORSDOF 3
ENDMDL
MODEL 2
REMARK VINA RESULT:      -5.2      2.514      3.037
REMARK  Name = Ethionamide
REMARK  4 active torsions:
REMARK  status: ('A' for Active; 'I' for Inactive)
REMARK    1  A    between atoms: C_1  and  C_2
REMARK    2  A    between atoms: C_2  and  C_3
REMARK    3  A    between atoms: C_7  and  C_9
REMARK    4  A    between atoms: C_9  and  N_10
REMARK                            x       y       z     vdW  Elec       q    Type
REMARK                         _______ _______ _______ _____ _____    ______ ____
ROOT
ATOM      1  C   UNL     1     -11.099   7.792 129.259  0.00  0.00    +0.000 A 
ATOM      2  N   UNL     1     -12.407   7.864 129.578  0.00  0.00    +0.000 NA
ATOM      3  C   UNL     1     -12.792   7.282 130.733  0.00  0.00    +0.000 A 
ATOM      4  C   UNL     1     -11.922   6.636 131.598  0.00  0.00    +0.000 A 
ATOM      5  C   UNL     1     -10.568   6.559 131.264  0.00  0.00    +0.000 A 
ATOM      6  C   UNL     1     -10.163   7.139 130.060  0.00  0.00    +0.000 A 
ENDROOT
BRANCH   1   8
ATOM      7  C   UNL     1     -10.988   7.745 126.776  0.00  0.00    +0.000 C 
ATOM      8  C   UNL     1     -10.627   8.529 128.032  0.00  0.00    +0.000 C 
ENDBRANCH   1   8
BRANCH   5   9
ATOM      9  C   UNL     1      -9.569   5.906 132.172  0.00  0.00    +0.000 C 
ATOM     10  S   UNL     1      -7.902   6.028 132.041  0.00  0.00    +0.000 S 
BRANCH   9  11
ATOM     11  N   UNL     1     -10.033   5.126 133.204  0.00  0.00    +0.000 N 
ATOM     12  H   UNL     1     -10.581   5.438 133.991  0.00  0.00    +0.000 HD
ATOM     13  H   UNL     1      -9.816   4.136 133.181  0.00  0.00    +0.000 HD
ENDBRANCH   9  11
ENDBRANCH   5   9
TORSDOF 3
ENDMDL
MODEL 3
REMARK VINA RESULT:      -5.1      2.507      4.966
REMARK  Name = Ethionamide
REMARK  4 active torsions:
REMARK  status: ('A' for Active; 'I' for Inactive)
REMARK    1  A    between atoms: C_1  and  C_2
REMARK    2  A    between atoms: C_2  and  C_3
REMARK    3  A    between atoms: C_7  and  C_9
REMARK    4  A    between atoms: C_9  and  N_10
REMARK                            x       y       z     vdW  Elec       q    Type
REMARK                         _______ _______ _______ _____ _____    ______ ____
ROOT
ATOM      1  C   UNL     1      -9.274   6.775 131.128  0.00  0.00    +0.000 A 
ATOM      2  N   UNL     1     -10.135   6.334 132.067  0.00  0.00    +0.000 NA
ATOM      3  C   UNL     1     -11.451   6.514 131.828  0.00  0.00    +0.000 A 
ATOM      4  C   UNL     1     -11.952   7.107 130.679  0.00  0.00    +0.000 A 
ATOM      5  C   UNL     1     -11.058   7.565 129.709  0.00  0.00    +0.000 A 
ATOM      6  C   UNL     1      -9.694   7.405 129.957  0.00  0.00    +0.000 A 
ENDROOT
BRANCH   1   8
ATOM      7  C   UNL     1      -7.567   5.871 132.694  0.00  0.00    +0.000 C 
ATOM      8  C   UNL     1      -7.807   6.486 131.320  0.00  0.00    +0.000 C 
ENDBRANCH   1   8
BRANCH   5   9
ATOM      9  C   UNL     1     -11.535   8.184 128.428  0.00  0.00    +0.000 C 
ATOM     10  S   UNL     1     -11.063   7.727 126.886  0.00  0.00    +0.000 S 
BRANCH   9  11
ATOM     11  N   UNL     1     -12.431   9.224 128.497  0.00  0.00    +0.000 N 
ATOM     12  H   UNL     1     -12.858   9.700 127.717  0.00  0.00    +0.000 HD
ATOM     13  H   UNL     1     -12.702   9.552 129.418  0.00  0.00    +0.000 HD
ENDBRANCH   9  11
ENDBRANCH   5   9
TORSDOF 3
ENDMDL
MODEL 4
REMARK VINA RESULT:      -4.7      9.954     10.841
REMARK  Name = Ethionamide
REMARK  4 active torsions:
REMARK  status: ('A' for Active; 'I' for Inactive)
REMARK    1  A    between atoms: C_1  and  C_2
REMARK    2  A    between atoms: C_2  and  C_3
REMARK    3  A    between atoms: C_7  and  C_9
REMARK    4  A    between atoms: C_9  and  N_10
REMARK                            x       y       z     vdW  Elec       q    Type
REMARK                         _______ _______ _______ _____ _____    ______ ____
ROOT
ATOM      1  C   UNL     1      -6.468   4.198 120.543  0.00  0.00    +0.000 A 
ATOM      2  N   UNL     1      -7.725   4.194 120.055  0.00  0.00    +0.000 NA
ATOM      3  C   UNL     1      -8.681   3.633 120.824  0.00  0.00    +0.000 A 
ATOM      4  C   UNL     1      -8.441   3.081 122.074  0.00  0.00    +0.000 A 
ATOM      5  C   UNL     1      -7.137   3.084 122.576  0.00  0.00    +0.000 A 
ATOM      6  C   UNL     1      -6.137   3.642 121.778  0.00  0.00    +0.000 A 
ENDROOT
BRANCH   1   8
ATOM      7  C   UNL     1      -6.030   5.648 118.571  0.00  0.00    +0.000 C 
ATOM      8  C   UNL     1      -5.405   4.917 119.753  0.00  0.00    +0.000 C 
ENDBRANCH   1   8
BRANCH   5   9
ATOM      9  C   UNL     1      -6.815   2.536 123.934  0.00  0.00    +0.000 C 
ATOM     10  S   UNL     1      -7.555   1.217 124.657  0.00  0.00    +0.000 S 
BRANCH   9  11
ATOM     11  N   UNL     1      -5.838   3.156 124.676  0.00  0.00    +0.000 N 
ATOM     12  H   UNL     1      -5.794   4.137 124.907  0.00  0.00    +0.000 HD
ATOM     13  H   UNL     1      -5.084   2.582 125.036  0.00  0.00    +0.000 HD
ENDBRANCH   9  11
ENDBRANCH   5   9
TORSDOF 3
ENDMDL
MODEL 5
REMARK VINA RESULT:      -4.5      3.603      5.057
REMARK  Name = Ethionamide
REMARK  4 active torsions:
REMARK  status: ('A' for Active; 'I' for Inactive)
REMARK    1  A    between atoms: C_1  and  C_2
REMARK    2  A    between atoms: C_2  and  C_3
REMARK    3  A    between atoms: C_7  and  C_9
REMARK    4  A    between atoms: C_9  and  N_10
REMARK                            x       y       z     vdW  Elec       q    Type
REMARK                         _______ _______ _______ _____ _____    ______ ____
ROOT
ATOM      1  C   UNL     1      -9.610   6.905 130.668  0.00  0.00    +0.000 A 
ATOM      2  N   UNL     1      -8.423   7.370 130.230  0.00  0.00    +0.000 NA
ATOM      3  C   UNL     1      -7.323   6.994 130.916  0.00  0.00    +0.000 A 
ATOM      4  C   UNL     1      -7.353   6.158 132.022  0.00  0.00    +0.000 A 
ATOM      5  C   UNL     1      -8.585   5.679 132.476  0.00  0.00    +0.000 A 
ATOM      6  C   UNL     1      -9.730   6.082 131.787  0.00  0.00    +0.000 A 
ENDROOT
BRANCH   1   8
ATOM      7  C   UNL     1     -10.479   8.142 128.695  0.00  0.00    +0.000 C 
ATOM      8  C   UNL     1     -10.838   7.221 129.854  0.00  0.00    +0.000 C 
ENDBRANCH   1   8
BRANCH   5   9
ATOM      9  C   UNL     1      -8.684   4.744 133.644  0.00  0.00    +0.000 C 
ATOM     10  S   UNL     1      -7.450   4.393 134.723  0.00  0.00    +0.000 S 
BRANCH   9  11
ATOM     11  N   UNL     1      -9.877   4.100 133.868  0.00  0.00    +0.000 N 
ATOM     12  H   UNL     1     -10.738   4.525 134.178  0.00  0.00    +0.000 HD
ATOM     13  H   UNL     1      -9.912   3.100 133.703  0.00  0.00    +0.000 HD
ENDBRANCH   9  11
ENDBRANCH   5   9
TORSDOF 3
ENDMDL
MODEL 6
REMARK VINA RESULT:      -4.5     11.484     12.892
REMARK  Name = Ethionamide
REMARK  4 active torsions:
REMARK  status: ('A' for Active; 'I' for Inactive)
REMARK    1  A    between atoms: C_1  and  C_2
REMARK    2  A    between atoms: C_2  and  C_3
REMARK    3  A    between atoms: C_7  and  C_9
REMARK    4  A    between atoms: C_9  and  N_10
REMARK                            x       y       z     vdW  Elec       q    Type
REMARK                         _______ _______ _______ _____ _____    ______ ____
ROOT
ATOM      1  C   UNL     1      -6.867  -2.797 124.230  0.00  0.00    +0.000 A 
ATOM      2  N   UNL     1      -8.028  -3.119 123.626  0.00  0.00    +0.000 NA
ATOM      3  C   UNL     1      -9.133  -3.159 124.400  0.00  0.00    +0.000 A 
ATOM      4  C   UNL     1      -9.134  -2.879 125.758  0.00  0.00    +0.000 A 
ATOM      5  C   UNL     1      -7.928  -2.548 126.382  0.00  0.00    +0.000 A 
ATOM      6  C   UNL     1      -6.776  -2.526 125.595  0.00  0.00    +0.000 A 
ENDROOT
BRANCH   1   8
ATOM      7  C   UNL     1      -4.639  -3.746 123.665  0.00  0.00    +0.000 C 
ATOM      8  C   UNL     1      -5.641  -2.636 123.367  0.00  0.00    +0.000 C 
ENDBRANCH   1   8
BRANCH   5   9
ATOM      9  C   UNL     1      -7.866  -2.200 127.839  0.00  0.00    +0.000 C 
ATOM     10  S   UNL     1      -8.150  -3.255 129.110  0.00  0.00    +0.000 S 
BRANCH   9  11
ATOM     11  N   UNL     1      -7.558  -0.907 128.191  0.00  0.00    +0.000 N 
ATOM     12  H   UNL     1      -6.965  -0.271 127.679  0.00  0.00    +0.000 HD
ATOM     13  H   UNL     1      -7.965  -0.541 129.045  0.00  0.00    +0.000 HD
ENDBRANCH   9  11
ENDBRANCH   5   9
TORSDOF 3
ENDMDL
MODEL 7
REMARK VINA RESULT:      -4.2     12.129     12.653
REMARK  Name = Ethionamide
REMARK  4 active torsions:
REMARK  status: ('A' for Active; 'I' for Inactive)
REMARK    1  A    between atoms: C_1  and  C_2
REMARK    2  A    between atoms: C_2  and  C_3
REMARK    3  A    between atoms: C_7  and  C_9
REMARK    4  A    between atoms: C_9  and  N_10
REMARK                            x       y       z     vdW  Elec       q    Type
REMARK                         _______ _______ _______ _____ _____    ______ ____
ROOT
ATOM      1  C   UNL     1      -7.949  -2.981 127.499  0.00  0.00    +0.000 A 
ATOM      2  N   UNL     1      -6.685  -2.513 127.524  0.00  0.00    +0.000 NA
ATOM      3  C   UNL     1      -6.188  -2.023 126.369  0.00  0.00    +0.000 A 
ATOM      4  C   UNL     1      -6.903  -1.969 125.183  0.00  0.00    +0.000 A 
ATOM      5  C   UNL     1      -8.211  -2.458 125.158  0.00  0.00    +0.000 A 
ATOM      6  C   UNL     1      -8.728  -2.987 126.342  0.00  0.00    +0.000 A 
ENDROOT
BRANCH   1   8
ATOM      7  C   UNL     1      -7.892  -2.723 129.971  0.00  0.00    +0.000 C 
ATOM      8  C   UNL     1      -8.564  -3.430 128.800  0.00  0.00    +0.000 C 
ENDBRANCH   1   8
BRANCH   5   9
ATOM      9  C   UNL     1      -9.052  -2.398 123.918  0.00  0.00    +0.000 C 
ATOM     10  S   UNL     1      -9.136  -1.103 122.855  0.00  0.00    +0.000 S 
BRANCH   9  11
ATOM     11  N   UNL     1      -9.838  -3.481 123.605  0.00  0.00    +0.000 N 
ATOM     12  H   UNL     1     -10.527  -3.529 122.870  0.00  0.00    +0.000 HD
ATOM     13  H   UNL     1      -9.719  -4.324 124.156  0.00  0.00    +0.000 HD
ENDBRANCH   9  11
ENDBRANCH   5   9
TORSDOF 3
ENDMDL
MODEL 8
REMARK VINA RESULT:      -4.2      9.331     10.749
REMARK  Name = Ethionamide
REMARK  4 active torsions:
REMARK  status: ('A' for Active; 'I' for Inactive)
REMARK    1  A    between atoms: C_1  and  C_2
REMARK    2  A    between atoms: C_2  and  C_3
REMARK    3  A    between atoms: C_7  and  C_9
REMARK    4  A    between atoms: C_9  and  N_10
REMARK                            x       y       z     vdW  Elec       q    Type
REMARK                         _______ _______ _______ _____ _____    ______ ____
ROOT
ATOM      1  C   UNL     1      -9.241  11.619 140.013  0.00  0.00    +0.000 A 
ATOM      2  N   UNL     1      -7.974  12.077 139.972  0.00  0.00    +0.000 NA
ATOM      3  C   UNL     1      -7.089  11.374 139.235  0.00  0.00    +0.000 A 
ATOM      4  C   UNL     1      -7.416  10.232 138.520  0.00  0.00    +0.000 A 
ATOM      5  C   UNL     1      -8.729   9.758 138.566  0.00  0.00    +0.000 A 
ATOM      6  C   UNL     1      -9.647  10.465 139.345  0.00  0.00    +0.000 A 
ENDROOT
BRANCH   1   8
ATOM      7  C   UNL     1     -10.752  13.587 139.847  0.00  0.00    +0.000 C 
ATOM      8  C   UNL     1     -10.270  12.448 140.738  0.00  0.00    +0.000 C 
ENDBRANCH   1   8
BRANCH   5   9
ATOM      9  C   UNL     1      -9.158   8.548 137.789  0.00  0.00    +0.000 C 
ATOM     10  S   UNL     1      -8.423   7.042 137.841  0.00  0.00    +0.000 S 
BRANCH   9  11
ATOM     11  N   UNL     1     -10.239   8.660 136.948  0.00  0.00    +0.000 N 
ATOM     12  H   UNL     1     -11.073   9.204 137.113  0.00  0.00    +0.000 HD
ATOM     13  H   UNL     1     -10.206   8.155 136.069  0.00  0.00    +0.000 HD
ENDBRANCH   9  11
ENDBRANCH   5   9
TORSDOF 3
ENDMDL
MODEL 9
REMARK VINA RESULT:      -4.2      2.689      4.139
REMARK  Name = Ethionamide
REMARK  4 active torsions:
REMARK  status: ('A' for Active; 'I' for Inactive)
REMARK    1  A    between atoms: C_1  and  C_2
REMARK    2  A    between atoms: C_2  and  C_3
REMARK    3  A    between atoms: C_7  and  C_9
REMARK    4  A    between atoms: C_9  and  N_10
REMARK                            x       y       z     vdW  Elec       q    Type
REMARK                         _______ _______ _______ _____ _____    ______ ____
ROOT
ATOM      1  C   UNL     1     -11.515   6.137 131.155  0.00  0.00    +0.000 A 
ATOM      2  N   UNL     1     -11.588   5.186 130.202  0.00  0.00    +0.000 NA
ATOM      3  C   UNL     1     -10.699   4.173 130.276  0.00  0.00    +0.000 A 
ATOM      4  C   UNL     1      -9.740   4.059 131.271  0.00  0.00    +0.000 A 
ATOM      5  C   UNL     1      -9.665   5.048 132.255  0.00  0.00    +0.000 A 
ATOM      6  C   UNL     1     -10.565   6.112 132.175  0.00  0.00    +0.000 A 
ENDROOT
BRANCH   1   8
ATOM      7  C   UNL     1     -12.431   8.088 129.915  0.00  0.00    +0.000 C 
ATOM      8  C   UNL     1     -12.566   7.218 131.158  0.00  0.00    +0.000 C 
ENDBRANCH   1   8
BRANCH   5   9
ATOM      9  C   UNL     1      -8.675   4.966 133.378  0.00  0.00    +0.000 C 
ATOM     10  S   UNL     1      -7.096   5.529 133.333  0.00  0.00    +0.000 S 
BRANCH   9  11
ATOM     11  N   UNL     1      -9.068   4.377 134.556  0.00  0.00    +0.000 N 
ATOM     12  H   UNL     1     -10.007   4.109 134.808  0.00  0.00    +0.000 HD
ATOM     13  H   UNL     1      -8.352   4.181 135.247  0.00  0.00    +0.000 HD
ENDBRANCH   9  11
ENDBRANCH   5   9
TORSDOF 3
ENDMDL
