MODEL 1
REMARK VINA RESULT:      -5.3      0.000      0.000
REMARK  Name = Ethinamate
REMARK  3 active torsions:
REMARK  status: ('A' for Active; 'I' for Inactive)
REMARK    1  A    between atoms: C_2  and  O_4
REMARK    2  A    between atoms: O_4  and  C_5
REMARK    3  A    between atoms: C_5  and  C_11
REMARK                            x       y       z     vdW  Elec       q    Type
REMARK                         _______ _______ _______ _____ _____    ______ ____
ROOT
ATOM      1  C   UNL     1     -12.101   7.083 129.074  0.00  0.00    +0.000 C 
ATOM      2  C   UNL     1     -10.974   8.053 128.665  0.00  0.00    +0.000 C 
ATOM      3  C   UNL     1     -10.465   7.724 127.269  0.00  0.00    +0.000 C 
ATOM      4  C   UNL     1     -11.606   7.814 126.265  0.00  0.00    +0.000 C 
ATOM      5  C   UNL     1     -12.747   6.869 126.643  0.00  0.00    +0.000 C 
ATOM      6  C   UNL     1     -13.248   7.146 128.061  0.00  0.00    +0.000 C 
ENDROOT
BRANCH   1   7
ATOM      7  C   UNL     1     -12.596   7.463 130.460  0.00  0.00    +0.000 C 
ATOM      8  C   UNL     1     -13.020   7.790 131.649  0.00  0.00    +0.000 C 
ENDBRANCH   1   7
BRANCH   1   9
ATOM      9  O   UNL     1     -11.577   5.705 129.137  0.00  0.00    +0.000 OA
BRANCH   9  11
ATOM     10  N   UNL     1     -11.178   4.405 130.947  0.00  0.00    +0.000 N 
ATOM     11  C   UNL     1     -10.705   5.382 130.134  0.00  0.00    +0.000 C 
ATOM     12  O   UNL     1      -9.597   5.860 130.334  0.00  0.00    +0.000 OA
ATOM     13  H   UNL     1     -10.582   4.122 131.715  0.00  0.00    +0.000 HD
ATOM     14  H   UNL     1     -12.080   3.976 130.828  0.00  0.00    +0.000 HD
ENDBRANCH   9  11
ENDBRANCH   1   9
TORSDOF 3
ENDMDL
MODEL 2
REMARK VINA RESULT:      -5.2      2.777      3.413
REMARK  Name = Ethinamate
REMARK  3 active torsions:
REMARK  status: ('A' for Active; 'I' for Inactive)
REMARK    1  A    between atoms: C_2  and  O_4
REMARK    2  A    between atoms: O_4  and  C_5
REMARK    3  A    between atoms: C_5  and  C_11
REMARK                            x       y       z     vdW  Elec       q    Type
REMARK                         _______ _______ _______ _____ _____    ______ ____
ROOT
ATOM      1  C   UNL     1     -11.873   7.530 129.187  0.00  0.00    +0.000 C 
ATOM      2  C   UNL     1     -13.256   7.038 128.713  0.00  0.00    +0.000 C 
ATOM      3  C   UNL     1     -13.527   7.498 127.288  0.00  0.00    +0.000 C 
ATOM      4  C   UNL     1     -12.448   6.965 126.355  0.00  0.00    +0.000 C 
ATOM      5  C   UNL     1     -11.060   7.428 126.800  0.00  0.00    +0.000 C 
ATOM      6  C   UNL     1     -10.778   7.020 128.247  0.00  0.00    +0.000 C 
ENDROOT
BRANCH   1   7
ATOM      7  C   UNL     1     -11.633   7.028 130.602  0.00  0.00    +0.000 C 
ATOM      8  C   UNL     1     -11.427   6.599 131.816  0.00  0.00    +0.000 C 
ENDBRANCH   1   7
BRANCH   1   9
ATOM      9  O   UNL     1     -11.849   9.005 129.216  0.00  0.00    +0.000 OA
BRANCH   9  11
ATOM     10  N   UNL     1     -13.528  10.508 128.996  0.00  0.00    +0.000 N 
ATOM     11  C   UNL     1     -12.872   9.664 129.830  0.00  0.00    +0.000 C 
ATOM     12  O   UNL     1     -13.232   9.554 130.994  0.00  0.00    +0.000 OA
ATOM     13  H   UNL     1     -14.296  11.036 129.391  0.00  0.00    +0.000 HD
ATOM     14  H   UNL     1     -13.276  10.636 128.030  0.00  0.00    +0.000 HD
ENDBRANCH   9  11
ENDBRANCH   1   9
TORSDOF 3
ENDMDL
MODEL 3
REMARK VINA RESULT:      -5.2      2.294      3.742
REMARK  Name = Ethinamate
REMARK  3 active torsions:
REMARK  status: ('A' for Active; 'I' for Inactive)
REMARK    1  A    between atoms: C_2  and  O_4
REMARK    2  A    between atoms: O_4  and  C_5
REMARK    3  A    between atoms: C_5  and  C_11
REMARK                            x       y       z     vdW  Elec       q    Type
REMARK                         _______ _______ _______ _____ _____    ______ ____
ROOT
ATOM      1  C   UNL     1     -11.873   7.545 129.262  0.00  0.00    +0.000 C 
ATOM      2  C   UNL     1     -12.365   7.026 130.629  0.00  0.00    +0.000 C 
ATOM      3  C   UNL     1     -11.466   5.907 131.132  0.00  0.00    +0.000 C 
ATOM      4  C   UNL     1     -10.034   6.407 131.261  0.00  0.00    +0.000 C 
ATOM      5  C   UNL     1      -9.514   6.937 129.924  0.00  0.00    +0.000 C 
ATOM      6  C   UNL     1     -10.426   8.032 129.371  0.00  0.00    +0.000 C 
ENDROOT
BRANCH   1   7
ATOM      7  C   UNL     1     -12.782   8.676 128.811  0.00  0.00    +0.000 C 
ATOM      8  C   UNL     1     -13.563   9.647 128.424  0.00  0.00    +0.000 C 
ENDBRANCH   1   7
BRANCH   1   9
ATOM      9  O   UNL     1     -11.954   6.465 128.260  0.00  0.00    +0.000 OA
BRANCH   9  11
ATOM     10  N   UNL     1     -12.718   6.880 126.169  0.00  0.00    +0.000 N 
ATOM     11  C   UNL     1     -11.629   6.748 126.966  0.00  0.00    +0.000 C 
ATOM     12  O   UNL     1     -10.508   6.897 126.499  0.00  0.00    +0.000 OA
ATOM     13  H   UNL     1     -12.547   7.083 125.193  0.00  0.00    +0.000 HD
ATOM     14  H   UNL     1     -13.662   6.771 126.501  0.00  0.00    +0.000 HD
ENDBRANCH   9  11
ENDBRANCH   1   9
TORSDOF 3
ENDMDL
MODEL 4
REMARK VINA RESULT:      -5.1      1.474      2.260
REMARK  Name = Ethinamate
REMARK  3 active torsions:
REMARK  status: ('A' for Active; 'I' for Inactive)
REMARK    1  A    between atoms: C_2  and  O_4
REMARK    2  A    between atoms: O_4  and  C_5
REMARK    3  A    between atoms: C_5  and  C_11
REMARK                            x       y       z     vdW  Elec       q    Type
REMARK                         _______ _______ _______ _____ _____    ______ ____
ROOT
ATOM      1  C   UNL     1     -10.965   6.658 130.431  0.00  0.00    +0.000 C 
ATOM      2  C   UNL     1     -10.023   7.516 129.562  0.00  0.00    +0.000 C 
ATOM      3  C   UNL     1     -10.713   7.926 128.269  0.00  0.00    +0.000 C 
ATOM      4  C   UNL     1     -11.978   8.714 128.582  0.00  0.00    +0.000 C 
ATOM      5  C   UNL     1     -12.934   7.896 129.450  0.00  0.00    +0.000 C 
ATOM      6  C   UNL     1     -12.252   7.429 130.737  0.00  0.00    +0.000 C 
ENDROOT
BRANCH   1   7
ATOM      7  C   UNL     1     -10.246   6.293 131.720  0.00  0.00    +0.000 C 
ATOM      8  C   UNL     1      -9.629   5.981 132.825  0.00  0.00    +0.000 C 
ENDBRANCH   1   7
BRANCH   1   9
ATOM      9  O   UNL     1     -11.297   5.407 129.723  0.00  0.00    +0.000 OA
BRANCH   9  11
ATOM     10  N   UNL     1     -11.113   3.380 130.714  0.00  0.00    +0.000 N 
ATOM     11  C   UNL     1     -10.515   4.311 129.930  0.00  0.00    +0.000 C 
ATOM     12  O   UNL     1      -9.395   4.103 129.483  0.00  0.00    +0.000 OA
ATOM     13  H   UNL     1     -10.583   2.542 130.913  0.00  0.00    +0.000 HD
ATOM     14  H   UNL     1     -12.033   3.497 131.105  0.00  0.00    +0.000 HD
ENDBRANCH   9  11
ENDBRANCH   1   9
TORSDOF 3
ENDMDL
MODEL 5
REMARK VINA RESULT:      -5.1     10.726     11.831
REMARK  Name = Ethinamate
REMARK  3 active torsions:
REMARK  status: ('A' for Active; 'I' for Inactive)
REMARK    1  A    between atoms: C_2  and  O_4
REMARK    2  A    between atoms: O_4  and  C_5
REMARK    3  A    between atoms: C_5  and  C_11
REMARK                            x       y       z     vdW  Elec       q    Type
REMARK                         _______ _______ _______ _____ _____    ______ ____
ROOT
ATOM      1  C   UNL     1      -6.768  -2.607 123.902  0.00  0.00    +0.000 C 
ATOM      2  C   UNL     1      -7.577  -3.779 124.495  0.00  0.00    +0.000 C 
ATOM      3  C   UNL     1      -9.026  -3.370 124.717  0.00  0.00    +0.000 C 
ATOM      4  C   UNL     1      -9.651  -2.932 123.401  0.00  0.00    +0.000 C 
ATOM      5  C   UNL     1      -8.869  -1.774 122.779  0.00  0.00    +0.000 C 
ATOM      6  C   UNL     1      -7.397  -2.141 122.587  0.00  0.00    +0.000 C 
ENDROOT
BRANCH   1   7
ATOM      7  C   UNL     1      -5.337  -3.066 123.673  0.00  0.00    +0.000 C 
ATOM      8  C   UNL     1      -4.110  -3.460 123.474  0.00  0.00    +0.000 C 
ENDBRANCH   1   7
BRANCH   1   9
ATOM      9  O   UNL     1      -6.739  -1.485 124.859  0.00  0.00    +0.000 OA
BRANCH   9  11
ATOM     10  N   UNL     1      -5.024  -0.470 125.933  0.00  0.00    +0.000 N 
ATOM     11  C   UNL     1      -5.862  -1.535 125.901  0.00  0.00    +0.000 C 
ATOM     12  O   UNL     1      -5.784  -2.399 126.764  0.00  0.00    +0.000 OA
ATOM     13  H   UNL     1      -4.341  -0.449 126.679  0.00  0.00    +0.000 HD
ATOM     14  H   UNL     1      -5.046   0.270 125.251  0.00  0.00    +0.000 HD
ENDBRANCH   9  11
ENDBRANCH   1   9
TORSDOF 3
ENDMDL
MODEL 6
REMARK VINA RESULT:      -5.0      1.988      3.010
REMARK  Name = Ethinamate
REMARK  3 active torsions:
REMARK  status: ('A' for Active; 'I' for Inactive)
REMARK    1  A    between atoms: C_2  and  O_4
REMARK    2  A    between atoms: O_4  and  C_5
REMARK    3  A    between atoms: C_5  and  C_11
REMARK                            x       y       z     vdW  Elec       q    Type
REMARK                         _______ _______ _______ _____ _____    ______ ____
ROOT
ATOM      1  C   UNL     1     -10.978   6.482 130.094  0.00  0.00    +0.000 C 
ATOM      2  C   UNL     1     -12.443   6.915 130.312  0.00  0.00    +0.000 C 
ATOM      3  C   UNL     1     -12.596   8.412 130.091  0.00  0.00    +0.000 C 
ATOM      4  C   UNL     1     -12.160   8.778 128.679  0.00  0.00    +0.000 C 
ATOM      5  C   UNL     1     -10.712   8.356 128.424  0.00  0.00    +0.000 C 
ATOM      6  C   UNL     1     -10.518   6.862 128.684  0.00  0.00    +0.000 C 
ENDROOT
BRANCH   1   7
ATOM      7  C   UNL     1     -10.876   4.979 130.299  0.00  0.00    +0.000 C 
ATOM      8  C   UNL     1     -10.787   3.690 130.475  0.00  0.00    +0.000 C 
ENDBRANCH   1   7
BRANCH   1   9
ATOM      9  O   UNL     1     -10.110   7.139 131.089  0.00  0.00    +0.000 OA
BRANCH   9  11
ATOM     10  N   UNL     1      -8.556   6.088 132.357  0.00  0.00    +0.000 N 
ATOM     11  C   UNL     1      -8.812   6.735 131.193  0.00  0.00    +0.000 C 
ATOM     12  O   UNL     1      -7.920   6.885 130.370  0.00  0.00    +0.000 OA
ATOM     13  H   UNL     1      -7.608   5.767 132.503  0.00  0.00    +0.000 HD
ATOM     14  H   UNL     1      -9.252   5.935 133.068  0.00  0.00    +0.000 HD
ENDBRANCH   9  11
ENDBRANCH   1   9
TORSDOF 3
ENDMDL
MODEL 7
REMARK VINA RESULT:      -5.0      9.070     10.315
REMARK  Name = Ethinamate
REMARK  3 active torsions:
REMARK  status: ('A' for Active; 'I' for Inactive)
REMARK    1  A    between atoms: C_2  and  O_4
REMARK    2  A    between atoms: O_4  and  C_5
REMARK    3  A    between atoms: C_5  and  C_11
REMARK                            x       y       z     vdW  Elec       q    Type
REMARK                         _______ _______ _______ _____ _____    ______ ____
ROOT
ATOM      1  C   UNL     1      -8.379  -0.818 123.995  0.00  0.00    +0.000 C 
ATOM      2  C   UNL     1      -7.710  -1.468 125.224  0.00  0.00    +0.000 C 
ATOM      3  C   UNL     1      -8.521  -2.662 125.706  0.00  0.00    +0.000 C 
ATOM      4  C   UNL     1      -8.648  -3.690 124.590  0.00  0.00    +0.000 C 
ATOM      5  C   UNL     1      -9.302  -3.077 123.350  0.00  0.00    +0.000 C 
ATOM      6  C   UNL     1      -8.533  -1.846 122.871  0.00  0.00    +0.000 C 
ENDROOT
BRANCH   1   7
ATOM      7  C   UNL     1      -7.524   0.350 123.533  0.00  0.00    +0.000 C 
ATOM      8  C   UNL     1      -6.791   1.354 123.136  0.00  0.00    +0.000 C 
ENDBRANCH   1   7
BRANCH   1   9
ATOM      9  O   UNL     1      -9.706  -0.294 124.368  0.00  0.00    +0.000 OA
BRANCH   9  11
ATOM     10  N   UNL     1     -10.303   1.874 124.106  0.00  0.00    +0.000 N 
ATOM     11  C   UNL     1     -10.294   0.633 123.560  0.00  0.00    +0.000 C 
ATOM     12  O   UNL     1     -10.771   0.452 122.448  0.00  0.00    +0.000 OA
ATOM     13  H   UNL     1     -10.733   2.610 123.561  0.00  0.00    +0.000 HD
ATOM     14  H   UNL     1      -9.923   2.080 125.015  0.00  0.00    +0.000 HD
ENDBRANCH   9  11
ENDBRANCH   1   9
TORSDOF 3
ENDMDL
MODEL 8
REMARK VINA RESULT:      -4.8     10.346     11.359
REMARK  Name = Ethinamate
REMARK  3 active torsions:
REMARK  status: ('A' for Active; 'I' for Inactive)
REMARK    1  A    between atoms: C_2  and  O_4
REMARK    2  A    between atoms: O_4  and  C_5
REMARK    3  A    between atoms: C_5  and  C_11
REMARK                            x       y       z     vdW  Elec       q    Type
REMARK                         _______ _______ _______ _____ _____    ______ ____
ROOT
ATOM      1  C   UNL     1      -7.032  -2.332 125.117  0.00  0.00    +0.000 C 
ATOM      2  C   UNL     1      -5.581  -2.856 125.111  0.00  0.00    +0.000 C 
ATOM      3  C   UNL     1      -5.225  -3.427 123.746  0.00  0.00    +0.000 C 
ATOM      4  C   UNL     1      -5.385  -2.357 122.676  0.00  0.00    +0.000 C 
ATOM      5  C   UNL     1      -6.812  -1.807 122.658  0.00  0.00    +0.000 C 
ATOM      6  C   UNL     1      -7.215  -1.268 124.031  0.00  0.00    +0.000 C 
ENDROOT
BRANCH   1   7
ATOM      7  C   UNL     1      -7.336  -1.749 126.488  0.00  0.00    +0.000 C 
ATOM      8  C   UNL     1      -7.598  -1.248 127.663  0.00  0.00    +0.000 C 
ENDBRANCH   1   7
BRANCH   1   9
ATOM      9  O   UNL     1      -7.967  -3.447 124.877  0.00  0.00    +0.000 OA
BRANCH   9  11
ATOM     10  N   UNL     1      -9.810  -3.486 123.562  0.00  0.00    +0.000 N 
ATOM     11  C   UNL     1      -9.299  -3.173 124.779  0.00  0.00    +0.000 C 
ATOM     12  O   UNL     1     -10.028  -2.713 125.646  0.00  0.00    +0.000 OA
ATOM     13  H   UNL     1     -10.794  -3.301 123.418  0.00  0.00    +0.000 HD
ATOM     14  H   UNL     1      -9.257  -3.869 122.813  0.00  0.00    +0.000 HD
ENDBRANCH   9  11
ENDBRANCH   1   9
TORSDOF 3
ENDMDL
MODEL 9
REMARK VINA RESULT:      -4.7     11.814     12.240
REMARK  Name = Ethinamate
REMARK  3 active torsions:
REMARK  status: ('A' for Active; 'I' for Inactive)
REMARK    1  A    between atoms: C_2  and  O_4
REMARK    2  A    between atoms: O_4  and  C_5
REMARK    3  A    between atoms: C_5  and  C_11
REMARK                            x       y       z     vdW  Elec       q    Type
REMARK                         _______ _______ _______ _____ _____    ______ ____
ROOT
ATOM      1  C   UNL     1      -6.823  -2.871 124.733  0.00  0.00    +0.000 C 
ATOM      2  C   UNL     1      -6.826  -1.672 123.763  0.00  0.00    +0.000 C 
ATOM      3  C   UNL     1      -7.691  -1.968 122.548  0.00  0.00    +0.000 C 
ATOM      4  C   UNL     1      -9.117  -2.273 122.986  0.00  0.00    +0.000 C 
ATOM      5  C   UNL     1      -9.153  -3.454 123.956  0.00  0.00    +0.000 C 
ATOM      6  C   UNL     1      -8.254  -3.203 125.167  0.00  0.00    +0.000 C 
ENDROOT
BRANCH   1   7
ATOM      7  C   UNL     1      -5.970  -2.522 125.942  0.00  0.00    +0.000 C 
ATOM      8  C   UNL     1      -5.238  -2.223 126.978  0.00  0.00    +0.000 C 
ENDBRANCH   1   7
BRANCH   1   9
ATOM      9  O   UNL     1      -6.224  -4.046 124.074  0.00  0.00    +0.000 OA
BRANCH   9  11
ATOM     10  N   UNL     1      -4.357  -5.219 123.560  0.00  0.00    +0.000 N 
ATOM     11  C   UNL     1      -4.913  -3.991 123.702  0.00  0.00    +0.000 C 
ATOM     12  O   UNL     1      -4.245  -2.989 123.487  0.00  0.00    +0.000 OA
ATOM     13  H   UNL     1      -3.381  -5.250 123.292  0.00  0.00    +0.000 HD
ATOM     14  H   UNL     1      -4.860  -6.075 123.722  0.00  0.00    +0.000 HD
ENDBRANCH   9  11
ENDBRANCH   1   9
TORSDOF 3
ENDMDL
