MODEL 1
REMARK VINA RESULT:      -5.5      0.000      0.000
REMARK  Name = Ethosuximide
REMARK  3 active torsions:
REMARK  status: ('A' for Active; 'I' for Inactive)
REMARK    1  A    between atoms: C_1  and  C_2
REMARK    2  A    between atoms: C_2  and  C_3
REMARK    3  A    between atoms: C_3  and  C_4
REMARK                            x       y       z     vdW  Elec       q    Type
REMARK                         _______ _______ _______ _____ _____    ______ ____
ROOT
ATOM      1  C   UNL     1     -12.623   8.480 129.241  0.00  0.00    +0.000 C 
ATOM      2  C   UNL     1     -13.575   8.045 128.112  0.00  0.00    +0.000 C 
ATOM      3  C   UNL     1     -11.194   8.527 128.667  0.00  0.00    +0.000 C 
ATOM      4  C   UNL     1     -10.762   7.096 128.838  0.00  0.00    +0.000 C 
ATOM      5  O   UNL     1     -10.016   6.464 128.105  0.00  0.00    +0.000 OA
ATOM      6  N   UNL     1     -11.371   6.630 129.954  0.00  0.00    +0.000 N 
ATOM      7  C   UNL     1     -12.437   7.394 130.301  0.00  0.00    +0.000 C 
ATOM      8  O   UNL     1     -13.136   7.182 131.278  0.00  0.00    +0.000 OA
ATOM      9  H   UNL     1     -11.159   5.752 130.401  0.00  0.00    +0.000 HD
ENDROOT
BRANCH   1  11
ATOM     10  C   UNL     1     -13.887  10.668 128.846  0.00  0.00    +0.000 C 
ATOM     11  C   UNL     1     -13.096   9.814 129.839  0.00  0.00    +0.000 C 
ENDBRANCH   1  11
TORSDOF 1
ENDMDL
MODEL 2
REMARK VINA RESULT:      -5.2      1.424      1.497
REMARK  Name = Ethosuximide
REMARK  3 active torsions:
REMARK  status: ('A' for Active; 'I' for Inactive)
REMARK    1  A    between atoms: C_1  and  C_2
REMARK    2  A    between atoms: C_2  and  C_3
REMARK    3  A    between atoms: C_3  and  C_4
REMARK                            x       y       z     vdW  Elec       q    Type
REMARK                         _______ _______ _______ _____ _____    ______ ____
ROOT
ATOM      1  C   UNL     1     -12.202   7.811 129.041  0.00  0.00    +0.000 C 
ATOM      2  C   UNL     1     -13.353   6.834 128.743  0.00  0.00    +0.000 C 
ATOM      3  C   UNL     1     -11.605   8.269 127.697  0.00  0.00    +0.000 C 
ATOM      4  C   UNL     1     -10.615   7.169 127.426  0.00  0.00    +0.000 C 
ATOM      5  O   UNL     1     -10.295   6.725 126.334  0.00  0.00    +0.000 OA
ATOM      6  N   UNL     1     -10.154   6.747 128.627  0.00  0.00    +0.000 N 
ATOM      7  C   UNL     1     -10.981   7.113 129.640  0.00  0.00    +0.000 C 
ATOM      8  O   UNL     1     -10.771   6.860 130.814  0.00  0.00    +0.000 OA
ATOM      9  H   UNL     1      -9.375   6.122 128.758  0.00  0.00    +0.000 HD
ENDROOT
BRANCH   1  11
ATOM     10  C   UNL     1     -13.335  10.104 129.109  0.00  0.00    +0.000 C 
ATOM     11  C   UNL     1     -12.711   8.965 129.919  0.00  0.00    +0.000 C 
ENDBRANCH   1  11
TORSDOF 1
ENDMDL
MODEL 3
REMARK VINA RESULT:      -5.2      1.780      3.006
REMARK  Name = Ethosuximide
REMARK  3 active torsions:
REMARK  status: ('A' for Active; 'I' for Inactive)
REMARK    1  A    between atoms: C_1  and  C_2
REMARK    2  A    between atoms: C_2  and  C_3
REMARK    3  A    between atoms: C_3  and  C_4
REMARK                            x       y       z     vdW  Elec       q    Type
REMARK                         _______ _______ _______ _____ _____    ______ ____
ROOT
ATOM      1  C   UNL     1     -11.958   7.253 129.572  0.00  0.00    +0.000 C 
ATOM      2  C   UNL     1     -12.685   8.427 130.253  0.00  0.00    +0.000 C 
ATOM      3  C   UNL     1     -11.746   6.149 130.625  0.00  0.00    +0.000 C 
ATOM      4  C   UNL     1     -10.456   6.594 131.260  0.00  0.00    +0.000 C 
ATOM      5  O   UNL     1     -10.129   6.452 132.429  0.00  0.00    +0.000 OA
ATOM      6  N   UNL     1      -9.728   7.199 130.293  0.00  0.00    +0.000 N 
ATOM      7  C   UNL     1     -10.501   7.578 129.244  0.00  0.00    +0.000 C 
ATOM      8  O   UNL     1     -10.069   8.130 128.246  0.00  0.00    +0.000 OA
ATOM      9  H   UNL     1      -8.761   7.469 130.384  0.00  0.00    +0.000 HD
ENDROOT
BRANCH   1  11
ATOM     10  C   UNL     1     -13.744   7.842 127.838  0.00  0.00    +0.000 C 
ATOM     11  C   UNL     1     -12.751   6.791 128.340  0.00  0.00    +0.000 C 
ENDBRANCH   1  11
TORSDOF 1
ENDMDL
MODEL 4
REMARK VINA RESULT:      -5.1      2.017      3.194
REMARK  Name = Ethosuximide
REMARK  3 active torsions:
REMARK  status: ('A' for Active; 'I' for Inactive)
REMARK    1  A    between atoms: C_1  and  C_2
REMARK    2  A    between atoms: C_2  and  C_3
REMARK    3  A    between atoms: C_3  and  C_4
REMARK                            x       y       z     vdW  Elec       q    Type
REMARK                         _______ _______ _______ _____ _____    ______ ____
ROOT
ATOM      1  C   UNL     1     -12.076   7.464 129.901  0.00  0.00    +0.000 C 
ATOM      2  C   UNL     1     -10.551   7.530 129.702  0.00  0.00    +0.000 C 
ATOM      3  C   UNL     1     -12.632   6.374 128.964  0.00  0.00    +0.000 C 
ATOM      4  C   UNL     1     -12.820   7.152 127.690  0.00  0.00    +0.000 C 
ATOM      5  O   UNL     1     -12.693   6.730 126.550  0.00  0.00    +0.000 OA
ATOM      6  N   UNL     1     -13.142   8.418 128.043  0.00  0.00    +0.000 N 
ATOM      7  C   UNL     1     -12.794   8.686 129.327  0.00  0.00    +0.000 C 
ATOM      8  O   UNL     1     -12.996   9.756 129.877  0.00  0.00    +0.000 OA
ATOM      9  H   UNL     1     -13.468   9.129 127.407  0.00  0.00    +0.000 HD
ENDROOT
BRANCH   1  11
ATOM     10  C   UNL     1     -11.346   6.386 132.103  0.00  0.00    +0.000 C 
ATOM     11  C   UNL     1     -12.400   7.232 131.385  0.00  0.00    +0.000 C 
ENDBRANCH   1  11
TORSDOF 1
ENDMDL
MODEL 5
REMARK VINA RESULT:      -5.1      1.959      3.055
REMARK  Name = Ethosuximide
REMARK  3 active torsions:
REMARK  status: ('A' for Active; 'I' for Inactive)
REMARK    1  A    between atoms: C_1  and  C_2
REMARK    2  A    between atoms: C_2  and  C_3
REMARK    3  A    between atoms: C_3  and  C_4
REMARK                            x       y       z     vdW  Elec       q    Type
REMARK                         _______ _______ _______ _____ _____    ______ ____
ROOT
ATOM      1  C   UNL     1     -12.239   7.863 128.649  0.00  0.00    +0.000 C 
ATOM      2  C   UNL     1     -13.349   6.978 128.053  0.00  0.00    +0.000 C 
ATOM      3  C   UNL     1     -11.506   7.045 129.729  0.00  0.00    +0.000 C 
ATOM      4  C   UNL     1     -12.373   7.303 130.932  0.00  0.00    +0.000 C 
ATOM      5  O   UNL     1     -12.601   6.529 131.849  0.00  0.00    +0.000 OA
ATOM      6  N   UNL     1     -12.869   8.556 130.798  0.00  0.00    +0.000 N 
ATOM      7  C   UNL     1     -12.793   8.993 129.516  0.00  0.00    +0.000 C 
ATOM      8  O   UNL     1     -13.165  10.096 129.151  0.00  0.00    +0.000 OA
ATOM      9  H   UNL     1     -13.364   9.059 131.518  0.00  0.00    +0.000 HD
ENDROOT
BRANCH   1  11
ATOM     10  C   UNL     1     -10.681   7.247 126.716  0.00  0.00    +0.000 C 
ATOM     11  C   UNL     1     -11.320   8.375 127.529  0.00  0.00    +0.000 C 
ENDBRANCH   1  11
TORSDOF 1
ENDMDL
MODEL 6
REMARK VINA RESULT:      -5.1      1.599      2.329
REMARK  Name = Ethosuximide
REMARK  3 active torsions:
REMARK  status: ('A' for Active; 'I' for Inactive)
REMARK    1  A    between atoms: C_1  and  C_2
REMARK    2  A    between atoms: C_2  and  C_3
REMARK    3  A    between atoms: C_3  and  C_4
REMARK                            x       y       z     vdW  Elec       q    Type
REMARK                         _______ _______ _______ _____ _____    ______ ____
ROOT
ATOM      1  C   UNL     1     -12.489   8.397 128.936  0.00  0.00    +0.000 C 
ATOM      2  C   UNL     1     -11.047   8.693 128.485  0.00  0.00    +0.000 C 
ATOM      3  C   UNL     1     -12.452   8.016 130.429  0.00  0.00    +0.000 C 
ATOM      4  C   UNL     1     -12.162   6.542 130.349  0.00  0.00    +0.000 C 
ATOM      5  O   UNL     1     -11.506   5.881 131.140  0.00  0.00    +0.000 OA
ATOM      6  N   UNL     1     -12.753   6.084 129.220  0.00  0.00    +0.000 N 
ATOM      7  C   UNL     1     -13.029   7.091 128.353  0.00  0.00    +0.000 C 
ATOM      8  O   UNL     1     -13.573   6.928 127.274  0.00  0.00    +0.000 OA
ATOM      9  H   UNL     1     -12.854   5.111 128.977  0.00  0.00    +0.000 HD
ENDROOT
BRANCH   1  11
ATOM     10  C   UNL     1     -13.410  10.642 129.746  0.00  0.00    +0.000 C 
ATOM     11  C   UNL     1     -13.392   9.600 128.625  0.00  0.00    +0.000 C 
ENDBRANCH   1  11
TORSDOF 1
ENDMDL
MODEL 7
REMARK VINA RESULT:      -4.9     12.352     13.546
REMARK  Name = Ethosuximide
REMARK  3 active torsions:
REMARK  status: ('A' for Active; 'I' for Inactive)
REMARK    1  A    between atoms: C_1  and  C_2
REMARK    2  A    between atoms: C_2  and  C_3
REMARK    3  A    between atoms: C_3  and  C_4
REMARK                            x       y       z     vdW  Elec       q    Type
REMARK                         _______ _______ _______ _____ _____    ______ ____
ROOT
ATOM      1  C   UNL     1      -6.017  -2.609 123.828  0.00  0.00    +0.000 C 
ATOM      2  C   UNL     1      -6.590  -1.861 122.611  0.00  0.00    +0.000 C 
ATOM      3  C   UNL     1      -7.035  -3.686 124.248  0.00  0.00    +0.000 C 
ATOM      4  C   UNL     1      -7.944  -2.894 125.149  0.00  0.00    +0.000 C 
ATOM      5  O   UNL     1      -9.147  -3.052 125.296  0.00  0.00    +0.000 OA
ATOM      6  N   UNL     1      -7.179  -1.957 125.757  0.00  0.00    +0.000 N 
ATOM      7  C   UNL     1      -6.013  -1.751 125.093  0.00  0.00    +0.000 C 
ATOM      8  O   UNL     1      -5.154  -0.965 125.456  0.00  0.00    +0.000 OA
ATOM      9  H   UNL     1      -7.481  -1.375 126.523  0.00  0.00    +0.000 HD
ENDROOT
BRANCH   1  11
ATOM     10  C   UNL     1      -4.524  -4.682 123.691  0.00  0.00    +0.000 C 
ATOM     11  C   UNL     1      -4.626  -3.169 123.490  0.00  0.00    +0.000 C 
ENDBRANCH   1  11
TORSDOF 1
ENDMDL
MODEL 8
REMARK VINA RESULT:      -4.7     11.001     12.408
REMARK  Name = Ethosuximide
REMARK  3 active torsions:
REMARK  status: ('A' for Active; 'I' for Inactive)
REMARK    1  A    between atoms: C_1  and  C_2
REMARK    2  A    between atoms: C_2  and  C_3
REMARK    3  A    between atoms: C_3  and  C_4
REMARK                            x       y       z     vdW  Elec       q    Type
REMARK                         _______ _______ _______ _____ _____    ______ ____
ROOT
ATOM      1  C   UNL     1      -8.549  -2.574 123.869  0.00  0.00    +0.000 C 
ATOM      2  C   UNL     1      -9.720  -3.426 123.347  0.00  0.00    +0.000 C 
ATOM      3  C   UNL     1      -7.769  -3.417 124.897  0.00  0.00    +0.000 C 
ATOM      4  C   UNL     1      -8.547  -3.140 126.155  0.00  0.00    +0.000 C 
ATOM      5  O   UNL     1      -8.735  -3.911 127.083  0.00  0.00    +0.000 OA
ATOM      6  N   UNL     1      -9.017  -1.874 126.058  0.00  0.00    +0.000 N 
ATOM      7  C   UNL     1      -9.014  -1.433 124.774  0.00  0.00    +0.000 C 
ATOM      8  O   UNL     1      -9.379  -0.319 124.438  0.00  0.00    +0.000 OA
ATOM      9  H   UNL     1      -9.448  -1.360 126.810  0.00  0.00    +0.000 HD
ENDROOT
BRANCH   1  11
ATOM     10  C   UNL     1      -6.198  -2.044 123.013  0.00  0.00    +0.000 C 
ATOM     11  C   UNL     1      -7.694  -2.082 122.692  0.00  0.00    +0.000 C 
ENDBRANCH   1  11
TORSDOF 1
ENDMDL
MODEL 9
REMARK VINA RESULT:      -4.6     11.373     12.746
REMARK  Name = Ethosuximide
REMARK  3 active torsions:
REMARK  status: ('A' for Active; 'I' for Inactive)
REMARK    1  A    between atoms: C_1  and  C_2
REMARK    2  A    between atoms: C_2  and  C_3
REMARK    3  A    between atoms: C_3  and  C_4
REMARK                            x       y       z     vdW  Elec       q    Type
REMARK                         _______ _______ _______ _____ _____    ______ ____
ROOT
ATOM      1  C   UNL     1      -7.201  -2.302 123.622  0.00  0.00    +0.000 C 
ATOM      2  C   UNL     1      -6.340  -1.806 122.445  0.00  0.00    +0.000 C 
ATOM      3  C   UNL     1      -8.624  -2.566 123.093  0.00  0.00    +0.000 C 
ATOM      4  C   UNL     1      -9.237  -1.197 123.206  0.00  0.00    +0.000 C 
ATOM      5  O   UNL     1     -10.077  -0.708 122.465  0.00  0.00    +0.000 OA
ATOM      6  N   UNL     1      -8.670  -0.597 124.280  0.00  0.00    +0.000 N 
ATOM      7  C   UNL     1      -7.504  -1.195 124.632  0.00  0.00    +0.000 C 
ATOM      8  O   UNL     1      -6.818  -0.842 125.576  0.00  0.00    +0.000 OA
ATOM      9  H   UNL     1      -8.986   0.268 124.689  0.00  0.00    +0.000 HD
ENDROOT
BRANCH   1  11
ATOM     10  C   UNL     1      -5.066  -3.685 123.896  0.00  0.00    +0.000 C 
ATOM     11  C   UNL     1      -6.542  -3.529 124.271  0.00  0.00    +0.000 C 
ENDBRANCH   1  11
TORSDOF 1
ENDMDL
