MODEL 1
REMARK VINA RESULT:      -6.9      0.000      0.000
REMARK  Name = Ethotoin
REMARK  3 active torsions:
REMARK  status: ('A' for Active; 'I' for Inactive)
REMARK    1  A    between atoms: C_1  and  C_2
REMARK    2  A    between atoms: C_2  and  N_3
REMARK    3  A    between atoms: C_7  and  C_10
REMARK                            x       y       z     vdW  Elec       q    Type
REMARK                         _______ _______ _______ _____ _____    ______ ____
ROOT
ATOM      1  N   UNL     1      -9.434   5.781 131.073  0.00  0.00    +0.000 N 
ATOM      2  C   UNL     1     -10.118   6.063 132.218  0.00  0.00    +0.000 C 
ATOM      3  O   UNL     1      -9.657   6.285 133.329  0.00  0.00    +0.000 OA
ATOM      4  N   UNL     1     -11.464   6.061 131.941  0.00  0.00    +0.000 N 
ATOM      5  C   UNL     1     -11.727   5.782 130.562  0.00  0.00    +0.000 C 
ATOM      6  C   UNL     1     -10.306   5.618 130.028  0.00  0.00    +0.000 C 
ATOM      7  O   UNL     1     -10.019   5.391 128.860  0.00  0.00    +0.000 OA
ATOM      8  H   UNL     1     -12.164   6.238 132.648  0.00  0.00    +0.000 HD
ENDROOT
BRANCH   5   9
ATOM      9  C   UNL     1     -12.447   6.888 129.846  0.00  0.00    +0.000 A 
ATOM     10  C   UNL     1     -13.195   6.591 128.700  0.00  0.00    +0.000 A 
ATOM     11  C   UNL     1     -13.652   7.617 127.880  0.00  0.00    +0.000 A 
ATOM     12  C   UNL     1     -13.454   8.947 128.247  0.00  0.00    +0.000 A 
ATOM     13  C   UNL     1     -12.765   9.256 129.418  0.00  0.00    +0.000 A 
ATOM     14  C   UNL     1     -12.262   8.232 130.216  0.00  0.00    +0.000 A 
ENDBRANCH   5   9
BRANCH   1  16
ATOM     15  C   UNL     1      -7.361   7.079 130.916  0.00  0.00    +0.000 C 
ATOM     16  C   UNL     1      -7.992   5.695 130.948  0.00  0.00    +0.000 C 
ENDBRANCH   1  16
TORSDOF 2
ENDMDL
MODEL 2
REMARK VINA RESULT:      -6.6      1.733      2.006
REMARK  Name = Ethotoin
REMARK  3 active torsions:
REMARK  status: ('A' for Active; 'I' for Inactive)
REMARK    1  A    between atoms: C_1  and  C_2
REMARK    2  A    between atoms: C_2  and  N_3
REMARK    3  A    between atoms: C_7  and  C_10
REMARK                            x       y       z     vdW  Elec       q    Type
REMARK                         _______ _______ _______ _____ _____    ______ ____
ROOT
ATOM      1  N   UNL     1      -9.873   4.752 131.713  0.00  0.00    +0.000 N 
ATOM      2  C   UNL     1      -9.966   5.888 132.459  0.00  0.00    +0.000 C 
ATOM      3  O   UNL     1      -9.241   6.242 133.378  0.00  0.00    +0.000 OA
ATOM      4  N   UNL     1     -11.043   6.620 132.018  0.00  0.00    +0.000 N 
ATOM      5  C   UNL     1     -11.712   5.982 130.925  0.00  0.00    +0.000 C 
ATOM      6  C   UNL     1     -10.857   4.728 130.760  0.00  0.00    +0.000 C 
ATOM      7  O   UNL     1     -11.034   3.868 129.906  0.00  0.00    +0.000 OA
ATOM      8  H   UNL     1     -11.308   7.501 132.435  0.00  0.00    +0.000 HD
ENDROOT
BRANCH   5   9
ATOM      9  C   UNL     1     -11.725   6.796 129.664  0.00  0.00    +0.000 A 
ATOM     10  C   UNL     1     -12.768   6.623 128.746  0.00  0.00    +0.000 A 
ATOM     11  C   UNL     1     -12.671   7.165 127.469  0.00  0.00    +0.000 A 
ATOM     12  C   UNL     1     -11.581   7.964 127.129  0.00  0.00    +0.000 A 
ATOM     13  C   UNL     1     -10.566   8.196 128.055  0.00  0.00    +0.000 A 
ATOM     14  C   UNL     1     -10.635   7.613 129.318  0.00  0.00    +0.000 A 
ENDBRANCH   5   9
BRANCH   1  16
ATOM     15  C   UNL     1      -9.258   2.727 132.949  0.00  0.00    +0.000 C 
ATOM     16  C   UNL     1      -8.865   3.719 131.865  0.00  0.00    +0.000 C 
ENDBRANCH   1  16
TORSDOF 2
ENDMDL
MODEL 3
REMARK VINA RESULT:      -6.0      2.457      4.841
REMARK  Name = Ethotoin
REMARK  3 active torsions:
REMARK  status: ('A' for Active; 'I' for Inactive)
REMARK    1  A    between atoms: C_1  and  C_2
REMARK    2  A    between atoms: C_2  and  N_3
REMARK    3  A    between atoms: C_7  and  C_10
REMARK                            x       y       z     vdW  Elec       q    Type
REMARK                         _______ _______ _______ _____ _____    ______ ____
ROOT
ATOM      1  N   UNL     1     -10.779   7.507 129.699  0.00  0.00    +0.000 N 
ATOM      2  C   UNL     1     -11.989   7.181 130.234  0.00  0.00    +0.000 C 
ATOM      3  O   UNL     1     -13.098   7.401 129.766  0.00  0.00    +0.000 OA
ATOM      4  N   UNL     1     -11.785   6.541 131.433  0.00  0.00    +0.000 N 
ATOM      5  C   UNL     1     -10.393   6.406 131.737  0.00  0.00    +0.000 C 
ATOM      6  C   UNL     1      -9.768   7.069 130.512  0.00  0.00    +0.000 C 
ATOM      7  O   UNL     1      -8.564   7.169 130.308  0.00  0.00    +0.000 OA
ATOM      8  H   UNL     1     -12.547   6.216 132.011  0.00  0.00    +0.000 HD
ENDROOT
BRANCH   5   9
ATOM      9  C   UNL     1      -9.937   4.982 131.872  0.00  0.00    +0.000 A 
ATOM     10  C   UNL     1     -10.217   4.072 130.844  0.00  0.00    +0.000 A 
ATOM     11  C   UNL     1     -10.040   2.709 131.054  0.00  0.00    +0.000 A 
ATOM     12  C   UNL     1      -9.490   2.249 132.250  0.00  0.00    +0.000 A 
ATOM     13  C   UNL     1      -9.149   3.151 133.256  0.00  0.00    +0.000 A 
ATOM     14  C   UNL     1      -9.372   4.512 133.070  0.00  0.00    +0.000 A 
ENDBRANCH   5   9
BRANCH   1  16
ATOM     15  C   UNL     1     -10.640   7.216 127.269  0.00  0.00    +0.000 C 
ATOM     16  C   UNL     1     -10.568   8.190 128.436  0.00  0.00    +0.000 C 
ENDBRANCH   1  16
TORSDOF 2
ENDMDL
MODEL 4
REMARK VINA RESULT:      -6.0      2.157      5.174
REMARK  Name = Ethotoin
REMARK  3 active torsions:
REMARK  status: ('A' for Active; 'I' for Inactive)
REMARK    1  A    between atoms: C_1  and  C_2
REMARK    2  A    between atoms: C_2  and  N_3
REMARK    3  A    between atoms: C_7  and  C_10
REMARK                            x       y       z     vdW  Elec       q    Type
REMARK                         _______ _______ _______ _____ _____    ______ ____
ROOT
ATOM      1  N   UNL     1     -12.209   8.014 128.728  0.00  0.00    +0.000 N 
ATOM      2  C   UNL     1     -11.164   7.828 127.874  0.00  0.00    +0.000 C 
ATOM      3  O   UNL     1     -10.906   8.459 126.858  0.00  0.00    +0.000 OA
ATOM      4  N   UNL     1     -10.400   6.780 128.331  0.00  0.00    +0.000 N 
ATOM      5  C   UNL     1     -10.921   6.229 129.544  0.00  0.00    +0.000 C 
ATOM      6  C   UNL     1     -12.139   7.122 129.765  0.00  0.00    +0.000 C 
ATOM      7  O   UNL     1     -12.901   7.043 130.721  0.00  0.00    +0.000 OA
ATOM      8  H   UNL     1      -9.575   6.459 127.846  0.00  0.00    +0.000 HD
ENDROOT
BRANCH   5   9
ATOM      9  C   UNL     1      -9.972   6.313 130.705  0.00  0.00    +0.000 A 
ATOM     10  C   UNL     1      -8.694   6.853 130.508  0.00  0.00    +0.000 A 
ATOM     11  C   UNL     1      -7.718   6.707 131.487  0.00  0.00    +0.000 A 
ATOM     12  C   UNL     1      -8.033   6.110 132.707  0.00  0.00    +0.000 A 
ATOM     13  C   UNL     1      -9.318   5.625 132.939  0.00  0.00    +0.000 A 
ATOM     14  C   UNL     1     -10.285   5.724 131.942  0.00  0.00    +0.000 A 
ENDBRANCH   5   9
BRANCH   1  16
ATOM     15  C   UNL     1     -13.026  10.158 129.590  0.00  0.00    +0.000 C 
ATOM     16  C   UNL     1     -13.240   9.026 128.596  0.00  0.00    +0.000 C 
ENDBRANCH   1  16
TORSDOF 2
ENDMDL
MODEL 5
REMARK VINA RESULT:      -5.9      2.024      5.302
REMARK  Name = Ethotoin
REMARK  3 active torsions:
REMARK  status: ('A' for Active; 'I' for Inactive)
REMARK    1  A    between atoms: C_1  and  C_2
REMARK    2  A    between atoms: C_2  and  N_3
REMARK    3  A    between atoms: C_7  and  C_10
REMARK                            x       y       z     vdW  Elec       q    Type
REMARK                         _______ _______ _______ _____ _____    ______ ____
ROOT
ATOM      1  N   UNL     1     -11.234   7.027 129.889  0.00  0.00    +0.000 N 
ATOM      2  C   UNL     1     -10.248   6.558 129.074  0.00  0.00    +0.000 C 
ATOM      3  O   UNL     1      -9.802   7.080 128.061  0.00  0.00    +0.000 OA
ATOM      4  N   UNL     1      -9.799   5.356 129.568  0.00  0.00    +0.000 N 
ATOM      5  C   UNL     1     -10.483   4.983 130.769  0.00  0.00    +0.000 C 
ATOM      6  C   UNL     1     -11.431   6.168 130.937  0.00  0.00    +0.000 C 
ATOM      7  O   UNL     1     -12.217   6.309 131.866  0.00  0.00    +0.000 OA
ATOM      8  H   UNL     1      -9.071   4.821 129.117  0.00  0.00    +0.000 HD
ENDROOT
BRANCH   5   9
ATOM      9  C   UNL     1      -9.582   4.840 131.961  0.00  0.00    +0.000 A 
ATOM     10  C   UNL     1      -9.473   3.594 132.592  0.00  0.00    +0.000 A 
ATOM     11  C   UNL     1      -8.858   3.495 133.836  0.00  0.00    +0.000 A 
ATOM     12  C   UNL     1      -8.262   4.615 134.414  0.00  0.00    +0.000 A 
ATOM     13  C   UNL     1      -8.309   5.847 133.766  0.00  0.00    +0.000 A 
ATOM     14  C   UNL     1      -8.968   5.961 132.544  0.00  0.00    +0.000 A 
ENDBRANCH   5   9
BRANCH   1  16
ATOM     15  C   UNL     1     -13.134   8.086 128.760  0.00  0.00    +0.000 C 
ATOM     16  C   UNL     1     -11.960   8.270 129.710  0.00  0.00    +0.000 C 
ENDBRANCH   1  16
TORSDOF 2
ENDMDL
MODEL 6
REMARK VINA RESULT:      -5.9      9.663     11.266
REMARK  Name = Ethotoin
REMARK  3 active torsions:
REMARK  status: ('A' for Active; 'I' for Inactive)
REMARK    1  A    between atoms: C_1  and  C_2
REMARK    2  A    between atoms: C_2  and  N_3
REMARK    3  A    between atoms: C_7  and  C_10
REMARK                            x       y       z     vdW  Elec       q    Type
REMARK                         _______ _______ _______ _____ _____    ______ ____
ROOT
ATOM      1  N   UNL     1      -8.156  -0.759 123.813  0.00  0.00    +0.000 N 
ATOM      2  C   UNL     1      -7.418  -1.799 123.334  0.00  0.00    +0.000 C 
ATOM      3  O   UNL     1      -6.594  -1.779 122.430  0.00  0.00    +0.000 OA
ATOM      4  N   UNL     1      -7.741  -2.934 124.040  0.00  0.00    +0.000 N 
ATOM      5  C   UNL     1      -8.724  -2.674 125.048  0.00  0.00    +0.000 C 
ATOM      6  C   UNL     1      -8.950  -1.178 124.849  0.00  0.00    +0.000 C 
ATOM      7  O   UNL     1      -9.707  -0.489 125.520  0.00  0.00    +0.000 OA
ATOM      8  H   UNL     1      -7.319  -3.831 123.848  0.00  0.00    +0.000 HD
ENDROOT
BRANCH   5   9
ATOM      9  C   UNL     1      -8.254  -2.968 126.443  0.00  0.00    +0.000 A 
ATOM     10  C   UNL     1      -9.061  -3.737 127.291  0.00  0.00    +0.000 A 
ATOM     11  C   UNL     1      -8.777  -3.805 128.651  0.00  0.00    +0.000 A 
ATOM     12  C   UNL     1      -7.634  -3.191 129.159  0.00  0.00    +0.000 A 
ATOM     13  C   UNL     1      -6.788  -2.475 128.314  0.00  0.00    +0.000 A 
ATOM     14  C   UNL     1      -7.097  -2.362 126.961  0.00  0.00    +0.000 A 
ENDBRANCH   5   9
BRANCH   1  16
ATOM     15  C   UNL     1      -6.998   1.390 124.032  0.00  0.00    +0.000 C 
ATOM     16  C   UNL     1      -8.102   0.609 123.334  0.00  0.00    +0.000 C 
ENDBRANCH   1  16
TORSDOF 2
ENDMDL
MODEL 7
REMARK VINA RESULT:      -5.8      9.748     11.630
REMARK  Name = Ethotoin
REMARK  3 active torsions:
REMARK  status: ('A' for Active; 'I' for Inactive)
REMARK    1  A    between atoms: C_1  and  C_2
REMARK    2  A    between atoms: C_2  and  N_3
REMARK    3  A    between atoms: C_7  and  C_10
REMARK                            x       y       z     vdW  Elec       q    Type
REMARK                         _______ _______ _______ _____ _____    ______ ____
ROOT
ATOM      1  N   UNL     1      -9.472   0.481 124.095  0.00  0.00    +0.000 N 
ATOM      2  C   UNL     1      -9.791  -0.015 122.867  0.00  0.00    +0.000 C 
ATOM      3  O   UNL     1     -10.338   0.570 121.942  0.00  0.00    +0.000 OA
ATOM      4  N   UNL     1      -9.397  -1.331 122.805  0.00  0.00    +0.000 N 
ATOM      5  C   UNL     1      -8.775  -1.760 124.020  0.00  0.00    +0.000 C 
ATOM      6  C   UNL     1      -8.845  -0.478 124.846  0.00  0.00    +0.000 C 
ATOM      7  O   UNL     1      -8.399  -0.350 125.979  0.00  0.00    +0.000 OA
ATOM      8  H   UNL     1      -9.544  -1.903 121.985  0.00  0.00    +0.000 HD
ENDROOT
BRANCH   5   9
ATOM      9  C   UNL     1      -7.354  -2.214 123.846  0.00  0.00    +0.000 A 
ATOM     10  C   UNL     1      -6.595  -1.699 122.788  0.00  0.00    +0.000 A 
ATOM     11  C   UNL     1      -5.380  -2.286 122.452  0.00  0.00    +0.000 A 
ATOM     12  C   UNL     1      -4.866  -3.326 123.226  0.00  0.00    +0.000 A 
ATOM     13  C   UNL     1      -5.584  -3.805 124.320  0.00  0.00    +0.000 A 
ATOM     14  C   UNL     1      -6.824  -3.253 124.630  0.00  0.00    +0.000 A 
ENDBRANCH   5   9
BRANCH   1  16
ATOM     15  C   UNL     1      -8.623   2.780 124.083  0.00  0.00    +0.000 C 
ATOM     16  C   UNL     1      -9.720   1.836 124.551  0.00  0.00    +0.000 C 
ENDBRANCH   1  16
TORSDOF 2
ENDMDL
MODEL 8
REMARK VINA RESULT:      -5.8      1.832      2.367
REMARK  Name = Ethotoin
REMARK  3 active torsions:
REMARK  status: ('A' for Active; 'I' for Inactive)
REMARK    1  A    between atoms: C_1  and  C_2
REMARK    2  A    between atoms: C_2  and  N_3
REMARK    3  A    between atoms: C_7  and  C_10
REMARK                            x       y       z     vdW  Elec       q    Type
REMARK                         _______ _______ _______ _____ _____    ______ ____
ROOT
ATOM      1  N   UNL     1      -9.020   4.674 130.083  0.00  0.00    +0.000 N 
ATOM      2  C   UNL     1      -8.250   5.748 130.414  0.00  0.00    +0.000 C 
ATOM      3  O   UNL     1      -7.037   5.863 130.303  0.00  0.00    +0.000 OA
ATOM      4  N   UNL     1      -9.062   6.738 130.917  0.00  0.00    +0.000 N 
ATOM      5  C   UNL     1     -10.439   6.346 130.926  0.00  0.00    +0.000 C 
ATOM      6  C   UNL     1     -10.341   4.943 130.334  0.00  0.00    +0.000 C 
ATOM      7  O   UNL     1     -11.295   4.206 130.118  0.00  0.00    +0.000 OA
ATOM      8  H   UNL     1      -8.702   7.625 131.236  0.00  0.00    +0.000 HD
ENDROOT
BRANCH   5   9
ATOM      9  C   UNL     1     -11.324   7.224 130.090  0.00  0.00    +0.000 A 
ATOM     10  C   UNL     1     -10.982   7.470 128.755  0.00  0.00    +0.000 A 
ATOM     11  C   UNL     1     -11.631   8.473 128.042  0.00  0.00    +0.000 A 
ATOM     12  C   UNL     1     -12.691   9.170 128.621  0.00  0.00    +0.000 A 
ATOM     13  C   UNL     1     -13.082   8.890 129.929  0.00  0.00    +0.000 A 
ATOM     14  C   UNL     1     -12.401   7.922 130.663  0.00  0.00    +0.000 A 
ENDBRANCH   5   9
BRANCH   1  16
ATOM     15  C   UNL     1      -8.316   2.385 130.600  0.00  0.00    +0.000 C 
ATOM     16  C   UNL     1      -8.538   3.429 129.516  0.00  0.00    +0.000 C 
ENDBRANCH   1  16
TORSDOF 2
ENDMDL
MODEL 9
REMARK VINA RESULT:      -5.8      8.964     10.040
REMARK  Name = Ethotoin
REMARK  3 active torsions:
REMARK  status: ('A' for Active; 'I' for Inactive)
REMARK    1  A    between atoms: C_1  and  C_2
REMARK    2  A    between atoms: C_2  and  N_3
REMARK    3  A    between atoms: C_7  and  C_10
REMARK                            x       y       z     vdW  Elec       q    Type
REMARK                         _______ _______ _______ _____ _____    ______ ____
ROOT
ATOM      1  N   UNL     1      -8.579   0.400 123.992  0.00  0.00    +0.000 N 
ATOM      2  C   UNL     1      -7.638   1.082 124.704  0.00  0.00    +0.000 C 
ATOM      3  O   UNL     1      -6.905   0.650 125.582  0.00  0.00    +0.000 OA
ATOM      4  N   UNL     1      -7.625   2.390 124.280  0.00  0.00    +0.000 N 
ATOM      5  C   UNL     1      -8.575   2.624 123.235  0.00  0.00    +0.000 C 
ATOM      6  C   UNL     1      -9.176   1.229 123.079  0.00  0.00    +0.000 C 
ATOM      7  O   UNL     1     -10.035   0.925 122.261  0.00  0.00    +0.000 OA
ATOM      8  H   UNL     1      -7.008   3.083 124.679  0.00  0.00    +0.000 HD
ENDROOT
BRANCH   5   9
ATOM      9  C   UNL     1      -7.958   3.093 121.949  0.00  0.00    +0.000 A 
ATOM     10  C   UNL     1      -6.566   3.219 121.862  0.00  0.00    +0.000 A 
ATOM     11  C   UNL     1      -5.993   3.890 120.787  0.00  0.00    +0.000 A 
ATOM     12  C   UNL     1      -6.793   4.353 119.743  0.00  0.00    +0.000 A 
ATOM     13  C   UNL     1      -8.175   4.178 119.789  0.00  0.00    +0.000 A 
ATOM     14  C   UNL     1      -8.757   3.552 120.888  0.00  0.00    +0.000 A 
ENDBRANCH   5   9
BRANCH   1  16
ATOM     15  C   UNL     1      -8.062  -1.858 123.192  0.00  0.00    +0.000 C 
ATOM     16  C   UNL     1      -8.895  -1.008 124.139  0.00  0.00    +0.000 C 
ENDBRANCH   1  16
TORSDOF 2
ENDMDL
