MODEL 1
REMARK VINA RESULT:      -6.5      0.000      0.000
REMARK  Name = Ethoheptazine
REMARK  6 active torsions:
REMARK  status: ('A' for Active; 'I' for Inactive)
REMARK    1  A    between atoms: C_1  and  C_2
REMARK    2  A    between atoms: C_2  and  O_3
REMARK    3  A    between atoms: O_3  and  C_4
REMARK    4  A    between atoms: C_4  and  C_6
REMARK    5  A    between atoms: C_6  and  C_14
REMARK    6  A    between atoms: N_10  and  C_11
REMARK                            x       y       z     vdW  Elec       q    Type
REMARK                         _______ _______ _______ _____ _____    ______ ____
ROOT
ATOM      1  C   UNL     1      -8.255  -0.819 125.200  0.00  0.00    +0.000 C 
ATOM      2  C   UNL     1      -8.795  -1.565 123.949  0.00  0.00    +0.000 C 
ATOM      3  C   UNL     1      -7.955  -2.801 123.548  0.00  0.00    +0.000 C 
ATOM      4  C   UNL     1      -6.666  -2.431 122.837  0.00  0.00    +0.000 C 
ATOM      5  N   UNL     1      -5.510  -2.220 123.721  0.00  0.00    +0.000 NA
ATOM      6  C   UNL     1      -4.905  -3.508 124.098  0.00  0.00    +0.000 C 
ATOM      7  C   UNL     1      -5.757  -1.450 124.951  0.00  0.00    +0.000 C 
ATOM      8  C   UNL     1      -6.807  -0.331 124.872  0.00  0.00    +0.000 C 
ENDROOT
BRANCH   1   9
ATOM      9  C   UNL     1      -8.335  -1.764 126.429  0.00  0.00    +0.000 A 
ATOM     10  C   UNL     1      -9.001  -3.009 126.393  0.00  0.00    +0.000 A 
ATOM     11  C   UNL     1      -9.041  -3.856 127.487  0.00  0.00    +0.000 A 
ATOM     12  C   UNL     1      -8.444  -3.457 128.670  0.00  0.00    +0.000 A 
ATOM     13  C   UNL     1      -7.793  -2.228 128.745  0.00  0.00    +0.000 A 
ATOM     14  C   UNL     1      -7.710  -1.404 127.629  0.00  0.00    +0.000 A 
ENDBRANCH   1   9
BRANCH   1  15
ATOM     15  C   UNL     1      -9.126   0.449 125.486  0.00  0.00    +0.000 C 
ATOM     16  O   UNL     1     -10.334   0.431 125.730  0.00  0.00    +0.000 OA
BRANCH  15  17
ATOM     17  O   UNL     1      -8.394   1.606 125.406  0.00  0.00    +0.000 OA
BRANCH  17  19
ATOM     18  C   UNL     1      -8.877   2.290 123.136  0.00  0.00    +0.000 C 
ATOM     19  C   UNL     1      -8.936   2.671 124.611  0.00  0.00    +0.000 C 
ENDBRANCH  17  19
ENDBRANCH  15  17
ENDBRANCH   1  15
TORSDOF 4
ENDMDL
MODEL 2
REMARK VINA RESULT:      -6.2      3.515      6.458
REMARK  Name = Ethoheptazine
REMARK  6 active torsions:
REMARK  status: ('A' for Active; 'I' for Inactive)
REMARK    1  A    between atoms: C_1  and  C_2
REMARK    2  A    between atoms: C_2  and  O_3
REMARK    3  A    between atoms: O_3  and  C_4
REMARK    4  A    between atoms: C_4  and  C_6
REMARK    5  A    between atoms: C_6  and  C_14
REMARK    6  A    between atoms: N_10  and  C_11
REMARK                            x       y       z     vdW  Elec       q    Type
REMARK                         _______ _______ _______ _____ _____    ______ ____
ROOT
ATOM      1  C   UNL     1      -7.316   2.714 124.075  0.00  0.00    +0.000 C 
ATOM      2  C   UNL     1      -6.580   1.351 124.206  0.00  0.00    +0.000 C 
ATOM      3  C   UNL     1      -7.237   0.207 123.398  0.00  0.00    +0.000 C 
ATOM      4  C   UNL     1      -8.485  -0.342 124.063  0.00  0.00    +0.000 C 
ATOM      5  N   UNL     1      -9.736   0.331 123.685  0.00  0.00    +0.000 NA
ATOM      6  C   UNL     1     -10.229  -0.178 122.395  0.00  0.00    +0.000 C 
ATOM      7  C   UNL     1      -9.694   1.801 123.615  0.00  0.00    +0.000 C 
ATOM      8  C   UNL     1      -8.771   2.519 124.611  0.00  0.00    +0.000 C 
ENDROOT
BRANCH   1   9
ATOM      9  C   UNL     1      -7.250   3.188 122.599  0.00  0.00    +0.000 A 
ATOM     10  C   UNL     1      -8.403   3.398 121.811  0.00  0.00    +0.000 A 
ATOM     11  C   UNL     1      -8.333   3.849 120.504  0.00  0.00    +0.000 A 
ATOM     12  C   UNL     1      -7.092   4.067 119.934  0.00  0.00    +0.000 A 
ATOM     13  C   UNL     1      -5.933   3.855 120.677  0.00  0.00    +0.000 A 
ATOM     14  C   UNL     1      -6.010   3.452 122.005  0.00  0.00    +0.000 A 
ENDBRANCH   1   9
BRANCH   1  15
ATOM     15  C   UNL     1      -6.622   3.788 124.978  0.00  0.00    +0.000 C 
ATOM     16  O   UNL     1      -7.070   4.914 125.198  0.00  0.00    +0.000 OA
BRANCH  15  17
ATOM     17  O   UNL     1      -5.428   3.344 125.482  0.00  0.00    +0.000 OA
BRANCH  17  19
ATOM     18  C   UNL     1      -3.247   3.674 126.476  0.00  0.00    +0.000 C 
ATOM     19  C   UNL     1      -4.587   4.312 126.127  0.00  0.00    +0.000 C 
ENDBRANCH  17  19
ENDBRANCH  15  17
ENDBRANCH   1  15
TORSDOF 4
ENDMDL
MODEL 3
REMARK VINA RESULT:      -6.1      2.445      4.532
REMARK  Name = Ethoheptazine
REMARK  6 active torsions:
REMARK  status: ('A' for Active; 'I' for Inactive)
REMARK    1  A    between atoms: C_1  and  C_2
REMARK    2  A    between atoms: C_2  and  O_3
REMARK    3  A    between atoms: O_3  and  C_4
REMARK    4  A    between atoms: C_4  and  C_6
REMARK    5  A    between atoms: C_6  and  C_14
REMARK    6  A    between atoms: N_10  and  C_11
REMARK                            x       y       z     vdW  Elec       q    Type
REMARK                         _______ _______ _______ _____ _____    ______ ____
ROOT
ATOM      1  C   UNL     1      -7.041  -1.393 125.279  0.00  0.00    +0.000 C 
ATOM      2  C   UNL     1      -5.699  -0.682 125.609  0.00  0.00    +0.000 C 
ATOM      3  C   UNL     1      -5.805   0.345 126.761  0.00  0.00    +0.000 C 
ATOM      4  C   UNL     1      -6.451   1.649 126.329  0.00  0.00    +0.000 C 
ATOM      5  N   UNL     1      -7.914   1.691 126.467  0.00  0.00    +0.000 NA
ATOM      6  C   UNL     1      -8.294   1.990 127.857  0.00  0.00    +0.000 C 
ATOM      7  C   UNL     1      -8.648   0.489 126.037  0.00  0.00    +0.000 C 
ATOM      8  C   UNL     1      -8.066  -0.294 124.851  0.00  0.00    +0.000 C 
ENDROOT
BRANCH   1   9
ATOM      9  C   UNL     1      -7.492  -2.226 126.508  0.00  0.00    +0.000 A 
ATOM     10  C   UNL     1      -6.764  -2.257 127.718  0.00  0.00    +0.000 A 
ATOM     11  C   UNL     1      -7.191  -2.981 128.818  0.00  0.00    +0.000 A 
ATOM     12  C   UNL     1      -8.349  -3.732 128.722  0.00  0.00    +0.000 A 
ATOM     13  C   UNL     1      -9.082  -3.737 127.538  0.00  0.00    +0.000 A 
ATOM     14  C   UNL     1      -8.678  -2.967 126.453  0.00  0.00    +0.000 A 
ENDBRANCH   1   9
BRANCH   1  15
ATOM     15  C   UNL     1      -6.851  -2.359 124.062  0.00  0.00    +0.000 C 
ATOM     16  O   UNL     1      -7.478  -2.286 123.003  0.00  0.00    +0.000 OA
BRANCH  15  17
ATOM     17  O   UNL     1      -5.918  -3.330 124.315  0.00  0.00    +0.000 OA
BRANCH  17  19
ATOM     18  C   UNL     1      -4.196  -4.808 123.476  0.00  0.00    +0.000 C 
ATOM     19  C   UNL     1      -4.792  -3.406 123.427  0.00  0.00    +0.000 C 
ENDBRANCH  17  19
ENDBRANCH  15  17
ENDBRANCH   1  15
TORSDOF 4
ENDMDL
MODEL 4
REMARK VINA RESULT:      -5.7      9.483     11.180
REMARK  Name = Ethoheptazine
REMARK  6 active torsions:
REMARK  status: ('A' for Active; 'I' for Inactive)
REMARK    1  A    between atoms: C_1  and  C_2
REMARK    2  A    between atoms: C_2  and  O_3
REMARK    3  A    between atoms: O_3  and  C_4
REMARK    4  A    between atoms: C_4  and  C_6
REMARK    5  A    between atoms: C_6  and  C_14
REMARK    6  A    between atoms: N_10  and  C_11
REMARK                            x       y       z     vdW  Elec       q    Type
REMARK                         _______ _______ _______ _____ _____    ______ ____
ROOT
ATOM      1  C   UNL     1      -3.224   5.911 130.309  0.00  0.00    +0.000 C 
ATOM      2  C   UNL     1      -4.604   6.594 130.096  0.00  0.00    +0.000 C 
ATOM      3  C   UNL     1      -5.479   6.645 131.372  0.00  0.00    +0.000 C 
ATOM      4  C   UNL     1      -6.128   5.311 131.694  0.00  0.00    +0.000 C 
ATOM      5  N   UNL     1      -5.330   4.426 132.556  0.00  0.00    +0.000 NA
ATOM      6  C   UNL     1      -5.475   4.811 133.969  0.00  0.00    +0.000 C 
ATOM      7  C   UNL     1      -3.893   4.333 132.249  0.00  0.00    +0.000 C 
ATOM      8  C   UNL     1      -3.489   4.442 130.771  0.00  0.00    +0.000 C 
ENDROOT
BRANCH   1   9
ATOM      9  C   UNL     1      -2.395   6.746 131.321  0.00  0.00    +0.000 A 
ATOM     10  C   UNL     1      -1.121   6.344 131.780  0.00  0.00    +0.000 A 
ATOM     11  C   UNL     1      -0.377   7.112 132.660  0.00  0.00    +0.000 A 
ATOM     12  C   UNL     1      -0.912   8.295 133.138  0.00  0.00    +0.000 A 
ATOM     13  C   UNL     1      -2.172   8.713 132.719  0.00  0.00    +0.000 A 
ATOM     14  C   UNL     1      -2.893   7.966 131.795  0.00  0.00    +0.000 A 
ENDBRANCH   1   9
BRANCH   1  15
ATOM     15  C   UNL     1      -2.443   5.846 128.955  0.00  0.00    +0.000 C 
ATOM     16  O   UNL     1      -2.043   6.828 128.327  0.00  0.00    +0.000 OA
BRANCH  15  17
ATOM     17  O   UNL     1      -2.274   4.557 128.519  0.00  0.00    +0.000 OA
BRANCH  17  19
ATOM     18  C   UNL     1      -1.793   3.081 126.664  0.00  0.00    +0.000 C 
ATOM     19  C   UNL     1      -2.599   4.280 127.148  0.00  0.00    +0.000 C 
ENDBRANCH  17  19
ENDBRANCH  15  17
ENDBRANCH   1  15
TORSDOF 4
ENDMDL
MODEL 5
REMARK VINA RESULT:      -5.6      2.178      4.876
REMARK  Name = Ethoheptazine
REMARK  6 active torsions:
REMARK  status: ('A' for Active; 'I' for Inactive)
REMARK    1  A    between atoms: C_1  and  C_2
REMARK    2  A    between atoms: C_2  and  O_3
REMARK    3  A    between atoms: O_3  and  C_4
REMARK    4  A    between atoms: C_4  and  C_6
REMARK    5  A    between atoms: C_6  and  C_14
REMARK    6  A    between atoms: N_10  and  C_11
REMARK                            x       y       z     vdW  Elec       q    Type
REMARK                         _______ _______ _______ _____ _____    ______ ____
ROOT
ATOM      1  C   UNL     1      -7.958  -1.206 126.079  0.00  0.00    +0.000 C 
ATOM      2  C   UNL     1      -9.136  -0.420 125.439  0.00  0.00    +0.000 C 
ATOM      3  C   UNL     1      -8.694   0.842 124.660  0.00  0.00    +0.000 C 
ATOM      4  C   UNL     1      -8.343   2.004 125.571  0.00  0.00    +0.000 C 
ATOM      5  N   UNL     1      -6.936   2.055 125.996  0.00  0.00    +0.000 NA
ATOM      6  C   UNL     1      -6.101   2.659 124.945  0.00  0.00    +0.000 C 
ATOM      7  C   UNL     1      -6.324   0.777 126.395  0.00  0.00    +0.000 C 
ATOM      8  C   UNL     1      -7.239  -0.248 127.082  0.00  0.00    +0.000 C 
ENDROOT
BRANCH   1   9
ATOM      9  C   UNL     1      -7.034  -1.743 124.954  0.00  0.00    +0.000 A 
ATOM     10  C   UNL     1      -7.255  -1.465 123.586  0.00  0.00    +0.000 A 
ATOM     11  C   UNL     1      -6.407  -1.925 122.593  0.00  0.00    +0.000 A 
ATOM     12  C   UNL     1      -5.328  -2.717 122.943  0.00  0.00    +0.000 A 
ATOM     13  C   UNL     1      -5.090  -3.024 124.281  0.00  0.00    +0.000 A 
ATOM     14  C   UNL     1      -5.913  -2.516 125.279  0.00  0.00    +0.000 A 
ENDBRANCH   1   9
BRANCH   1  15
ATOM     15  C   UNL     1      -8.506  -2.421 126.899  0.00  0.00    +0.000 C 
ATOM     16  O   UNL     1      -9.179  -3.339 126.427  0.00  0.00    +0.000 OA
BRANCH  15  17
ATOM     17  O   UNL     1      -8.178  -2.337 128.227  0.00  0.00    +0.000 OA
BRANCH  17  19
ATOM     18  C   UNL     1      -6.750  -3.597 129.719  0.00  0.00    +0.000 C 
ATOM     19  C   UNL     1      -8.069  -3.570 128.955  0.00  0.00    +0.000 C 
ENDBRANCH  17  19
ENDBRANCH  15  17
ENDBRANCH   1  15
TORSDOF 4
ENDMDL
MODEL 6
REMARK VINA RESULT:      -5.6      2.365      4.800
REMARK  Name = Ethoheptazine
REMARK  6 active torsions:
REMARK  status: ('A' for Active; 'I' for Inactive)
REMARK    1  A    between atoms: C_1  and  C_2
REMARK    2  A    between atoms: C_2  and  O_3
REMARK    3  A    between atoms: O_3  and  C_4
REMARK    4  A    between atoms: C_4  and  C_6
REMARK    5  A    between atoms: C_6  and  C_14
REMARK    6  A    between atoms: N_10  and  C_11
REMARK                            x       y       z     vdW  Elec       q    Type
REMARK                         _______ _______ _______ _____ _____    ______ ____
ROOT
ATOM      1  C   UNL     1      -7.202  -0.618 126.081  0.00  0.00    +0.000 C 
ATOM      2  C   UNL     1      -8.225   0.180 126.936  0.00  0.00    +0.000 C 
ATOM      3  C   UNL     1      -9.130   1.123 126.108  0.00  0.00    +0.000 C 
ATOM      4  C   UNL     1      -8.418   2.392 125.676  0.00  0.00    +0.000 C 
ATOM      5  N   UNL     1      -7.722   2.303 124.383  0.00  0.00    +0.000 NA
ATOM      6  C   UNL     1      -8.669   2.483 123.272  0.00  0.00    +0.000 C 
ATOM      7  C   UNL     1      -6.951   1.073 124.137  0.00  0.00    +0.000 C 
ATOM      8  C   UNL     1      -6.283   0.415 125.354  0.00  0.00    +0.000 C 
ENDROOT
BRANCH   1   9
ATOM      9  C   UNL     1      -7.971  -1.560 125.117  0.00  0.00    +0.000 A 
ATOM     10  C   UNL     1      -7.806  -1.519 123.715  0.00  0.00    +0.000 A 
ATOM     11  C   UNL     1      -8.476  -2.384 122.867  0.00  0.00    +0.000 A 
ATOM     12  C   UNL     1      -9.367  -3.296 123.403  0.00  0.00    +0.000 A 
ATOM     13  C   UNL     1      -9.566  -3.354 124.780  0.00  0.00    +0.000 A 
ATOM     14  C   UNL     1      -8.852  -2.519 125.632  0.00  0.00    +0.000 A 
ENDBRANCH   1   9
BRANCH   1  15
ATOM     15  C   UNL     1      -6.290  -1.488 127.009  0.00  0.00    +0.000 C 
ATOM     16  O   UNL     1      -5.312  -2.133 126.627  0.00  0.00    +0.000 OA
BRANCH  15  17
ATOM     17  O   UNL     1      -6.720  -1.479 128.310  0.00  0.00    +0.000 OA
BRANCH  17  19
ATOM     18  C   UNL     1      -8.222  -3.111 129.278  0.00  0.00    +0.000 C 
ATOM     19  C   UNL     1      -6.771  -2.740 128.994  0.00  0.00    +0.000 C 
ENDBRANCH  17  19
ENDBRANCH  15  17
ENDBRANCH   1  15
TORSDOF 4
ENDMDL
MODEL 7
REMARK VINA RESULT:      -5.6      2.647      4.157
REMARK  Name = Ethoheptazine
REMARK  6 active torsions:
REMARK  status: ('A' for Active; 'I' for Inactive)
REMARK    1  A    between atoms: C_1  and  C_2
REMARK    2  A    between atoms: C_2  and  O_3
REMARK    3  A    between atoms: O_3  and  C_4
REMARK    4  A    between atoms: C_4  and  C_6
REMARK    5  A    between atoms: C_6  and  C_14
REMARK    6  A    between atoms: N_10  and  C_11
REMARK                            x       y       z     vdW  Elec       q    Type
REMARK                         _______ _______ _______ _____ _____    ______ ____
ROOT
ATOM      1  C   UNL     1      -7.035  -1.716 125.975  0.00  0.00    +0.000 C 
ATOM      2  C   UNL     1      -5.785  -1.010 125.377  0.00  0.00    +0.000 C 
ATOM      3  C   UNL     1      -5.283   0.187 126.219  0.00  0.00    +0.000 C 
ATOM      4  C   UNL     1      -6.136   1.430 126.042  0.00  0.00    +0.000 C 
ATOM      5  N   UNL     1      -7.265   1.544 126.977  0.00  0.00    +0.000 NA
ATOM      6  C   UNL     1      -6.810   2.069 128.275  0.00  0.00    +0.000 C 
ATOM      7  C   UNL     1      -8.040   0.317 127.222  0.00  0.00    +0.000 C 
ATOM      8  C   UNL     1      -8.185  -0.661 126.047  0.00  0.00    +0.000 C 
ENDROOT
BRANCH   1   9
ATOM      9  C   UNL     1      -6.662  -2.331 127.350  0.00  0.00    +0.000 A 
ATOM     10  C   UNL     1      -5.337  -2.361 127.839  0.00  0.00    +0.000 A 
ATOM     11  C   UNL     1      -5.020  -2.887 129.080  0.00  0.00    +0.000 A 
ATOM     12  C   UNL     1      -6.026  -3.437 129.854  0.00  0.00    +0.000 A 
ATOM     13  C   UNL     1      -7.341  -3.440 129.395  0.00  0.00    +0.000 A 
ATOM     14  C   UNL     1      -7.662  -2.863 128.172  0.00  0.00    +0.000 A 
ENDBRANCH   1   9
BRANCH   1  15
ATOM     15  C   UNL     1      -7.508  -2.865 125.024  0.00  0.00    +0.000 C 
ATOM     16  O   UNL     1      -6.759  -3.672 124.471  0.00  0.00    +0.000 OA
BRANCH  15  17
ATOM     17  O   UNL     1      -8.867  -2.859 124.845  0.00  0.00    +0.000 OA
BRANCH  17  19
ATOM     18  C   UNL     1      -9.137  -1.822 122.676  0.00  0.00    +0.000 C 
ATOM     19  C   UNL     1      -9.354  -3.077 123.512  0.00  0.00    +0.000 C 
ENDBRANCH  17  19
ENDBRANCH  15  17
ENDBRANCH   1  15
TORSDOF 4
ENDMDL
MODEL 8
REMARK VINA RESULT:      -5.5      2.610      4.249
REMARK  Name = Ethoheptazine
REMARK  6 active torsions:
REMARK  status: ('A' for Active; 'I' for Inactive)
REMARK    1  A    between atoms: C_1  and  C_2
REMARK    2  A    between atoms: C_2  and  O_3
REMARK    3  A    between atoms: O_3  and  C_4
REMARK    4  A    between atoms: C_4  and  C_6
REMARK    5  A    between atoms: C_6  and  C_14
REMARK    6  A    between atoms: N_10  and  C_11
REMARK                            x       y       z     vdW  Elec       q    Type
REMARK                         _______ _______ _______ _____ _____    ______ ____
ROOT
ATOM      1  C   UNL     1      -6.991   0.170 125.671  0.00  0.00    +0.000 C 
ATOM      2  C   UNL     1      -8.233   0.635 126.481  0.00  0.00    +0.000 C 
ATOM      3  C   UNL     1      -9.554   0.592 125.677  0.00  0.00    +0.000 C 
ATOM      4  C   UNL     1      -9.688   1.749 124.704  0.00  0.00    +0.000 C 
ATOM      5  N   UNL     1      -9.135   1.499 123.365  0.00  0.00    +0.000 NA
ATOM      6  C   UNL     1     -10.087   0.731 122.547  0.00  0.00    +0.000 C 
ATOM      7  C   UNL     1      -7.829   0.821 123.311  0.00  0.00    +0.000 C 
ATOM      8  C   UNL     1      -6.839   1.127 124.446  0.00  0.00    +0.000 C 
ENDROOT
BRANCH   1   9
ATOM      9  C   UNL     1      -7.166  -1.323 125.284  0.00  0.00    +0.000 A 
ATOM     10  C   UNL     1      -8.287  -2.087 125.678  0.00  0.00    +0.000 A 
ATOM     11  C   UNL     1      -8.447  -3.410 125.302  0.00  0.00    +0.000 A 
ATOM     12  C   UNL     1      -7.460  -4.019 124.548  0.00  0.00    +0.000 A 
ATOM     13  C   UNL     1      -6.334  -3.300 124.156  0.00  0.00    +0.000 A 
ATOM     14  C   UNL     1      -6.202  -1.957 124.491  0.00  0.00    +0.000 A 
ENDBRANCH   1   9
BRANCH   1  15
ATOM     15  C   UNL     1      -5.698   0.313 126.542  0.00  0.00    +0.000 C 
ATOM     16  O   UNL     1      -5.430  -0.388 127.520  0.00  0.00    +0.000 OA
BRANCH  15  17
ATOM     17  O   UNL     1      -4.896   1.337 126.111  0.00  0.00    +0.000 OA
BRANCH  17  19
ATOM     18  C   UNL     1      -3.126   2.906 126.619  0.00  0.00    +0.000 C 
ATOM     19  C   UNL     1      -4.418   2.258 127.103  0.00  0.00    +0.000 C 
ENDBRANCH  17  19
ENDBRANCH  15  17
ENDBRANCH   1  15
TORSDOF 4
ENDMDL
MODEL 9
REMARK VINA RESULT:      -5.5     10.867     12.625
REMARK  Name = Ethoheptazine
REMARK  6 active torsions:
REMARK  status: ('A' for Active; 'I' for Inactive)
REMARK    1  A    between atoms: C_1  and  C_2
REMARK    2  A    between atoms: C_2  and  O_3
REMARK    3  A    between atoms: O_3  and  C_4
REMARK    4  A    between atoms: C_4  and  C_6
REMARK    5  A    between atoms: C_6  and  C_14
REMARK    6  A    between atoms: N_10  and  C_11
REMARK                            x       y       z     vdW  Elec       q    Type
REMARK                         _______ _______ _______ _____ _____    ______ ____
ROOT
ATOM      1  C   UNL     1      -2.051   6.793 132.769  0.00  0.00    +0.000 C 
ATOM      2  C   UNL     1      -1.377   5.399 132.901  0.00  0.00    +0.000 C 
ATOM      3  C   UNL     1      -2.332   4.216 132.614  0.00  0.00    +0.000 C 
ATOM      4  C   UNL     1      -3.276   3.928 133.767  0.00  0.00    +0.000 C 
ATOM      5  N   UNL     1      -4.549   4.663 133.723  0.00  0.00    +0.000 NA
ATOM      6  C   UNL     1      -5.497   4.002 132.813  0.00  0.00    +0.000 C 
ATOM      7  C   UNL     1      -4.471   6.086 133.355  0.00  0.00    +0.000 C 
ATOM      8  C   UNL     1      -3.219   6.855 133.805  0.00  0.00    +0.000 C 
ENDROOT
BRANCH   1   9
ATOM      9  C   UNL     1      -2.504   7.002 131.300  0.00  0.00    +0.000 A 
ATOM     10  C   UNL     1      -3.538   7.895 130.939  0.00  0.00    +0.000 A 
ATOM     11  C   UNL     1      -3.915   8.094 129.622  0.00  0.00    +0.000 A 
ATOM     12  C   UNL     1      -3.285   7.371 128.625  0.00  0.00    +0.000 A 
ATOM     13  C   UNL     1      -2.273   6.470 128.947  0.00  0.00    +0.000 A 
ATOM     14  C   UNL     1      -1.862   6.311 130.265  0.00  0.00    +0.000 A 
ENDBRANCH   1   9
BRANCH   1  15
ATOM     15  C   UNL     1      -1.031   7.920 133.143  0.00  0.00    +0.000 C 
ATOM     16  O   UNL     1       0.180   7.873 132.918  0.00  0.00    +0.000 OA
BRANCH  15  17
ATOM     17  O   UNL     1      -1.634   8.970 133.785  0.00  0.00    +0.000 OA
BRANCH  17  19
ATOM     18  C   UNL     1      -2.190  10.989 132.574  0.00  0.00    +0.000 C 
ATOM     19  C   UNL     1      -1.169  10.289 133.465  0.00  0.00    +0.000 C 
ENDBRANCH  17  19
ENDBRANCH  15  17
ENDBRANCH   1  15
TORSDOF 4
ENDMDL
