MODEL 1
REMARK VINA RESULT:      -2.1      0.000      0.000
REMARK  Name = Ethyl chloride
REMARK  1 active torsions:
REMARK  status: ('A' for Active; 'I' for Inactive)
REMARK    1  A    between atoms: C_1  and  C_2
REMARK                            x       y       z     vdW  Elec       q    Type
REMARK                         _______ _______ _______ _____ _____    ______ ____
ROOT
ATOM      1  C   UNL     1      -5.259   3.719 121.017  0.00  0.00    +0.000 C 
ATOM      2  C   UNL     1      -6.316   4.266 120.081  0.00  0.00    +0.000 C 
ATOM      3 CL   UNL     1      -5.642   5.560 119.068  0.00  0.00    +0.000 Cl
ENDROOT
TORSDOF 0
ENDMDL
MODEL 2
REMARK VINA RESULT:      -2.1      8.591      8.862
REMARK  Name = Ethyl chloride
REMARK  1 active torsions:
REMARK  status: ('A' for Active; 'I' for Inactive)
REMARK    1  A    between atoms: C_1  and  C_2
REMARK                            x       y       z     vdW  Elec       q    Type
REMARK                         _______ _______ _______ _____ _____    ______ ____
ROOT
ATOM      1  C   UNL     1      -4.214  -4.667 123.497  0.00  0.00    +0.000 C 
ATOM      2  C   UNL     1      -5.164  -3.636 124.067  0.00  0.00    +0.000 C 
ATOM      3 CL   UNL     1      -5.629  -2.460 122.819  0.00  0.00    +0.000 Cl
ENDROOT
TORSDOF 0
ENDMDL
MODEL 3
REMARK VINA RESULT:      -2.1      8.875      9.168
REMARK  Name = Ethyl chloride
REMARK  1 active torsions:
REMARK  status: ('A' for Active; 'I' for Inactive)
REMARK    1  A    between atoms: C_1  and  C_2
REMARK                            x       y       z     vdW  Elec       q    Type
REMARK                         _______ _______ _______ _____ _____    ______ ____
ROOT
ATOM      1  C   UNL     1      -5.627  -2.523 123.140  0.00  0.00    +0.000 C 
ATOM      2  C   UNL     1      -5.385  -3.678 124.089  0.00  0.00    +0.000 C 
ATOM      3 CL   UNL     1      -4.219  -4.823 123.393  0.00  0.00    +0.000 Cl
ENDROOT
TORSDOF 0
ENDMDL
MODEL 4
REMARK VINA RESULT:      -2.0     11.231     11.306
REMARK  Name = Ethyl chloride
REMARK  1 active torsions:
REMARK  status: ('A' for Active; 'I' for Inactive)
REMARK    1  A    between atoms: C_1  and  C_2
REMARK                            x       y       z     vdW  Elec       q    Type
REMARK                         _______ _______ _______ _____ _____    ______ ____
ROOT
ATOM      1  C   UNL     1     -12.927   9.284 129.024  0.00  0.00    +0.000 C 
ATOM      2  C   UNL     1     -12.236   8.313 128.091  0.00  0.00    +0.000 C 
ATOM      3 CL   UNL     1     -10.481   8.591 128.091  0.00  0.00    +0.000 Cl
ENDROOT
TORSDOF 0
ENDMDL
MODEL 5
REMARK VINA RESULT:      -2.0      1.870      2.410
REMARK  Name = Ethyl chloride
REMARK  1 active torsions:
REMARK  status: ('A' for Active; 'I' for Inactive)
REMARK    1  A    between atoms: C_1  and  C_2
REMARK                            x       y       z     vdW  Elec       q    Type
REMARK                         _______ _______ _______ _____ _____    ______ ____
ROOT
ATOM      1  C   UNL     1      -8.901   3.904 120.312  0.00  0.00    +0.000 C 
ATOM      2  C   UNL     1      -7.395   4.021 120.210  0.00  0.00    +0.000 C 
ATOM      3 CL   UNL     1      -6.933   4.802 118.682  0.00  0.00    +0.000 Cl
ENDROOT
TORSDOF 0
ENDMDL
MODEL 6
REMARK VINA RESULT:      -2.0     11.008     11.034
REMARK  Name = Ethyl chloride
REMARK  1 active torsions:
REMARK  status: ('A' for Active; 'I' for Inactive)
REMARK    1  A    between atoms: C_1  and  C_2
REMARK                            x       y       z     vdW  Elec       q    Type
REMARK                         _______ _______ _______ _____ _____    ______ ____
ROOT
ATOM      1  C   UNL     1     -10.821   8.390 127.884  0.00  0.00    +0.000 C 
ATOM      2  C   UNL     1     -12.165   8.670 128.523  0.00  0.00    +0.000 C 
ATOM      3 CL   UNL     1     -13.443   7.730 127.723  0.00  0.00    +0.000 Cl
ENDROOT
TORSDOF 0
ENDMDL
MODEL 7
REMARK VINA RESULT:      -2.0     12.118     12.207
REMARK  Name = Ethyl chloride
REMARK  1 active torsions:
REMARK  status: ('A' for Active; 'I' for Inactive)
REMARK    1  A    between atoms: C_1  and  C_2
REMARK                            x       y       z     vdW  Elec       q    Type
REMARK                         _______ _______ _______ _____ _____    ______ ____
ROOT
ATOM      1  C   UNL     1     -13.783   7.152 127.955  0.00  0.00    +0.000 C 
ATOM      2  C   UNL     1     -13.124   7.205 129.317  0.00  0.00    +0.000 C 
ATOM      3 CL   UNL     1     -12.681   8.876 129.729  0.00  0.00    +0.000 Cl
ENDROOT
TORSDOF 0
ENDMDL
MODEL 8
REMARK VINA RESULT:      -2.0      9.289      9.476
REMARK  Name = Ethyl chloride
REMARK  1 active torsions:
REMARK  status: ('A' for Active; 'I' for Inactive)
REMARK    1  A    between atoms: C_1  and  C_2
REMARK                            x       y       z     vdW  Elec       q    Type
REMARK                         _______ _______ _______ _____ _____    ______ ____
ROOT
ATOM      1  C   UNL     1      -7.069  -3.424 124.298  0.00  0.00    +0.000 C 
ATOM      2  C   UNL     1      -8.491  -3.720 124.727  0.00  0.00    +0.000 C 
ATOM      3 CL   UNL     1      -9.628  -3.356 123.412  0.00  0.00    +0.000 Cl
ENDROOT
TORSDOF 0
ENDMDL
MODEL 9
REMARK VINA RESULT:      -1.9      9.072      9.211
REMARK  Name = Ethyl chloride
REMARK  1 active torsions:
REMARK  status: ('A' for Active; 'I' for Inactive)
REMARK    1  A    between atoms: C_1  and  C_2
REMARK                            x       y       z     vdW  Elec       q    Type
REMARK                         _______ _______ _______ _____ _____    ______ ____
ROOT
ATOM      1  C   UNL     1      -4.498  -3.907 123.530  0.00  0.00    +0.000 C 
ATOM      2  C   UNL     1      -5.458  -3.079 124.358  0.00  0.00    +0.000 C 
ATOM      3 CL   UNL     1      -7.092  -3.773 124.295  0.00  0.00    +0.000 Cl
ENDROOT
TORSDOF 0
ENDMDL
