MODEL 1
REMARK VINA RESULT:      -5.8      0.000      0.000
REMARK  Name = Ethyl ferulate
REMARK  8 active torsions:
REMARK  status: ('A' for Active; 'I' for Inactive)
REMARK    1  A    between atoms: C_2  and  C_14
REMARK    2  A    between atoms: C_3  and  C_5
REMARK    3  A    between atoms: C_7  and  O_8
REMARK    4  A    between atoms: O_8  and  C_9
REMARK    5  A    between atoms: C_10  and  O_11
REMARK    6  A    between atoms: C_14  and  O_16
REMARK    7  A    between atoms: O_16  and  C_17
REMARK    8  A    between atoms: C_17  and  C_18
REMARK                            x       y       z     vdW  Elec       q    Type
REMARK                         _______ _______ _______ _____ _____    ______ ____
ROOT
ATOM      1  C   UNL     1      -6.881   3.351 122.061  0.00  0.00    +0.000 A 
ATOM      2  C   UNL     1      -7.695   3.573 120.936  0.00  0.00    +0.000 A 
ATOM      3  C   UNL     1      -7.225   4.285 119.825  0.00  0.00    +0.000 A 
ATOM      4  C   UNL     1      -5.922   4.788 119.851  0.00  0.00    +0.000 A 
ATOM      5  C   UNL     1      -5.111   4.613 120.967  0.00  0.00    +0.000 A 
ATOM      6  C   UNL     1      -5.595   3.905 122.076  0.00  0.00    +0.000 A 
ENDROOT
BRANCH   1   8
ATOM      7  C   UNL     1      -8.686   2.280 123.361  0.00  0.00    +0.000 C 
ATOM      8  C   UNL     1      -7.381   2.567 123.208  0.00  0.00    +0.000 C 
BRANCH   7   9
ATOM      9  C   UNL     1      -9.299   1.518 124.474  0.00  0.00    +0.000 C 
ATOM     10  O   UNL     1      -9.304   1.960 125.618  0.00  0.00    +0.000 OA
BRANCH   9  11
ATOM     11  O   UNL     1      -9.817   0.328 124.083  0.00  0.00    +0.000 OA
BRANCH  11  12
ATOM     12  C   UNL     1      -8.908  -0.782 124.204  0.00  0.00    +0.000 C 
ATOM     13  C   UNL     1      -8.823  -1.506 122.871  0.00  0.00    +0.000 C 
ENDBRANCH  11  12
ENDBRANCH   9  11
ENDBRANCH   7   9
ENDBRANCH   1   8
BRANCH   3  14
ATOM     14  O   UNL     1      -7.946   4.536 118.684  0.00  0.00    +0.000 OA
ATOM     15  C   UNL     1      -9.356   4.348 118.790  0.00  0.00    +0.000 C 
ENDBRANCH   3  14
BRANCH   4  16
ATOM     16  O   UNL     1      -5.400   5.466 118.783  0.00  0.00    +0.000 OA
ATOM     17  H   UNL     1      -5.287   6.390 119.078  0.00  0.00    +0.000 HD
ENDBRANCH   4  16
TORSDOF 6
ENDMDL
MODEL 2
REMARK VINA RESULT:      -5.7      8.699     10.679
REMARK  Name = Ethyl ferulate
REMARK  8 active torsions:
REMARK  status: ('A' for Active; 'I' for Inactive)
REMARK    1  A    between atoms: C_2  and  C_14
REMARK    2  A    between atoms: C_3  and  C_5
REMARK    3  A    between atoms: C_7  and  O_8
REMARK    4  A    between atoms: O_8  and  C_9
REMARK    5  A    between atoms: C_10  and  O_11
REMARK    6  A    between atoms: C_14  and  O_16
REMARK    7  A    between atoms: O_16  and  C_17
REMARK    8  A    between atoms: C_17  and  C_18
REMARK                            x       y       z     vdW  Elec       q    Type
REMARK                         _______ _______ _______ _____ _____    ______ ____
ROOT
ATOM      1  C   UNL     1     -11.326   6.918 131.120  0.00  0.00    +0.000 A 
ATOM      2  C   UNL     1     -10.684   7.247 129.913  0.00  0.00    +0.000 A 
ATOM      3  C   UNL     1     -11.230   8.185 129.028  0.00  0.00    +0.000 A 
ATOM      4  C   UNL     1     -12.442   8.795 129.359  0.00  0.00    +0.000 A 
ATOM      5  C   UNL     1     -13.114   8.460 130.530  0.00  0.00    +0.000 A 
ATOM      6  C   UNL     1     -12.562   7.513 131.403  0.00  0.00    +0.000 A 
ENDROOT
BRANCH   1   8
ATOM      7  C   UNL     1      -9.421   6.017 132.406  0.00  0.00    +0.000 C 
ATOM      8  C   UNL     1     -10.718   5.952 132.057  0.00  0.00    +0.000 C 
BRANCH   7   9
ATOM      9  C   UNL     1      -8.704   5.099 133.321  0.00  0.00    +0.000 C 
ATOM     10  O   UNL     1      -7.584   5.370 133.741  0.00  0.00    +0.000 OA
BRANCH   9  11
ATOM     11  O   UNL     1      -9.407   3.976 133.607  0.00  0.00    +0.000 OA
BRANCH  11  12
ATOM     12  C   UNL     1      -8.781   2.756 133.167  0.00  0.00    +0.000 C 
ATOM     13  C   UNL     1      -9.742   1.998 132.268  0.00  0.00    +0.000 C 
ENDBRANCH  11  12
ENDBRANCH   9  11
ENDBRANCH   7   9
ENDBRANCH   1   8
BRANCH   3  14
ATOM     14  O   UNL     1     -10.666   8.572 127.838  0.00  0.00    +0.000 OA
ATOM     15  C   UNL     1     -10.853   7.676 126.745  0.00  0.00    +0.000 C 
ENDBRANCH   3  14
BRANCH   4  16
ATOM     16  O   UNL     1     -13.008   9.741 128.548  0.00  0.00    +0.000 OA
ATOM     17  H   UNL     1     -13.941   9.479 128.436  0.00  0.00    +0.000 HD
ENDBRANCH   4  16
TORSDOF 6
ENDMDL
MODEL 3
REMARK VINA RESULT:      -5.7      9.116     11.138
REMARK  Name = Ethyl ferulate
REMARK  8 active torsions:
REMARK  status: ('A' for Active; 'I' for Inactive)
REMARK    1  A    between atoms: C_2  and  C_14
REMARK    2  A    between atoms: C_3  and  C_5
REMARK    3  A    between atoms: C_7  and  O_8
REMARK    4  A    between atoms: O_8  and  C_9
REMARK    5  A    between atoms: C_10  and  O_11
REMARK    6  A    between atoms: C_14  and  O_16
REMARK    7  A    between atoms: O_16  and  C_17
REMARK    8  A    between atoms: C_17  and  C_18
REMARK                            x       y       z     vdW  Elec       q    Type
REMARK                         _______ _______ _______ _____ _____    ______ ____
ROOT
ATOM      1  C   UNL     1      -7.998   6.505 131.617  0.00  0.00    +0.000 A 
ATOM      2  C   UNL     1      -8.812   7.008 130.587  0.00  0.00    +0.000 A 
ATOM      3  C   UNL     1     -10.208   6.905 130.645  0.00  0.00    +0.000 A 
ATOM      4  C   UNL     1     -10.791   6.282 131.751  0.00  0.00    +0.000 A 
ATOM      5  C   UNL     1     -10.004   5.746 132.765  0.00  0.00    +0.000 A 
ATOM      6  C   UNL     1      -8.609   5.846 132.691  0.00  0.00    +0.000 A 
ENDROOT
BRANCH   1   8
ATOM      7  C   UNL     1      -5.922   7.336 130.570  0.00  0.00    +0.000 C 
ATOM      8  C   UNL     1      -6.529   6.653 131.556  0.00  0.00    +0.000 C 
BRANCH   7   9
ATOM      9  C   UNL     1      -4.464   7.536 130.400  0.00  0.00    +0.000 C 
ATOM     10  O   UNL     1      -3.698   7.461 131.355  0.00  0.00    +0.000 OA
BRANCH   9  11
ATOM     11  O   UNL     1      -4.110   7.809 129.120  0.00  0.00    +0.000 OA
BRANCH  11  12
ATOM     12  C   UNL     1      -3.682   6.659 128.366  0.00  0.00    +0.000 C 
ATOM     13  C   UNL     1      -2.165   6.649 128.288  0.00  0.00    +0.000 C 
ENDBRANCH  11  12
ENDBRANCH   9  11
ENDBRANCH   7   9
ENDBRANCH   1   8
BRANCH   3  14
ATOM     14  O   UNL     1     -11.076   7.378 129.692  0.00  0.00    +0.000 OA
ATOM     15  C   UNL     1     -10.493   8.185 128.671  0.00  0.00    +0.000 C 
ENDBRANCH   3  14
BRANCH   4  16
ATOM     16  O   UNL     1     -12.150   6.180 131.876  0.00  0.00    +0.000 OA
ATOM     17  H   UNL     1     -12.362   5.235 131.760  0.00  0.00    +0.000 HD
ENDBRANCH   4  16
TORSDOF 6
ENDMDL
MODEL 4
REMARK VINA RESULT:      -5.4      9.646     11.355
REMARK  Name = Ethyl ferulate
REMARK  8 active torsions:
REMARK  status: ('A' for Active; 'I' for Inactive)
REMARK    1  A    between atoms: C_2  and  C_14
REMARK    2  A    between atoms: C_3  and  C_5
REMARK    3  A    between atoms: C_7  and  O_8
REMARK    4  A    between atoms: O_8  and  C_9
REMARK    5  A    between atoms: C_10  and  O_11
REMARK    6  A    between atoms: C_14  and  O_16
REMARK    7  A    between atoms: O_16  and  C_17
REMARK    8  A    between atoms: C_17  and  C_18
REMARK                            x       y       z     vdW  Elec       q    Type
REMARK                         _______ _______ _______ _____ _____    ______ ____
ROOT
ATOM      1  C   UNL     1      -8.107   6.514 131.591  0.00  0.00    +0.000 A 
ATOM      2  C   UNL     1      -8.911   7.009 130.550  0.00  0.00    +0.000 A 
ATOM      3  C   UNL     1     -10.308   6.939 130.610  0.00  0.00    +0.000 A 
ATOM      4  C   UNL     1     -10.904   6.354 131.730  0.00  0.00    +0.000 A 
ATOM      5  C   UNL     1     -10.129   5.825 132.756  0.00  0.00    +0.000 A 
ATOM      6  C   UNL     1      -8.731   5.893 132.680  0.00  0.00    +0.000 A 
ENDROOT
BRANCH   1   8
ATOM      7  C   UNL     1      -6.016   7.312 130.548  0.00  0.00    +0.000 C 
ATOM      8  C   UNL     1      -6.636   6.629 131.527  0.00  0.00    +0.000 C 
BRANCH   7   9
ATOM      9  C   UNL     1      -4.555   7.480 130.375  0.00  0.00    +0.000 C 
ATOM     10  O   UNL     1      -4.095   8.071 129.404  0.00  0.00    +0.000 OA
BRANCH   9  11
ATOM     11  O   UNL     1      -3.832   6.916 131.373  0.00  0.00    +0.000 OA
BRANCH  11  12
ATOM     12  C   UNL     1      -2.824   5.990 130.925  0.00  0.00    +0.000 C 
ATOM     13  C   UNL     1      -1.455   6.502 131.341  0.00  0.00    +0.000 C 
ENDBRANCH  11  12
ENDBRANCH   9  11
ENDBRANCH   7   9
ENDBRANCH   1   8
BRANCH   3  14
ATOM     14  O   UNL     1     -11.166   7.407 129.646  0.00  0.00    +0.000 OA
ATOM     15  C   UNL     1     -10.560   8.138 128.581  0.00  0.00    +0.000 C 
ENDBRANCH   3  14
BRANCH   4  16
ATOM     16  O   UNL     1     -12.265   6.284 131.857  0.00  0.00    +0.000 OA
ATOM     17  H   UNL     1     -12.493   6.829 132.634  0.00  0.00    +0.000 HD
ENDBRANCH   4  16
TORSDOF 6
ENDMDL
MODEL 5
REMARK VINA RESULT:      -5.4      8.609     10.813
REMARK  Name = Ethyl ferulate
REMARK  8 active torsions:
REMARK  status: ('A' for Active; 'I' for Inactive)
REMARK    1  A    between atoms: C_2  and  C_14
REMARK    2  A    between atoms: C_3  and  C_5
REMARK    3  A    between atoms: C_7  and  O_8
REMARK    4  A    between atoms: O_8  and  C_9
REMARK    5  A    between atoms: C_10  and  O_11
REMARK    6  A    between atoms: C_14  and  O_16
REMARK    7  A    between atoms: O_16  and  C_17
REMARK    8  A    between atoms: C_17  and  C_18
REMARK                            x       y       z     vdW  Elec       q    Type
REMARK                         _______ _______ _______ _____ _____    ______ ____
ROOT
ATOM      1  C   UNL     1      -9.881   6.848 130.837  0.00  0.00    +0.000 A 
ATOM      2  C   UNL     1      -9.860   7.490 129.586  0.00  0.00    +0.000 A 
ATOM      3  C   UNL     1     -11.043   7.857 128.935  0.00  0.00    +0.000 A 
ATOM      4  C   UNL     1     -12.265   7.567 129.546  0.00  0.00    +0.000 A 
ATOM      5  C   UNL     1     -12.313   6.900 130.766  0.00  0.00    +0.000 A 
ATOM      6  C   UNL     1     -11.121   6.530 131.404  0.00  0.00    +0.000 A 
ENDROOT
BRANCH   1   8
ATOM      7  C   UNL     1      -7.422   6.882 131.055  0.00  0.00    +0.000 C 
ATOM      8  C   UNL     1      -8.622   6.499 131.526  0.00  0.00    +0.000 C 
BRANCH   7   9
ATOM      9  C   UNL     1      -6.100   6.579 131.652  0.00  0.00    +0.000 C 
ATOM     10  O   UNL     1      -5.997   5.832 132.619  0.00  0.00    +0.000 OA
BRANCH   9  11
ATOM     11  O   UNL     1      -5.077   7.211 131.027  0.00  0.00    +0.000 OA
BRANCH  11  12
ATOM     12  C   UNL     1      -3.769   6.801 131.468  0.00  0.00    +0.000 C 
ATOM     13  C   UNL     1      -2.982   8.026 131.904  0.00  0.00    +0.000 C 
ENDBRANCH  11  12
ENDBRANCH   9  11
ENDBRANCH   7   9
ENDBRANCH   1   8
BRANCH   3  14
ATOM     14  O   UNL     1     -11.113   8.496 127.722  0.00  0.00    +0.000 OA
ATOM     15  C   UNL     1     -10.927   7.668 126.575  0.00  0.00    +0.000 C 
ENDBRANCH   3  14
BRANCH   4  16
ATOM     16  O   UNL     1     -13.453   7.929 128.970  0.00  0.00    +0.000 OA
ATOM     17  H   UNL     1     -13.548   7.373 128.173  0.00  0.00    +0.000 HD
ENDBRANCH   4  16
TORSDOF 6
ENDMDL
MODEL 6
REMARK VINA RESULT:      -5.4      2.844      4.217
REMARK  Name = Ethyl ferulate
REMARK  8 active torsions:
REMARK  status: ('A' for Active; 'I' for Inactive)
REMARK    1  A    between atoms: C_2  and  C_14
REMARK    2  A    between atoms: C_3  and  C_5
REMARK    3  A    between atoms: C_7  and  O_8
REMARK    4  A    between atoms: O_8  and  C_9
REMARK    5  A    between atoms: C_10  and  O_11
REMARK    6  A    between atoms: C_14  and  O_16
REMARK    7  A    between atoms: O_16  and  C_17
REMARK    8  A    between atoms: C_17  and  C_18
REMARK                            x       y       z     vdW  Elec       q    Type
REMARK                         _______ _______ _______ _____ _____    ______ ____
ROOT
ATOM      1  C   UNL     1      -6.827   3.464 122.281  0.00  0.00    +0.000 A 
ATOM      2  C   UNL     1      -6.368   3.993 121.062  0.00  0.00    +0.000 A 
ATOM      3  C   UNL     1      -7.236   4.199 119.983  0.00  0.00    +0.000 A 
ATOM      4  C   UNL     1      -8.583   3.861 120.130  0.00  0.00    +0.000 A 
ATOM      5  C   UNL     1      -9.054   3.303 121.314  0.00  0.00    +0.000 A 
ATOM      6  C   UNL     1      -8.174   3.093 122.384  0.00  0.00    +0.000 A 
ENDROOT
BRANCH   1   8
ATOM      7  C   UNL     1      -6.309   2.764 124.591  0.00  0.00    +0.000 C 
ATOM      8  C   UNL     1      -5.904   3.287 123.420  0.00  0.00    +0.000 C 
BRANCH   7   9
ATOM      9  C   UNL     1      -5.479   2.554 125.801  0.00  0.00    +0.000 C 
ATOM     10  O   UNL     1      -5.852   1.814 126.705  0.00  0.00    +0.000 OA
BRANCH   9  11
ATOM     11  O   UNL     1      -4.322   3.259 125.781  0.00  0.00    +0.000 OA
BRANCH  11  12
ATOM     12  C   UNL     1      -3.443   2.986 126.889  0.00  0.00    +0.000 C 
ATOM     13  C   UNL     1      -2.007   3.236 126.460  0.00  0.00    +0.000 C 
ENDBRANCH  11  12
ENDBRANCH   9  11
ENDBRANCH   7   9
ENDBRANCH   1   8
BRANCH   3  14
ATOM     14  O   UNL     1      -6.875   4.720 118.765  0.00  0.00    +0.000 OA
ATOM     15  C   UNL     1      -5.830   5.690 118.793  0.00  0.00    +0.000 C 
ENDBRANCH   3  14
BRANCH   4  16
ATOM     16  O   UNL     1      -9.484   4.068 119.120  0.00  0.00    +0.000 OA
ATOM     17  H   UNL     1     -10.368   4.009 119.529  0.00  0.00    +0.000 HD
ENDBRANCH   4  16
TORSDOF 6
ENDMDL
MODEL 7
REMARK VINA RESULT:      -5.3      9.061     11.222
REMARK  Name = Ethyl ferulate
REMARK  8 active torsions:
REMARK  status: ('A' for Active; 'I' for Inactive)
REMARK    1  A    between atoms: C_2  and  C_14
REMARK    2  A    between atoms: C_3  and  C_5
REMARK    3  A    between atoms: C_7  and  O_8
REMARK    4  A    between atoms: O_8  and  C_9
REMARK    5  A    between atoms: C_10  and  O_11
REMARK    6  A    between atoms: C_14  and  O_16
REMARK    7  A    between atoms: O_16  and  C_17
REMARK    8  A    between atoms: C_17  and  C_18
REMARK                            x       y       z     vdW  Elec       q    Type
REMARK                         _______ _______ _______ _____ _____    ______ ____
ROOT
ATOM      1  C   UNL     1     -10.384   6.494 131.457  0.00  0.00    +0.000 A 
ATOM      2  C   UNL     1      -9.964   7.096 130.259  0.00  0.00    +0.000 A 
ATOM      3  C   UNL     1     -10.853   7.823 129.457  0.00  0.00    +0.000 A 
ATOM      4  C   UNL     1     -12.185   7.939 129.864  0.00  0.00    +0.000 A 
ATOM      5  C   UNL     1     -12.632   7.322 131.027  0.00  0.00    +0.000 A 
ATOM      6  C   UNL     1     -11.735   6.589 131.817  0.00  0.00    +0.000 A 
ENDROOT
BRANCH   1   8
ATOM      7  C   UNL     1      -9.733   4.581 132.876  0.00  0.00    +0.000 C 
ATOM      8  C   UNL     1      -9.425   5.761 132.308  0.00  0.00    +0.000 C 
BRANCH   7   9
ATOM      9  C   UNL     1      -8.860   3.768 133.755  0.00  0.00    +0.000 C 
ATOM     10  O   UNL     1      -8.658   2.580 133.524  0.00  0.00    +0.000 OA
BRANCH   9  11
ATOM     11  O   UNL     1      -8.352   4.470 134.797  0.00  0.00    +0.000 OA
BRANCH  11  12
ATOM     12  C   UNL     1      -6.929   4.329 134.969  0.00  0.00    +0.000 C 
ATOM     13  C   UNL     1      -6.470   5.235 136.098  0.00  0.00    +0.000 C 
ENDBRANCH  11  12
ENDBRANCH   9  11
ENDBRANCH   7   9
ENDBRANCH   1   8
BRANCH   3  14
ATOM     14  O   UNL     1     -10.525   8.451 128.281  0.00  0.00    +0.000 OA
ATOM     15  C   UNL     1     -10.660   7.663 127.101  0.00  0.00    +0.000 C 
ENDBRANCH   3  14
BRANCH   4  16
ATOM     16  O   UNL     1     -13.091   8.662 129.136  0.00  0.00    +0.000 OA
ATOM     17  H   UNL     1     -13.565   8.018 128.577  0.00  0.00    +0.000 HD
ENDBRANCH   4  16
TORSDOF 6
ENDMDL
MODEL 8
REMARK VINA RESULT:      -5.1      6.425      8.170
REMARK  Name = Ethyl ferulate
REMARK  8 active torsions:
REMARK  status: ('A' for Active; 'I' for Inactive)
REMARK    1  A    between atoms: C_2  and  C_14
REMARK    2  A    between atoms: C_3  and  C_5
REMARK    3  A    between atoms: C_7  and  O_8
REMARK    4  A    between atoms: O_8  and  C_9
REMARK    5  A    between atoms: C_10  and  O_11
REMARK    6  A    between atoms: C_14  and  O_16
REMARK    7  A    between atoms: O_16  and  C_17
REMARK    8  A    between atoms: C_17  and  C_18
REMARK                            x       y       z     vdW  Elec       q    Type
REMARK                         _______ _______ _______ _____ _____    ______ ____
ROOT
ATOM      1  C   UNL     1      -8.135  -2.898 126.397  0.00  0.00    +0.000 A 
ATOM      2  C   UNL     1      -6.935  -2.618 125.721  0.00  0.00    +0.000 A 
ATOM      3  C   UNL     1      -6.904  -2.431 124.334  0.00  0.00    +0.000 A 
ATOM      4  C   UNL     1      -8.098  -2.536 123.615  0.00  0.00    +0.000 A 
ATOM      5  C   UNL     1      -9.292  -2.848 124.256  0.00  0.00    +0.000 A 
ATOM      6  C   UNL     1      -9.308  -3.041 125.644  0.00  0.00    +0.000 A 
ENDROOT
BRANCH   1   8
ATOM      7  C   UNL     1      -7.804  -2.058 128.694  0.00  0.00    +0.000 C 
ATOM      8  C   UNL     1      -8.154  -3.057 127.865  0.00  0.00    +0.000 C 
BRANCH   7   9
ATOM      9  C   UNL     1      -7.771  -2.108 130.175  0.00  0.00    +0.000 C 
ATOM     10  O   UNL     1      -7.912  -1.092 130.847  0.00  0.00    +0.000 OA
BRANCH   9  11
ATOM     11  O   UNL     1      -7.564  -3.356 130.661  0.00  0.00    +0.000 OA
BRANCH  11  12
ATOM     12  C   UNL     1      -6.262  -3.558 131.242  0.00  0.00    +0.000 C 
ATOM     13  C   UNL     1      -5.633  -4.801 130.638  0.00  0.00    +0.000 C 
ENDBRANCH  11  12
ENDBRANCH   9  11
ENDBRANCH   7   9
ENDBRANCH   1   8
BRANCH   3  14
ATOM     14  O   UNL     1      -5.781  -2.143 123.599  0.00  0.00    +0.000 OA
ATOM     15  C   UNL     1      -4.786  -3.164 123.564  0.00  0.00    +0.000 C 
ENDBRANCH   3  14
BRANCH   4  16
ATOM     16  O   UNL     1      -8.134  -2.334 122.262  0.00  0.00    +0.000 OA
ATOM     17  H   UNL     1      -8.934  -1.802 122.089  0.00  0.00    +0.000 HD
ENDBRANCH   4  16
TORSDOF 6
ENDMDL
MODEL 9
REMARK VINA RESULT:      -5.1      9.651     11.880
REMARK  Name = Ethyl ferulate
REMARK  8 active torsions:
REMARK  status: ('A' for Active; 'I' for Inactive)
REMARK    1  A    between atoms: C_2  and  C_14
REMARK    2  A    between atoms: C_3  and  C_5
REMARK    3  A    between atoms: C_7  and  O_8
REMARK    4  A    between atoms: O_8  and  C_9
REMARK    5  A    between atoms: C_10  and  O_11
REMARK    6  A    between atoms: C_14  and  O_16
REMARK    7  A    between atoms: O_16  and  C_17
REMARK    8  A    between atoms: C_17  and  C_18
REMARK                            x       y       z     vdW  Elec       q    Type
REMARK                         _______ _______ _______ _____ _____    ______ ____
ROOT
ATOM      1  C   UNL     1      -8.085   6.478 131.670  0.00  0.00    +0.000 A 
ATOM      2  C   UNL     1      -8.113   5.840 132.922  0.00  0.00    +0.000 A 
ATOM      3  C   UNL     1      -6.934   5.559 133.624  0.00  0.00    +0.000 A 
ATOM      4  C   UNL     1      -5.710   5.919 133.053  0.00  0.00    +0.000 A 
ATOM      5  C   UNL     1      -5.656   6.519 131.800  0.00  0.00    +0.000 A 
ATOM      6  C   UNL     1      -6.842   6.786 131.103  0.00  0.00    +0.000 A 
ENDROOT
BRANCH   1   8
ATOM      7  C   UNL     1      -9.349   7.457 129.788  0.00  0.00    +0.000 C 
ATOM      8  C   UNL     1      -9.341   6.798 130.960  0.00  0.00    +0.000 C 
BRANCH   7   9
ATOM      9  C   UNL     1     -10.541   7.843 128.999  0.00  0.00    +0.000 C 
ATOM     10  O   UNL     1     -10.472   8.699 128.123  0.00  0.00    +0.000 OA
BRANCH   9  11
ATOM     11  O   UNL     1     -11.660   7.168 129.359  0.00  0.00    +0.000 OA
BRANCH  11  12
ATOM     12  C   UNL     1     -12.684   7.991 129.950  0.00  0.00    +0.000 C 
ATOM     13  C   UNL     1     -12.931   7.533 131.377  0.00  0.00    +0.000 C 
ENDBRANCH  11  12
ENDBRANCH   9  11
ENDBRANCH   7   9
ENDBRANCH   1   8
BRANCH   3  14
ATOM     14  O   UNL     1      -6.870   4.952 134.853  0.00  0.00    +0.000 OA
ATOM     15  C   UNL     1      -7.377   5.715 135.947  0.00  0.00    +0.000 C 
ENDBRANCH   3  14
BRANCH   4  16
ATOM     16  O   UNL     1      -4.528   5.697 133.706  0.00  0.00    +0.000 OA
ATOM     17  H   UNL     1      -4.766   5.354 134.589  0.00  0.00    +0.000 HD
ENDBRANCH   4  16
TORSDOF 6
ENDMDL
