MODEL 1
REMARK VINA RESULT:      -5.7      0.000      0.000
REMARK  Name = Ethyl hydroxybenzoate
REMARK  5 active torsions:
REMARK  status: ('A' for Active; 'I' for Inactive)
REMARK    1  A    between atoms: C_1  and  C_2
REMARK    2  A    between atoms: C_2  and  O_3
REMARK    3  A    between atoms: O_3  and  C_4
REMARK    4  A    between atoms: C_4  and  C_6
REMARK    5  A    between atoms: C_9  and  O_10
REMARK                            x       y       z     vdW  Elec       q    Type
REMARK                         _______ _______ _______ _____ _____    ______ ____
ROOT
ATOM      1  C   UNL     1     -12.019   7.238 129.444  0.00  0.00    +0.000 A 
ATOM      2  C   UNL     1     -10.901   8.036 129.167  0.00  0.00    +0.000 A 
ATOM      3  C   UNL     1     -10.552   8.334 127.838  0.00  0.00    +0.000 A 
ATOM      4  C   UNL     1     -11.327   7.836 126.792  0.00  0.00    +0.000 A 
ATOM      5  C   UNL     1     -12.440   7.047 127.055  0.00  0.00    +0.000 A 
ATOM      6  C   UNL     1     -12.781   6.738 128.378  0.00  0.00    +0.000 A 
ENDROOT
BRANCH   1   7
ATOM      7  C   UNL     1     -12.373   6.836 130.835  0.00  0.00    +0.000 C 
ATOM      8  O   UNL     1     -13.234   7.415 131.484  0.00  0.00    +0.000 OA
BRANCH   7   9
ATOM      9  O   UNL     1     -11.601   5.806 131.279  0.00  0.00    +0.000 OA
BRANCH   9  11
ATOM     10  C   UNL     1      -9.284   6.252 131.864  0.00  0.00    +0.000 C 
ATOM     11  C   UNL     1     -10.718   6.153 132.367  0.00  0.00    +0.000 C 
ENDBRANCH   9  11
ENDBRANCH   7   9
ENDBRANCH   1   7
BRANCH   4  12
ATOM     12  O   UNL     1     -11.034   8.085 125.483  0.00  0.00    +0.000 OA
ATOM     13  H   UNL     1     -11.853   8.123 124.962  0.00  0.00    +0.000 HD
ENDBRANCH   4  12
TORSDOF 4
ENDMDL
MODEL 2
REMARK VINA RESULT:      -5.4      1.993      4.622
REMARK  Name = Ethyl hydroxybenzoate
REMARK  5 active torsions:
REMARK  status: ('A' for Active; 'I' for Inactive)
REMARK    1  A    between atoms: C_1  and  C_2
REMARK    2  A    between atoms: C_2  and  O_3
REMARK    3  A    between atoms: O_3  and  C_4
REMARK    4  A    between atoms: C_4  and  C_6
REMARK    5  A    between atoms: C_9  and  O_10
REMARK                            x       y       z     vdW  Elec       q    Type
REMARK                         _______ _______ _______ _____ _____    ______ ____
ROOT
ATOM      1  C   UNL     1     -11.225   7.044 129.526  0.00  0.00    +0.000 A 
ATOM      2  C   UNL     1      -9.839   7.119 129.722  0.00  0.00    +0.000 A 
ATOM      3  C   UNL     1      -9.280   6.812 130.975  0.00  0.00    +0.000 A 
ATOM      4  C   UNL     1     -10.110   6.428 132.026  0.00  0.00    +0.000 A 
ATOM      5  C   UNL     1     -11.486   6.346 131.843  0.00  0.00    +0.000 A 
ATOM      6  C   UNL     1     -12.045   6.665 130.599  0.00  0.00    +0.000 A 
ENDROOT
BRANCH   1   7
ATOM      7  C   UNL     1     -11.859   7.438 128.237  0.00  0.00    +0.000 C 
ATOM      8  O   UNL     1     -12.151   6.619 127.374  0.00  0.00    +0.000 OA
BRANCH   7   9
ATOM      9  O   UNL     1     -12.019   8.786 128.138  0.00  0.00    +0.000 OA
BRANCH   9  11
ATOM     10  C   UNL     1     -13.234  10.232 129.669  0.00  0.00    +0.000 C 
ATOM     11  C   UNL     1     -13.334   9.255 128.506  0.00  0.00    +0.000 C 
ENDBRANCH   9  11
ENDBRANCH   7   9
ENDBRANCH   1   7
BRANCH   4  12
ATOM     12  O   UNL     1      -9.627   6.126 133.266  0.00  0.00    +0.000 OA
ATOM     13  H   UNL     1      -9.955   5.255 133.546  0.00  0.00    +0.000 HD
ENDBRANCH   4  12
TORSDOF 4
ENDMDL
MODEL 3
REMARK VINA RESULT:      -5.4      8.532     10.175
REMARK  Name = Ethyl hydroxybenzoate
REMARK  5 active torsions:
REMARK  status: ('A' for Active; 'I' for Inactive)
REMARK    1  A    between atoms: C_1  and  C_2
REMARK    2  A    between atoms: C_2  and  O_3
REMARK    3  A    between atoms: O_3  and  C_4
REMARK    4  A    between atoms: C_4  and  C_6
REMARK    5  A    between atoms: C_9  and  O_10
REMARK                            x       y       z     vdW  Elec       q    Type
REMARK                         _______ _______ _______ _____ _____    ______ ____
ROOT
ATOM      1  C   UNL     1      -6.992   3.723 121.279  0.00  0.00    +0.000 A 
ATOM      2  C   UNL     1      -5.688   4.236 121.240  0.00  0.00    +0.000 A 
ATOM      3  C   UNL     1      -5.236   4.945 120.113  0.00  0.00    +0.000 A 
ATOM      4  C   UNL     1      -6.093   5.142 119.032  0.00  0.00    +0.000 A 
ATOM      5  C   UNL     1      -7.389   4.641 119.061  0.00  0.00    +0.000 A 
ATOM      6  C   UNL     1      -7.836   3.923 120.176  0.00  0.00    +0.000 A 
ENDROOT
BRANCH   1   7
ATOM      7  C   UNL     1      -7.479   2.899 122.421  0.00  0.00    +0.000 C 
ATOM      8  O   UNL     1      -6.736   2.170 123.066  0.00  0.00    +0.000 OA
BRANCH   7   9
ATOM      9  O   UNL     1      -8.821   3.032 122.609  0.00  0.00    +0.000 OA
BRANCH   9  11
ATOM     10  C   UNL     1     -10.049   0.934 122.631  0.00  0.00    +0.000 C 
ATOM     11  C   UNL     1      -9.401   2.028 123.469  0.00  0.00    +0.000 C 
ENDBRANCH   9  11
ENDBRANCH   7   9
ENDBRANCH   1   7
BRANCH   4  12
ATOM     12  O   UNL     1      -5.709   5.815 117.909  0.00  0.00    +0.000 OA
ATOM     13  H   UNL     1      -5.760   5.227 117.137  0.00  0.00    +0.000 HD
ENDBRANCH   4  12
TORSDOF 4
ENDMDL
MODEL 4
REMARK VINA RESULT:      -5.3      1.950      5.083
REMARK  Name = Ethyl hydroxybenzoate
REMARK  5 active torsions:
REMARK  status: ('A' for Active; 'I' for Inactive)
REMARK    1  A    between atoms: C_1  and  C_2
REMARK    2  A    between atoms: C_2  and  O_3
REMARK    3  A    between atoms: O_3  and  C_4
REMARK    4  A    between atoms: C_4  and  C_6
REMARK    5  A    between atoms: C_9  and  O_10
REMARK                            x       y       z     vdW  Elec       q    Type
REMARK                         _______ _______ _______ _____ _____    ______ ____
ROOT
ATOM      1  C   UNL     1     -10.288   7.104 129.937  0.00  0.00    +0.000 A 
ATOM      2  C   UNL     1     -11.315   6.777 130.832  0.00  0.00    +0.000 A 
ATOM      3  C   UNL     1     -11.011   6.281 132.112  0.00  0.00    +0.000 A 
ATOM      4  C   UNL     1      -9.680   6.120 132.493  0.00  0.00    +0.000 A 
ATOM      5  C   UNL     1      -8.653   6.445 131.615  0.00  0.00    +0.000 A 
ATOM      6  C   UNL     1      -8.954   6.926 130.334  0.00  0.00    +0.000 A 
ENDROOT
BRANCH   1   7
ATOM      7  C   UNL     1     -10.572   7.556 128.546  0.00  0.00    +0.000 C 
ATOM      8  O   UNL     1     -10.203   8.644 128.122  0.00  0.00    +0.000 OA
BRANCH   7   9
ATOM      9  O   UNL     1     -11.310   6.644 127.854  0.00  0.00    +0.000 OA
BRANCH   9  11
ATOM     10  C   UNL     1     -13.593   7.471 127.967  0.00  0.00    +0.000 C 
ATOM     11  C   UNL     1     -12.384   7.217 127.078  0.00  0.00    +0.000 C 
ENDBRANCH   9  11
ENDBRANCH   7   9
ENDBRANCH   1   7
BRANCH   4  12
ATOM     12  O   UNL     1      -9.324   5.637 133.718  0.00  0.00    +0.000 OA
ATOM     13  H   UNL     1      -8.382   5.811 133.881  0.00  0.00    +0.000 HD
ENDBRANCH   4  12
TORSDOF 4
ENDMDL
MODEL 5
REMARK VINA RESULT:      -5.2      2.188      2.717
REMARK  Name = Ethyl hydroxybenzoate
REMARK  5 active torsions:
REMARK  status: ('A' for Active; 'I' for Inactive)
REMARK    1  A    between atoms: C_1  and  C_2
REMARK    2  A    between atoms: C_2  and  O_3
REMARK    3  A    between atoms: O_3  and  C_4
REMARK    4  A    between atoms: C_4  and  C_6
REMARK    5  A    between atoms: C_9  and  O_10
REMARK                            x       y       z     vdW  Elec       q    Type
REMARK                         _______ _______ _______ _____ _____    ______ ____
ROOT
ATOM      1  C   UNL     1     -11.675   6.595 130.057  0.00  0.00    +0.000 A 
ATOM      2  C   UNL     1     -12.496   7.325 130.927  0.00  0.00    +0.000 A 
ATOM      3  C   UNL     1     -12.986   8.588 130.550  0.00  0.00    +0.000 A 
ATOM      4  C   UNL     1     -12.657   9.113 129.302  0.00  0.00    +0.000 A 
ATOM      5  C   UNL     1     -11.847   8.396 128.429  0.00  0.00    +0.000 A 
ATOM      6  C   UNL     1     -11.347   7.144 128.808  0.00  0.00    +0.000 A 
ENDROOT
BRANCH   1   7
ATOM      7  C   UNL     1     -11.073   5.291 130.453  0.00  0.00    +0.000 C 
ATOM      8  O   UNL     1     -11.459   4.225 129.991  0.00  0.00    +0.000 OA
BRANCH   7   9
ATOM      9  O   UNL     1     -10.103   5.444 131.396  0.00  0.00    +0.000 OA
BRANCH   9  11
ATOM     10  C   UNL     1      -8.128   6.809 131.013  0.00  0.00    +0.000 C 
ATOM     11  C   UNL     1      -8.758   5.431 130.870  0.00  0.00    +0.000 C 
ENDBRANCH   9  11
ENDBRANCH   7   9
ENDBRANCH   1   7
BRANCH   4  12
ATOM     12  O   UNL     1     -13.097  10.335 128.884  0.00  0.00    +0.000 OA
ATOM     13  H   UNL     1     -13.551  10.790 129.612  0.00  0.00    +0.000 HD
ENDBRANCH   4  12
TORSDOF 4
ENDMDL
MODEL 6
REMARK VINA RESULT:      -5.1      1.967      4.561
REMARK  Name = Ethyl hydroxybenzoate
REMARK  5 active torsions:
REMARK  status: ('A' for Active; 'I' for Inactive)
REMARK    1  A    between atoms: C_1  and  C_2
REMARK    2  A    between atoms: C_2  and  O_3
REMARK    3  A    between atoms: O_3  and  C_4
REMARK    4  A    between atoms: C_4  and  C_6
REMARK    5  A    between atoms: C_9  and  O_10
REMARK                            x       y       z     vdW  Elec       q    Type
REMARK                         _______ _______ _______ _____ _____    ______ ____
ROOT
ATOM      1  C   UNL     1     -10.888   6.604 131.121  0.00  0.00    +0.000 A 
ATOM      2  C   UNL     1      -9.846   7.051 130.297  0.00  0.00    +0.000 A 
ATOM      3  C   UNL     1      -8.508   6.920 130.710  0.00  0.00    +0.000 A 
ATOM      4  C   UNL     1      -8.219   6.338 131.942  0.00  0.00    +0.000 A 
ATOM      5  C   UNL     1      -9.244   5.887 132.766  0.00  0.00    +0.000 A 
ATOM      6  C   UNL     1     -10.578   6.030 132.363  0.00  0.00    +0.000 A 
ENDROOT
BRANCH   1   7
ATOM      7  C   UNL     1     -12.319   6.798 130.753  0.00  0.00    +0.000 C 
ATOM      8  O   UNL     1     -13.153   7.197 131.555  0.00  0.00    +0.000 OA
BRANCH   7   9
ATOM      9  O   UNL     1     -12.566   6.440 129.463  0.00  0.00    +0.000 OA
BRANCH   9  11
ATOM     10  C   UNL     1     -12.644   8.639 128.430  0.00  0.00    +0.000 C 
ATOM     11  C   UNL     1     -13.412   7.363 128.743  0.00  0.00    +0.000 C 
ENDBRANCH   9  11
ENDBRANCH   7   9
ENDBRANCH   1   7
BRANCH   4  12
ATOM     12  O   UNL     1      -6.942   6.191 132.399  0.00  0.00    +0.000 OA
ATOM     13  H   UNL     1      -6.372   6.878 132.016  0.00  0.00    +0.000 HD
ENDBRANCH   4  12
TORSDOF 4
ENDMDL
MODEL 7
REMARK VINA RESULT:      -5.0      2.136      3.011
REMARK  Name = Ethyl hydroxybenzoate
REMARK  5 active torsions:
REMARK  status: ('A' for Active; 'I' for Inactive)
REMARK    1  A    between atoms: C_1  and  C_2
REMARK    2  A    between atoms: C_2  and  O_3
REMARK    3  A    between atoms: O_3  and  C_4
REMARK    4  A    between atoms: C_4  and  C_6
REMARK    5  A    between atoms: C_9  and  O_10
REMARK                            x       y       z     vdW  Elec       q    Type
REMARK                         _______ _______ _______ _____ _____    ______ ____
ROOT
ATOM      1  C   UNL     1     -10.594   6.935 130.746  0.00  0.00    +0.000 A 
ATOM      2  C   UNL     1     -11.936   7.171 131.074  0.00  0.00    +0.000 A 
ATOM      3  C   UNL     1     -12.730   8.003 130.265  0.00  0.00    +0.000 A 
ATOM      4  C   UNL     1     -12.180   8.590 129.127  0.00  0.00    +0.000 A 
ATOM      5  C   UNL     1     -10.851   8.360 128.790  0.00  0.00    +0.000 A 
ATOM      6  C   UNL     1     -10.055   7.543 129.603  0.00  0.00    +0.000 A 
ENDROOT
BRANCH   1   7
ATOM      7  C   UNL     1      -9.702   6.125 131.622  0.00  0.00    +0.000 C 
ATOM      8  O   UNL     1      -9.628   6.309 132.830  0.00  0.00    +0.000 OA
BRANCH   7   9
ATOM      9  O   UNL     1      -8.976   5.219 130.911  0.00  0.00    +0.000 OA
BRANCH   9  11
ATOM     10  C   UNL     1     -10.511   3.369 130.550  0.00  0.00    +0.000 C 
ATOM     11  C   UNL     1      -9.247   3.843 131.254  0.00  0.00    +0.000 C 
ENDBRANCH   9  11
ENDBRANCH   7   9
ENDBRANCH   1   7
BRANCH   4  12
ATOM     12  O   UNL     1     -12.898   9.411 128.308  0.00  0.00    +0.000 OA
ATOM     13  H   UNL     1     -13.464   9.995 128.839  0.00  0.00    +0.000 HD
ENDBRANCH   4  12
TORSDOF 4
ENDMDL
MODEL 8
REMARK VINA RESULT:      -4.9      2.249      2.797
REMARK  Name = Ethyl hydroxybenzoate
REMARK  5 active torsions:
REMARK  status: ('A' for Active; 'I' for Inactive)
REMARK    1  A    between atoms: C_1  and  C_2
REMARK    2  A    between atoms: C_2  and  O_3
REMARK    3  A    between atoms: O_3  and  C_4
REMARK    4  A    between atoms: C_4  and  C_6
REMARK    5  A    between atoms: C_9  and  O_10
REMARK                            x       y       z     vdW  Elec       q    Type
REMARK                         _______ _______ _______ _____ _____    ______ ____
ROOT
ATOM      1  C   UNL     1     -10.998   6.505 130.141  0.00  0.00    +0.000 A 
ATOM      2  C   UNL     1     -10.464   7.209 129.053  0.00  0.00    +0.000 A 
ATOM      3  C   UNL     1     -11.087   8.381 128.590  0.00  0.00    +0.000 A 
ATOM      4  C   UNL     1     -12.239   8.847 129.220  0.00  0.00    +0.000 A 
ATOM      5  C   UNL     1     -12.776   8.159 130.303  0.00  0.00    +0.000 A 
ATOM      6  C   UNL     1     -12.164   6.983 130.756  0.00  0.00    +0.000 A 
ENDROOT
BRANCH   1   7
ATOM      7  C   UNL     1     -10.411   5.217 130.609  0.00  0.00    +0.000 C 
ATOM      8  O   UNL     1     -10.243   4.264 129.859  0.00  0.00    +0.000 OA
BRANCH   7   9
ATOM      9  O   UNL     1     -10.141   5.236 131.943  0.00  0.00    +0.000 OA
BRANCH   9  11
ATOM     10  C   UNL     1      -9.262   3.793 133.691  0.00  0.00    +0.000 C 
ATOM     11  C   UNL     1      -9.010   4.427 132.330  0.00  0.00    +0.000 C 
ENDBRANCH   9  11
ENDBRANCH   7   9
ENDBRANCH   1   7
BRANCH   4  12
ATOM     12  O   UNL     1     -12.891   9.973 128.811  0.00  0.00    +0.000 OA
ATOM     13  H   UNL     1     -13.843   9.795 128.736  0.00  0.00    +0.000 HD
ENDBRANCH   4  12
TORSDOF 4
ENDMDL
MODEL 9
REMARK VINA RESULT:      -4.8     10.563     11.767
REMARK  Name = Ethyl hydroxybenzoate
REMARK  5 active torsions:
REMARK  status: ('A' for Active; 'I' for Inactive)
REMARK    1  A    between atoms: C_1  and  C_2
REMARK    2  A    between atoms: C_2  and  O_3
REMARK    3  A    between atoms: O_3  and  C_4
REMARK    4  A    between atoms: C_4  and  C_6
REMARK    5  A    between atoms: C_9  and  O_10
REMARK                            x       y       z     vdW  Elec       q    Type
REMARK                         _______ _______ _______ _____ _____    ______ ____
ROOT
ATOM      1  C   UNL     1      -8.020  -1.550 123.482  0.00  0.00    +0.000 A 
ATOM      2  C   UNL     1      -8.304  -2.715 124.207  0.00  0.00    +0.000 A 
ATOM      3  C   UNL     1      -7.315  -3.698 124.389  0.00  0.00    +0.000 A 
ATOM      4  C   UNL     1      -6.044  -3.507 123.849  0.00  0.00    +0.000 A 
ATOM      5  C   UNL     1      -5.750  -2.353 123.132  0.00  0.00    +0.000 A 
ATOM      6  C   UNL     1      -6.739  -1.380 122.938  0.00  0.00    +0.000 A 
ENDROOT
BRANCH   1   7
ATOM      7  C   UNL     1      -9.065  -0.525 123.201  0.00  0.00    +0.000 C 
ATOM      8  O   UNL     1     -10.092  -0.788 122.589  0.00  0.00    +0.000 OA
BRANCH   7   9
ATOM      9  O   UNL     1      -8.709   0.705 123.664  0.00  0.00    +0.000 OA
BRANCH   9  11
ATOM     10  C   UNL     1      -8.655   2.809 122.447  0.00  0.00    +0.000 C 
ATOM     11  C   UNL     1      -9.526   1.785 123.162  0.00  0.00    +0.000 C 
ENDBRANCH   9  11
ENDBRANCH   7   9
ENDBRANCH   1   7
BRANCH   4  12
ATOM     12  O   UNL     1      -5.047  -4.427 123.986  0.00  0.00    +0.000 OA
ATOM     13  H   UNL     1      -4.487  -4.430 123.192  0.00  0.00    +0.000 HD
ENDBRANCH   4  12
TORSDOF 4
ENDMDL
