MODEL 1
REMARK VINA RESULT:      -2.8      0.000      0.000
REMARK  Name = Ethylenediamine
REMARK  3 active torsions:
REMARK  status: ('A' for Active; 'I' for Inactive)
REMARK    1  A    between atoms: N_1  and  C_2
REMARK    2  A    between atoms: C_2  and  C_3
REMARK    3  A    between atoms: C_3  and  N_4
REMARK                            x       y       z     vdW  Elec       q    Type
REMARK                         _______ _______ _______ _____ _____    ______ ____
ROOT
ATOM      1  C   UNL     1     -13.397  10.719 130.104  0.00  0.00    +0.000 C 
ENDROOT
BRANCH   1   2
ATOM      2  N   UNL     1     -13.081  10.000 128.870  0.00  0.00    +0.000 NA
ATOM      3  H   UNL     1     -13.724   9.216 128.771  0.00  0.00    +0.000 HD
ATOM      4  H   UNL     1     -12.151   9.590 128.952  0.00  0.00    +0.000 HD
ENDBRANCH   1   2
BRANCH   1   5
ATOM      5  C   UNL     1     -13.887  12.146 129.814  0.00  0.00    +0.000 C 
BRANCH   5   6
ATOM      6  N   UNL     1     -13.730  13.013 130.980  0.00  0.00    +0.000 NA
ATOM      7  H   UNL     1     -13.052  12.596 131.617  0.00  0.00    +0.000 HD
ATOM      8  H   UNL     1     -14.611  13.042 131.491  0.00  0.00    +0.000 HD
ENDBRANCH   5   6
ENDBRANCH   1   5
TORSDOF 3
ENDMDL
MODEL 2
REMARK VINA RESULT:      -2.7     14.054     14.323
REMARK  Name = Ethylenediamine
REMARK  3 active torsions:
REMARK  status: ('A' for Active; 'I' for Inactive)
REMARK    1  A    between atoms: N_1  and  C_2
REMARK    2  A    between atoms: C_2  and  C_3
REMARK    3  A    between atoms: C_3  and  N_4
REMARK                            x       y       z     vdW  Elec       q    Type
REMARK                         _______ _______ _______ _____ _____    ______ ____
ROOT
ATOM      1  C   UNL     1      -5.744   4.824 119.825  0.00  0.00    +0.000 C 
ENDROOT
BRANCH   1   2
ATOM      2  N   UNL     1      -5.435   5.904 118.888  0.00  0.00    +0.000 NA
ATOM      3  H   UNL     1      -5.937   5.738 118.016  0.00  0.00    +0.000 HD
ATOM      4  H   UNL     1      -4.444   5.868 118.652  0.00  0.00    +0.000 HD
ENDBRANCH   1   2
BRANCH   1   5
ATOM      5  C   UNL     1      -4.857   4.896 121.078  0.00  0.00    +0.000 C 
BRANCH   5   6
ATOM      6  N   UNL     1      -4.116   6.155 121.137  0.00  0.00    +0.000 NA
ATOM      7  H   UNL     1      -3.620   6.291 120.257  0.00  0.00    +0.000 HD
ATOM      8  H   UNL     1      -3.397   6.081 121.856  0.00  0.00    +0.000 HD
ENDBRANCH   5   6
ENDBRANCH   1   5
TORSDOF 3
ENDMDL
MODEL 3
REMARK VINA RESULT:      -2.7     14.088     14.423
REMARK  Name = Ethylenediamine
REMARK  3 active torsions:
REMARK  status: ('A' for Active; 'I' for Inactive)
REMARK    1  A    between atoms: N_1  and  C_2
REMARK    2  A    between atoms: C_2  and  C_3
REMARK    3  A    between atoms: C_3  and  N_4
REMARK                            x       y       z     vdW  Elec       q    Type
REMARK                         _______ _______ _______ _____ _____    ______ ____
ROOT
ATOM      1  C   UNL     1      -4.900   4.855 120.930  0.00  0.00    +0.000 C 
ENDROOT
BRANCH   1   2
ATOM      2  N   UNL     1      -4.260   6.168 121.008  0.00  0.00    +0.000 NA
ATOM      3  H   UNL     1      -3.440   6.171 120.402  0.00  0.00    +0.000 HD
ATOM      4  H   UNL     1      -3.908   6.311 121.955  0.00  0.00    +0.000 HD
ENDBRANCH   1   2
BRANCH   1   5
ATOM      5  C   UNL     1      -5.905   4.787 119.769  0.00  0.00    +0.000 C 
BRANCH   5   6
ATOM      6  N   UNL     1      -5.600   5.780 118.740  0.00  0.00    +0.000 NA
ATOM      7  H   UNL     1      -4.651   6.126 118.881  0.00  0.00    +0.000 HD
ATOM      8  H   UNL     1      -6.213   6.585 118.867  0.00  0.00    +0.000 HD
ENDBRANCH   5   6
ENDBRANCH   1   5
TORSDOF 3
ENDMDL
MODEL 4
REMARK VINA RESULT:      -2.7     13.566     13.923
REMARK  Name = Ethylenediamine
REMARK  3 active torsions:
REMARK  status: ('A' for Active; 'I' for Inactive)
REMARK    1  A    between atoms: N_1  and  C_2
REMARK    2  A    between atoms: C_2  and  C_3
REMARK    3  A    between atoms: C_3  and  N_4
REMARK                            x       y       z     vdW  Elec       q    Type
REMARK                         _______ _______ _______ _____ _____    ______ ____
ROOT
ATOM      1  C   UNL     1      -5.103   5.323 120.061  0.00  0.00    +0.000 C 
ENDROOT
BRANCH   1   2
ATOM      2  N   UNL     1      -4.299   6.172 120.940  0.00  0.00    +0.000 NA
ATOM      3  H   UNL     1      -4.858   6.426 121.754  0.00  0.00    +0.000 HD
ATOM      4  H   UNL     1      -4.091   7.047 120.460  0.00  0.00    +0.000 HD
ENDBRANCH   1   2
BRANCH   1   5
ATOM      5  C   UNL     1      -5.770   4.179 120.840  0.00  0.00    +0.000 C 
BRANCH   5   6
ATOM      6  N   UNL     1      -5.792   4.451 122.277  0.00  0.00    +0.000 NA
ATOM      7  H   UNL     1      -6.678   4.895 122.518  0.00  0.00    +0.000 HD
ATOM      8  H   UNL     1      -5.068   5.136 122.493  0.00  0.00    +0.000 HD
ENDBRANCH   5   6
ENDBRANCH   1   5
TORSDOF 3
ENDMDL
MODEL 5
REMARK VINA RESULT:      -2.6      4.972      5.790
REMARK  Name = Ethylenediamine
REMARK  3 active torsions:
REMARK  status: ('A' for Active; 'I' for Inactive)
REMARK    1  A    between atoms: N_1  and  C_2
REMARK    2  A    between atoms: C_2  and  C_3
REMARK    3  A    between atoms: C_3  and  N_4
REMARK                            x       y       z     vdW  Elec       q    Type
REMARK                         _______ _______ _______ _____ _____    ______ ____
ROOT
ATOM      1  C   UNL     1     -11.090   8.355 127.867  0.00  0.00    +0.000 C 
ENDROOT
BRANCH   1   2
ATOM      2  N   UNL     1      -9.960   8.080 128.755  0.00  0.00    +0.000 NA
ATOM      3  H   UNL     1      -9.121   7.948 128.190  0.00  0.00    +0.000 HD
ATOM      4  H   UNL     1     -10.118   7.192 129.231  0.00  0.00    +0.000 HD
ENDBRANCH   1   2
BRANCH   1   5
ATOM      5  C   UNL     1     -10.922   7.653 126.510  0.00  0.00    +0.000 C 
BRANCH   5   6
ATOM      6  N   UNL     1     -12.024   6.729 126.246  0.00  0.00    +0.000 NA
ATOM      7  H   UNL     1     -12.189   6.686 125.240  0.00  0.00    +0.000 HD
ATOM      8  H   UNL     1     -12.878   7.110 126.652  0.00  0.00    +0.000 HD
ENDBRANCH   5   6
ENDBRANCH   1   5
TORSDOF 3
ENDMDL
MODEL 6
REMARK VINA RESULT:      -2.6      4.991      5.419
REMARK  Name = Ethylenediamine
REMARK  3 active torsions:
REMARK  status: ('A' for Active; 'I' for Inactive)
REMARK    1  A    between atoms: N_1  and  C_2
REMARK    2  A    between atoms: C_2  and  C_3
REMARK    3  A    between atoms: C_3  and  N_4
REMARK                            x       y       z     vdW  Elec       q    Type
REMARK                         _______ _______ _______ _____ _____    ______ ____
ROOT
ATOM      1  C   UNL     1     -10.890   7.605 126.512  0.00  0.00    +0.000 C 
ENDROOT
BRANCH   1   2
ATOM      2  N   UNL     1     -12.038   6.740 126.241  0.00  0.00    +0.000 NA
ATOM      3  H   UNL     1     -11.748   5.767 126.335  0.00  0.00    +0.000 HD
ATOM      4  H   UNL     1     -12.318   6.854 125.267  0.00  0.00    +0.000 HD
ENDBRANCH   1   2
BRANCH   1   5
ATOM      5  C   UNL     1     -11.055   8.356 127.843  0.00  0.00    +0.000 C 
BRANCH   5   6
ATOM      6  N   UNL     1      -9.956   8.064 128.762  0.00  0.00    +0.000 NA
ATOM      7  H   UNL     1      -9.099   7.933 128.226  0.00  0.00    +0.000 HD
ATOM      8  H   UNL     1     -10.138   7.172 129.220  0.00  0.00    +0.000 HD
ENDBRANCH   5   6
ENDBRANCH   1   5
TORSDOF 3
ENDMDL
MODEL 7
REMARK VINA RESULT:      -2.5      4.414      4.949
REMARK  Name = Ethylenediamine
REMARK  3 active torsions:
REMARK  status: ('A' for Active; 'I' for Inactive)
REMARK    1  A    between atoms: N_1  and  C_2
REMARK    2  A    between atoms: C_2  and  C_3
REMARK    3  A    between atoms: C_3  and  N_4
REMARK                            x       y       z     vdW  Elec       q    Type
REMARK                         _______ _______ _______ _____ _____    ______ ____
ROOT
ATOM      1  C   UNL     1     -12.733   7.179 127.340  0.00  0.00    +0.000 C 
ENDROOT
BRANCH   1   2
ATOM      2  N   UNL     1     -11.853   6.767 126.246  0.00  0.00    +0.000 NA
ATOM      3  H   UNL     1     -11.065   7.411 126.196  0.00  0.00    +0.000 HD
ATOM      4  H   UNL     1     -12.351   6.866 125.362  0.00  0.00    +0.000 HD
ENDBRANCH   1   2
BRANCH   1   5
ATOM      5  C   UNL     1     -12.147   8.371 128.113  0.00  0.00    +0.000 C 
BRANCH   5   6
ATOM      6  N   UNL     1     -10.795   8.692 127.658  0.00  0.00    +0.000 NA
ATOM      7  H   UNL     1     -10.289   7.825 127.479  0.00  0.00    +0.000 HD
ATOM      8  H   UNL     1     -10.295   9.157 128.414  0.00  0.00    +0.000 HD
ENDBRANCH   5   6
ENDBRANCH   1   5
TORSDOF 3
ENDMDL
MODEL 8
REMARK VINA RESULT:      -2.3     17.922     18.997
REMARK  Name = Ethylenediamine
REMARK  3 active torsions:
REMARK  status: ('A' for Active; 'I' for Inactive)
REMARK    1  A    between atoms: N_1  and  C_2
REMARK    2  A    between atoms: C_2  and  C_3
REMARK    3  A    between atoms: C_3  and  N_4
REMARK                            x       y       z     vdW  Elec       q    Type
REMARK                         _______ _______ _______ _____ _____    ______ ____
ROOT
ATOM      1  C   UNL     1      -3.999  -4.332 123.625  0.00  0.00    +0.000 C 
ENDROOT
BRANCH   1   2
ATOM      2  N   UNL     1      -4.173  -5.641 122.996  0.00  0.00    +0.000 NA
ATOM      3  H   UNL     1      -3.582  -5.690 122.167  0.00  0.00    +0.000 HD
ATOM      4  H   UNL     1      -5.132  -5.725 122.660  0.00  0.00    +0.000 HD
ENDBRANCH   1   2
BRANCH   1   5
ATOM      5  C   UNL     1      -5.352  -3.685 123.961  0.00  0.00    +0.000 C 
BRANCH   5   6
ATOM      6  N   UNL     1      -5.639  -2.557 123.076  0.00  0.00    +0.000 NA
ATOM      7  H   UNL     1      -5.119  -1.741 123.397  0.00  0.00    +0.000 HD
ATOM      8  H   UNL     1      -6.624  -2.312 123.164  0.00  0.00    +0.000 HD
ENDBRANCH   5   6
ENDBRANCH   1   5
TORSDOF 3
ENDMDL
MODEL 9
REMARK VINA RESULT:      -2.3      5.523      5.773
REMARK  Name = Ethylenediamine
REMARK  3 active torsions:
REMARK  status: ('A' for Active; 'I' for Inactive)
REMARK    1  A    between atoms: N_1  and  C_2
REMARK    2  A    between atoms: C_2  and  C_3
REMARK    3  A    between atoms: C_3  and  N_4
REMARK                            x       y       z     vdW  Elec       q    Type
REMARK                         _______ _______ _______ _____ _____    ______ ____
ROOT
ATOM      1  C   UNL     1     -12.244   7.130 128.662  0.00  0.00    +0.000 C 
ENDROOT
BRANCH   1   2
ATOM      2  N   UNL     1     -12.139   5.788 129.237  0.00  0.00    +0.000 NA
ATOM      3  H   UNL     1     -12.720   5.151 128.693  0.00  0.00    +0.000 HD
ATOM      4  H   UNL     1     -12.537   5.796 130.176  0.00  0.00    +0.000 HD
ENDBRANCH   1   2
BRANCH   1   5
ATOM      5  C   UNL     1     -12.903   7.097 127.274  0.00  0.00    +0.000 C 
BRANCH   5   6
ATOM      6  N   UNL     1     -11.946   6.716 126.237  0.00  0.00    +0.000 NA
ATOM      7  H   UNL     1     -12.397   6.786 125.325  0.00  0.00    +0.000 HD
ATOM      8  H   UNL     1     -11.706   5.732 126.354  0.00  0.00    +0.000 HD
ENDBRANCH   5   6
ENDBRANCH   1   5
TORSDOF 3
ENDMDL
