MODEL 1
REMARK VINA RESULT:      -9.8      0.000      0.000
REMARK  Name = Ethynodiol diacetate
REMARK  8 active torsions:
REMARK  status: ('A' for Active; 'I' for Inactive)
REMARK    1  A    between atoms: C_5  and  O_6
REMARK    2  A    between atoms: C_5  and  C_10
REMARK    3  A    between atoms: O_6  and  C_7
REMARK    4  A    between atoms: C_7  and  C_8
REMARK    5  A    between atoms: C_12  and  C_13
REMARK    6  A    between atoms: C_22  and  O_23
REMARK    7  A    between atoms: O_23  and  C_24
REMARK    8  A    between atoms: C_24  and  C_25
REMARK                            x       y       z     vdW  Elec       q    Type
REMARK                         _______ _______ _______ _____ _____    ______ ____
ROOT
ATOM      1  C   UNL     1      -7.995  -1.770 123.714  0.00  0.00    +0.000 C 
ATOM      2  C   UNL     1      -7.269  -1.890 122.502  0.00  0.00    +0.000 C 
ATOM      3  C   UNL     1      -6.480  -1.357 123.658  0.00  0.00    +0.000 C 
ATOM      4  C   UNL     1      -7.278  -1.786 125.536  0.00  0.00    +0.000 C 
ATOM      5  C   UNL     1      -6.531  -2.441 124.646  0.00  0.00    +0.000 C 
ATOM      6  C   UNL     1      -6.154  -3.784 124.255  0.00  0.00    +0.000 C 
ATOM      7  C   UNL     1      -5.245  -1.308 125.367  0.00  0.00    +0.000 C 
ATOM      8  C   UNL     1      -5.941   0.107 125.604  0.00  0.00    +0.000 C 
ATOM      9  C   UNL     1      -7.061   0.699 124.608  0.00  0.00    +0.000 C 
ATOM     10  C   UNL     1      -7.500   2.026 125.022  0.00  0.00    +0.000 C 
ATOM     11  C   UNL     1      -6.312   2.646 125.360  0.00  0.00    +0.000 C 
ATOM     12  C   UNL     1      -5.220   2.909 126.127  0.00  0.00    +0.000 C 
ATOM     13  C   UNL     1      -5.011   4.282 125.126  0.00  0.00    +0.000 C 
ATOM     14  C   UNL     1      -6.428   3.974 123.726  0.00  0.00    +0.000 C 
ATOM     15  C   UNL     1      -7.597   2.934 123.790  0.00  0.00    +0.000 C 
ATOM     16  C   UNL     1      -9.041   2.162 123.213  0.00  0.00    +0.000 C 
ATOM     17  C   UNL     1      -9.014   0.576 123.037  0.00  0.00    +0.000 C 
ATOM     18  C   UNL     1      -8.327  -0.122 124.191  0.00  0.00    +0.000 C 
ENDROOT
BRANCH   4  19
ATOM     19  C   UNL     1      -8.633  -2.580 125.848  0.00  0.00    +0.000 C 
ATOM     20  C   UNL     1      -9.589  -3.177 126.180  0.00  0.00    +0.000 C 
ENDBRANCH   4  19
BRANCH   4  21
ATOM     21  O   UNL     1      -6.522  -2.241 126.981  0.00  0.00    +0.000 OA
BRANCH  21  22
ATOM     22  C   UNL     1      -6.682  -2.040 128.369  0.00  0.00    +0.000 C 
ATOM     23  C   UNL     1      -7.123  -3.208 129.144  0.00  0.00    +0.000 C 
ATOM     24  O   UNL     1      -6.374  -1.015 128.972  0.00  0.00    +0.000 OA
ENDBRANCH  21  22
ENDBRANCH   4  21
BRANCH  13  25
ATOM     25  O   UNL     1      -3.675   3.726 126.168  0.00  0.00    +0.000 OA
BRANCH  25  26
ATOM     26  C   UNL     1      -2.541   3.857 126.929  0.00  0.00    +0.000 C 
ATOM     27  C   UNL     1      -1.487   2.902 126.556  0.00  0.00    +0.000 C 
ATOM     28  O   UNL     1      -2.370   4.635 127.872  0.00  0.00    +0.000 OA
ENDBRANCH  25  26
ENDBRANCH  13  25
TORSDOF 5
ENDMDL
MODEL 2
REMARK VINA RESULT:      -9.0      6.301      9.311
REMARK  Name = Ethynodiol diacetate
REMARK  8 active torsions:
REMARK  status: ('A' for Active; 'I' for Inactive)
REMARK    1  A    between atoms: C_5  and  O_6
REMARK    2  A    between atoms: C_5  and  C_10
REMARK    3  A    between atoms: O_6  and  C_7
REMARK    4  A    between atoms: C_7  and  C_8
REMARK    5  A    between atoms: C_12  and  C_13
REMARK    6  A    between atoms: C_22  and  O_23
REMARK    7  A    between atoms: O_23  and  C_24
REMARK    8  A    between atoms: C_24  and  C_25
REMARK                            x       y       z     vdW  Elec       q    Type
REMARK                         _______ _______ _______ _____ _____    ______ ____
ROOT
ATOM      1  C   UNL     1      -5.085   3.064 132.268  0.00  0.00    +0.000 C 
ATOM      2  C   UNL     1      -5.840   1.876 132.094  0.00  0.00    +0.000 C 
ATOM      3  C   UNL     1      -6.119   2.951 131.090  0.00  0.00    +0.000 C 
ATOM      4  C   UNL     1      -4.617   4.386 130.901  0.00  0.00    +0.000 C 
ATOM      5  C   UNL     1      -4.825   3.155 130.428  0.00  0.00    +0.000 C 
ATOM      6  C   UNL     1      -4.114   2.019 129.880  0.00  0.00    +0.000 C 
ATOM      7  C   UNL     1      -5.985   4.115 129.337  0.00  0.00    +0.000 C 
ATOM      8  C   UNL     1      -6.674   5.230 130.244  0.00  0.00    +0.000 C 
ATOM      9  C   UNL     1      -7.055   4.976 131.789  0.00  0.00    +0.000 C 
ATOM     10  C   UNL     1      -7.716   6.135 132.376  0.00  0.00    +0.000 C 
ATOM     11  C   UNL     1      -8.594   6.520 131.381  0.00  0.00    +0.000 C 
ATOM     12  C   UNL     1      -8.967   7.071 130.194  0.00  0.00    +0.000 C 
ATOM     13  C   UNL     1     -10.564   6.985 130.806  0.00  0.00    +0.000 C 
ATOM     14  C   UNL     1     -10.280   5.962 132.519  0.00  0.00    +0.000 C 
ATOM     15  C   UNL     1      -8.910   5.664 133.217  0.00  0.00    +0.000 C 
ATOM     16  C   UNL     1      -7.899   5.053 134.489  0.00  0.00    +0.000 C 
ATOM     17  C   UNL     1      -6.747   4.023 134.090  0.00  0.00    +0.000 C 
ATOM     18  C   UNL     1      -6.018   4.432 132.827  0.00  0.00    +0.000 C 
ENDROOT
BRANCH   4  19
ATOM     19  C   UNL     1      -3.249   4.461 131.728  0.00  0.00    +0.000 C 
ATOM     20  C   UNL     1      -2.195   4.468 132.249  0.00  0.00    +0.000 C 
ENDBRANCH   4  19
BRANCH   4  21
ATOM     21  O   UNL     1      -3.986   5.150 129.529  0.00  0.00    +0.000 OA
BRANCH  21  22
ATOM     22  C   UNL     1      -3.549   6.435 129.139  0.00  0.00    +0.000 C 
ATOM     23  C   UNL     1      -2.191   6.516 128.585  0.00  0.00    +0.000 C 
ATOM     24  O   UNL     1      -4.253   7.442 129.123  0.00  0.00    +0.000 OA
ENDBRANCH  21  22
ENDBRANCH   4  21
BRANCH  13  25
ATOM     25  O   UNL     1     -10.288   7.255 129.065  0.00  0.00    +0.000 OA
BRANCH  25  26
ATOM     26  C   UNL     1     -10.615   7.280 127.733  0.00  0.00    +0.000 C 
ATOM     27  C   UNL     1     -11.812   8.085 127.450  0.00  0.00    +0.000 C 
ATOM     28  O   UNL     1     -10.041   6.676 126.821  0.00  0.00    +0.000 OA
ENDBRANCH  25  26
ENDBRANCH  13  25
TORSDOF 5
ENDMDL
MODEL 3
REMARK VINA RESULT:      -8.6      3.299      5.927
REMARK  Name = Ethynodiol diacetate
REMARK  8 active torsions:
REMARK  status: ('A' for Active; 'I' for Inactive)
REMARK    1  A    between atoms: C_5  and  O_6
REMARK    2  A    between atoms: C_5  and  C_10
REMARK    3  A    between atoms: O_6  and  C_7
REMARK    4  A    between atoms: C_7  and  C_8
REMARK    5  A    between atoms: C_12  and  C_13
REMARK    6  A    between atoms: C_22  and  O_23
REMARK    7  A    between atoms: O_23  and  C_24
REMARK    8  A    between atoms: C_24  and  C_25
REMARK                            x       y       z     vdW  Elec       q    Type
REMARK                         _______ _______ _______ _____ _____    ______ ____
ROOT
ATOM      1  C   UNL     1      -7.857  -2.579 126.043  0.00  0.00    +0.000 C 
ATOM      2  C   UNL     1      -9.174  -3.103 126.093  0.00  0.00    +0.000 C 
ATOM      3  C   UNL     1      -9.077  -1.624 126.306  0.00  0.00    +0.000 C 
ATOM      4  C   UNL     1      -7.322  -0.749 125.597  0.00  0.00    +0.000 C 
ATOM      5  C   UNL     1      -8.483  -1.128 125.059  0.00  0.00    +0.000 C 
ATOM      6  C   UNL     1      -9.074  -1.494 123.789  0.00  0.00    +0.000 C 
ATOM      7  C   UNL     1      -9.019   0.444 125.895  0.00  0.00    +0.000 C 
ATOM      8  C   UNL     1      -8.264   0.516 127.297  0.00  0.00    +0.000 C 
ATOM      9  C   UNL     1      -7.954  -0.795 128.182  0.00  0.00    +0.000 C 
ATOM     10  C   UNL     1      -7.299  -0.451 129.438  0.00  0.00    +0.000 C 
ATOM     11  C   UNL     1      -8.011   0.655 129.858  0.00  0.00    +0.000 C 
ATOM     12  C   UNL     1      -8.403   1.959 129.856  0.00  0.00    +0.000 C 
ATOM     13  C   UNL     1      -9.119   1.611 131.371  0.00  0.00    +0.000 C 
ATOM     14  C   UNL     1      -8.855  -0.385 131.487  0.00  0.00    +0.000 C 
ATOM     15  C   UNL     1      -7.932  -1.262 130.576  0.00  0.00    +0.000 C 
ATOM     16  C   UNL     1      -7.167  -2.740 130.081  0.00  0.00    +0.000 C 
ATOM     17  C   UNL     1      -7.361  -3.203 128.566  0.00  0.00    +0.000 C 
ATOM     18  C   UNL     1      -7.236  -2.053 127.589  0.00  0.00    +0.000 C 
ENDROOT
BRANCH   4  19
ATOM     19  C   UNL     1      -6.091  -1.493 124.896  0.00  0.00    +0.000 C 
ATOM     20  C   UNL     1      -5.261  -2.086 124.312  0.00  0.00    +0.000 C 
ENDBRANCH   4  19
BRANCH   4  21
ATOM     21  O   UNL     1      -7.065   0.719 124.794  0.00  0.00    +0.000 OA
BRANCH  21  22
ATOM     22  C   UNL     1      -6.230   1.852 124.900  0.00  0.00    +0.000 C 
ATOM     23  C   UNL     1      -6.544   2.973 124.002  0.00  0.00    +0.000 C 
ATOM     24  O   UNL     1      -5.356   2.005 125.749  0.00  0.00    +0.000 OA
ENDBRANCH  21  22
ENDBRANCH   4  21
BRANCH  13  25
ATOM     25  O   UNL     1      -9.570   3.094 130.491  0.00  0.00    +0.000 OA
BRANCH  25  26
ATOM     26  C   UNL     1     -10.235   4.276 130.284  0.00  0.00    +0.000 C 
ATOM     27  C   UNL     1      -9.403   5.457 130.549  0.00  0.00    +0.000 C 
ATOM     28  O   UNL     1     -11.419   4.409 129.958  0.00  0.00    +0.000 OA
ENDBRANCH  25  26
ENDBRANCH  13  25
TORSDOF 5
ENDMDL
MODEL 4
REMARK VINA RESULT:      -8.5      6.116      8.224
REMARK  Name = Ethynodiol diacetate
REMARK  8 active torsions:
REMARK  status: ('A' for Active; 'I' for Inactive)
REMARK    1  A    between atoms: C_5  and  O_6
REMARK    2  A    between atoms: C_5  and  C_10
REMARK    3  A    between atoms: O_6  and  C_7
REMARK    4  A    between atoms: C_7  and  C_8
REMARK    5  A    between atoms: C_12  and  C_13
REMARK    6  A    between atoms: C_22  and  O_23
REMARK    7  A    between atoms: O_23  and  C_24
REMARK    8  A    between atoms: C_24  and  C_25
REMARK                            x       y       z     vdW  Elec       q    Type
REMARK                         _______ _______ _______ _____ _____    ______ ____
ROOT
ATOM      1  C   UNL     1      -7.537   1.429 131.642  0.00  0.00    +0.000 C 
ATOM      2  C   UNL     1      -8.711   0.664 131.862  0.00  0.00    +0.000 C 
ATOM      3  C   UNL     1      -8.796   1.633 130.723  0.00  0.00    +0.000 C 
ATOM      4  C   UNL     1      -6.957   2.260 129.967  0.00  0.00    +0.000 C 
ATOM      5  C   UNL     1      -7.738   1.191 129.808  0.00  0.00    +0.000 C 
ATOM      6  C   UNL     1      -7.687  -0.195 129.389  0.00  0.00    +0.000 C 
ATOM      7  C   UNL     1      -8.670   2.421 128.772  0.00  0.00    +0.000 C 
ATOM      8  C   UNL     1      -8.618   3.819 129.536  0.00  0.00    +0.000 C 
ATOM      9  C   UNL     1      -8.663   3.930 131.143  0.00  0.00    +0.000 C 
ATOM     10  C   UNL     1      -8.651   5.318 131.586  0.00  0.00    +0.000 C 
ATOM     11  C   UNL     1      -9.532   5.923 130.711  0.00  0.00    +0.000 C 
ATOM     12  C   UNL     1      -9.950   6.441 129.524  0.00  0.00    +0.000 C 
ATOM     13  C   UNL     1     -11.243   7.114 130.421  0.00  0.00    +0.000 C 
ATOM     14  C   UNL     1     -10.954   6.270 132.229  0.00  0.00    +0.000 C 
ATOM     15  C   UNL     1      -9.679   5.500 132.710  0.00  0.00    +0.000 C 
ATOM     16  C   UNL     1      -8.698   4.666 133.875  0.00  0.00    +0.000 C 
ATOM     17  C   UNL     1      -8.177   3.206 133.496  0.00  0.00    +0.000 C 
ATOM     18  C   UNL     1      -7.693   3.118 132.064  0.00  0.00    +0.000 C 
ENDROOT
BRANCH   4  19
ATOM     19  C   UNL     1      -5.505   1.841 130.496  0.00  0.00    +0.000 C 
ATOM     20  C   UNL     1      -4.398   1.591 130.799  0.00  0.00    +0.000 C 
ENDBRANCH   4  19
BRANCH   4  21
ATOM     21  O   UNL     1      -6.448   2.521 128.374  0.00  0.00    +0.000 OA
BRANCH  21  22
ATOM     22  C   UNL     1      -5.614   3.409 127.660  0.00  0.00    +0.000 C 
ATOM     23  C   UNL     1      -4.599   2.789 126.796  0.00  0.00    +0.000 C 
ATOM     24  O   UNL     1      -5.753   4.629 127.624  0.00  0.00    +0.000 OA
ENDBRANCH  21  22
ENDBRANCH   4  21
BRANCH  13  25
ATOM     25  O   UNL     1     -11.335   7.040 128.642  0.00  0.00    +0.000 OA
BRANCH  25  26
ATOM     26  C   UNL     1     -11.942   7.113 127.414  0.00  0.00    +0.000 C 
ATOM     27  C   UNL     1     -13.366   7.465 127.498  0.00  0.00    +0.000 C 
ATOM     28  O   UNL     1     -11.423   6.874 126.319  0.00  0.00    +0.000 OA
ENDBRANCH  25  26
ENDBRANCH  13  25
TORSDOF 5
ENDMDL
MODEL 5
REMARK VINA RESULT:      -8.3      3.061      5.735
REMARK  Name = Ethynodiol diacetate
REMARK  8 active torsions:
REMARK  status: ('A' for Active; 'I' for Inactive)
REMARK    1  A    between atoms: C_5  and  O_6
REMARK    2  A    between atoms: C_5  and  C_10
REMARK    3  A    between atoms: O_6  and  C_7
REMARK    4  A    between atoms: C_7  and  C_8
REMARK    5  A    between atoms: C_12  and  C_13
REMARK    6  A    between atoms: C_22  and  O_23
REMARK    7  A    between atoms: O_23  and  C_24
REMARK    8  A    between atoms: C_24  and  C_25
REMARK                            x       y       z     vdW  Elec       q    Type
REMARK                         _______ _______ _______ _____ _____    ______ ____
ROOT
ATOM      1  C   UNL     1      -6.593  -1.736 129.481  0.00  0.00    +0.000 C 
ATOM      2  C   UNL     1      -5.357  -2.198 128.962  0.00  0.00    +0.000 C 
ATOM      3  C   UNL     1      -5.888  -0.958 128.312  0.00  0.00    +0.000 C 
ATOM      4  C   UNL     1      -7.290   0.094 129.444  0.00  0.00    +0.000 C 
ATOM      5  C   UNL     1      -5.958   0.011 129.412  0.00  0.00    +0.000 C 
ATOM      6  C   UNL     1      -4.791   0.242 130.238  0.00  0.00    +0.000 C 
ATOM      7  C   UNL     1      -6.245   1.083 127.921  0.00  0.00    +0.000 C 
ATOM      8  C   UNL     1      -7.542   0.526 127.180  0.00  0.00    +0.000 C 
ATOM      9  C   UNL     1      -7.895  -1.045 127.116  0.00  0.00    +0.000 C 
ATOM     10  C   UNL     1      -9.105  -1.292 126.341  0.00  0.00    +0.000 C 
ATOM     11  C   UNL     1      -8.944  -0.457 125.253  0.00  0.00    +0.000 C 
ATOM     12  C   UNL     1      -8.916   0.730 124.587  0.00  0.00    +0.000 C 
ATOM     13  C   UNL     1      -8.897  -0.218 123.162  0.00  0.00    +0.000 C 
ATOM     14  C   UNL     1      -8.701  -2.075 123.923  0.00  0.00    +0.000 C 
ATOM     15  C   UNL     1      -8.878  -2.498 125.420  0.00  0.00    +0.000 C 
ATOM     16  C   UNL     1      -8.963  -3.637 126.727  0.00  0.00    +0.000 C 
ATOM     17  C   UNL     1      -8.005  -3.398 127.981  0.00  0.00    +0.000 C 
ATOM     18  C   UNL     1      -7.948  -1.943 128.397  0.00  0.00    +0.000 C 
ENDROOT
BRANCH   4  19
ATOM     19  C   UNL     1      -7.858  -0.307 130.885  0.00  0.00    +0.000 C 
ATOM     20  C   UNL     1      -8.305  -0.495 131.956  0.00  0.00    +0.000 C 
ENDBRANCH   4  19
BRANCH   4  21
ATOM     21  O   UNL     1      -7.499   1.757 129.675  0.00  0.00    +0.000 OA
BRANCH  21  22
ATOM     22  C   UNL     1      -8.549   2.668 129.920  0.00  0.00    +0.000 C 
ATOM     23  C   UNL     1      -8.498   3.385 131.202  0.00  0.00    +0.000 C 
ATOM     24  O   UNL     1      -9.414   2.980 129.105  0.00  0.00    +0.000 OA
ENDBRANCH  21  22
ENDBRANCH   4  21
BRANCH  13  25
ATOM     25  O   UNL     1      -8.466   1.510 123.089  0.00  0.00    +0.000 OA
BRANCH  25  26
ATOM     26  C   UNL     1      -8.117   2.690 122.484  0.00  0.00    +0.000 C 
ATOM     27  C   UNL     1      -6.712   3.057 122.709  0.00  0.00    +0.000 C 
ATOM     28  O   UNL     1      -8.861   3.440 121.844  0.00  0.00    +0.000 OA
ENDBRANCH  25  26
ENDBRANCH  13  25
TORSDOF 5
ENDMDL
MODEL 6
REMARK VINA RESULT:      -8.2      2.675      5.950
REMARK  Name = Ethynodiol diacetate
REMARK  8 active torsions:
REMARK  status: ('A' for Active; 'I' for Inactive)
REMARK    1  A    between atoms: C_5  and  O_6
REMARK    2  A    between atoms: C_5  and  C_10
REMARK    3  A    between atoms: O_6  and  C_7
REMARK    4  A    between atoms: C_7  and  C_8
REMARK    5  A    between atoms: C_12  and  C_13
REMARK    6  A    between atoms: C_22  and  O_23
REMARK    7  A    between atoms: O_23  and  C_24
REMARK    8  A    between atoms: C_24  and  C_25
REMARK                            x       y       z     vdW  Elec       q    Type
REMARK                         _______ _______ _______ _____ _____    ______ ____
ROOT
ATOM      1  C   UNL     1      -7.823  -0.255 123.247  0.00  0.00    +0.000 C 
ATOM      2  C   UNL     1      -8.759  -1.315 123.132  0.00  0.00    +0.000 C 
ATOM      3  C   UNL     1      -8.908  -0.475 124.363  0.00  0.00    +0.000 C 
ATOM      4  C   UNL     1      -8.036   1.416 124.245  0.00  0.00    +0.000 C 
ATOM      5  C   UNL     1      -9.183   0.867 123.839  0.00  0.00    +0.000 C 
ATOM      6  C   UNL     1     -10.248   1.055 122.876  0.00  0.00    +0.000 C 
ATOM      7  C   UNL     1      -9.549   1.065 125.651  0.00  0.00    +0.000 C 
ATOM      8  C   UNL     1      -8.214   0.708 126.446  0.00  0.00    +0.000 C 
ATOM      9  C   UNL     1      -7.196  -0.441 125.956  0.00  0.00    +0.000 C 
ATOM     10  C   UNL     1      -6.081  -0.601 126.882  0.00  0.00    +0.000 C 
ATOM     11  C   UNL     1      -6.701  -0.545 128.115  0.00  0.00    +0.000 C 
ATOM     12  C   UNL     1      -7.323   0.048 129.169  0.00  0.00    +0.000 C 
ATOM     13  C   UNL     1      -7.041  -1.424 129.996  0.00  0.00    +0.000 C 
ATOM     14  C   UNL     1      -6.306  -2.577 128.515  0.00  0.00    +0.000 C 
ATOM     15  C   UNL     1      -5.821  -2.096 127.106  0.00  0.00    +0.000 C 
ATOM     16  C   UNL     1      -5.112  -2.309 125.536  0.00  0.00    +0.000 C 
ATOM     17  C   UNL     1      -5.956  -1.826 124.270  0.00  0.00    +0.000 C 
ATOM     18  C   UNL     1      -6.627  -0.488 124.499  0.00  0.00    +0.000 C 
ENDROOT
BRANCH   4  19
ATOM     19  C   UNL     1      -7.220   2.023 123.009  0.00  0.00    +0.000 C 
ATOM     20  C   UNL     1      -6.652   2.570 122.138  0.00  0.00    +0.000 C 
ENDBRANCH   4  19
BRANCH   4  21
ATOM     21  O   UNL     1      -8.582   2.920 124.797  0.00  0.00    +0.000 OA
BRANCH  21  22
ATOM     22  C   UNL     1      -8.072   4.045 125.482  0.00  0.00    +0.000 C 
ATOM     23  C   UNL     1      -6.643   4.003 125.821  0.00  0.00    +0.000 C 
ATOM     24  O   UNL     1      -8.700   5.077 125.703  0.00  0.00    +0.000 OA
ENDBRANCH  21  22
ENDBRANCH   4  21
BRANCH  13  25
ATOM     25  O   UNL     1      -8.212  -0.246 130.646  0.00  0.00    +0.000 OA
BRANCH  25  26
ATOM     26  C   UNL     1      -8.893   0.437 131.621  0.00  0.00    +0.000 C 
ATOM     27  C   UNL     1      -8.009   1.212 132.503  0.00  0.00    +0.000 C 
ATOM     28  O   UNL     1     -10.110   0.412 131.826  0.00  0.00    +0.000 OA
ENDBRANCH  25  26
ENDBRANCH  13  25
TORSDOF 5
ENDMDL
MODEL 7
REMARK VINA RESULT:      -8.1      4.147      7.331
REMARK  Name = Ethynodiol diacetate
REMARK  8 active torsions:
REMARK  status: ('A' for Active; 'I' for Inactive)
REMARK    1  A    between atoms: C_5  and  O_6
REMARK    2  A    between atoms: C_5  and  C_10
REMARK    3  A    between atoms: O_6  and  C_7
REMARK    4  A    between atoms: C_7  and  C_8
REMARK    5  A    between atoms: C_12  and  C_13
REMARK    6  A    between atoms: C_22  and  O_23
REMARK    7  A    between atoms: O_23  and  C_24
REMARK    8  A    between atoms: C_24  and  C_25
REMARK                            x       y       z     vdW  Elec       q    Type
REMARK                         _______ _______ _______ _____ _____    ______ ____
ROOT
ATOM      1  C   UNL     1      -4.875   1.859 126.324  0.00  0.00    +0.000 C 
ATOM      2  C   UNL     1      -5.957   1.466 125.496  0.00  0.00    +0.000 C 
ATOM      3  C   UNL     1      -6.229   2.656 126.364  0.00  0.00    +0.000 C 
ATOM      4  C   UNL     1      -4.528   3.639 127.062  0.00  0.00    +0.000 C 
ATOM      5  C   UNL     1      -5.233   3.641 125.930  0.00  0.00    +0.000 C 
ATOM      6  C   UNL     1      -5.111   3.964 124.523  0.00  0.00    +0.000 C 
ATOM      7  C   UNL     1      -6.356   4.661 127.004  0.00  0.00    +0.000 C 
ATOM      8  C   UNL     1      -6.343   4.006 128.458  0.00  0.00    +0.000 C 
ATOM      9  C   UNL     1      -6.241   2.414 128.690  0.00  0.00    +0.000 C 
ATOM     10  C   UNL     1      -6.297   2.074 130.106  0.00  0.00    +0.000 C 
ATOM     11  C   UNL     1      -7.304   2.894 130.575  0.00  0.00    +0.000 C 
ATOM     12  C   UNL     1      -7.874   4.066 130.967  0.00  0.00    +0.000 C 
ATOM     13  C   UNL     1      -9.125   3.091 131.612  0.00  0.00    +0.000 C 
ATOM     14  C   UNL     1      -8.596   1.267 130.935  0.00  0.00    +0.000 C 
ATOM     15  C   UNL     1      -7.222   0.866 130.299  0.00  0.00    +0.000 C 
ATOM     16  C   UNL     1      -6.070  -0.249 129.633  0.00  0.00    +0.000 C 
ATOM     17  C   UNL     1      -5.473   0.078 128.189  0.00  0.00    +0.000 C 
ATOM     18  C   UNL     1      -5.124   1.542 128.025  0.00  0.00    +0.000 C 
ENDROOT
BRANCH   4  19
ATOM     19  C   UNL     1      -3.003   3.233 126.792  0.00  0.00    +0.000 C 
ATOM     20  C   UNL     1      -1.860   3.044 126.594  0.00  0.00    +0.000 C 
ENDBRANCH   4  19
BRANCH   4  21
ATOM     21  O   UNL     1      -4.198   5.290 127.235  0.00  0.00    +0.000 OA
BRANCH  21  22
ATOM     22  C   UNL     1      -3.729   6.178 128.227  0.00  0.00    +0.000 C 
ATOM     23  C   UNL     1      -2.281   6.426 128.240  0.00  0.00    +0.000 C 
ATOM     24  O   UNL     1      -4.446   6.830 128.982  0.00  0.00    +0.000 OA
ENDBRANCH  21  22
ENDBRANCH   4  21
BRANCH  13  25
ATOM     25  O   UNL     1      -9.382   4.842 131.393  0.00  0.00    +0.000 OA
BRANCH  25  26
ATOM     26  C   UNL     1      -9.992   6.053 131.595  0.00  0.00    +0.000 C 
ATOM     27  C   UNL     1     -10.026   6.887 130.385  0.00  0.00    +0.000 C 
ATOM     28  O   UNL     1     -10.442   6.485 132.660  0.00  0.00    +0.000 OA
ENDBRANCH  25  26
ENDBRANCH  13  25
TORSDOF 5
ENDMDL
MODEL 8
REMARK VINA RESULT:      -8.1      5.044      8.065
REMARK  Name = Ethynodiol diacetate
REMARK  8 active torsions:
REMARK  status: ('A' for Active; 'I' for Inactive)
REMARK    1  A    between atoms: C_5  and  O_6
REMARK    2  A    between atoms: C_5  and  C_10
REMARK    3  A    between atoms: O_6  and  C_7
REMARK    4  A    between atoms: C_7  and  C_8
REMARK    5  A    between atoms: C_12  and  C_13
REMARK    6  A    between atoms: C_22  and  O_23
REMARK    7  A    between atoms: O_23  and  C_24
REMARK    8  A    between atoms: C_24  and  C_25
REMARK                            x       y       z     vdW  Elec       q    Type
REMARK                         _______ _______ _______ _____ _____    ______ ____
ROOT
ATOM      1  C   UNL     1      -3.982   2.379 129.083  0.00  0.00    +0.000 C 
ATOM      2  C   UNL     1      -4.366   1.260 129.866  0.00  0.00    +0.000 C 
ATOM      3  C   UNL     1      -5.503   2.076 129.335  0.00  0.00    +0.000 C 
ATOM      4  C   UNL     1      -5.032   3.275 127.695  0.00  0.00    +0.000 C 
ATOM      5  C   UNL     1      -5.345   1.991 127.878  0.00  0.00    +0.000 C 
ATOM      6  C   UNL     1      -5.216   0.694 127.247  0.00  0.00    +0.000 C 
ATOM      7  C   UNL     1      -7.030   2.757 128.050  0.00  0.00    +0.000 C 
ATOM      8  C   UNL     1      -6.851   4.120 128.858  0.00  0.00    +0.000 C 
ATOM      9  C   UNL     1      -5.771   4.289 130.042  0.00  0.00    +0.000 C 
ATOM     10  C   UNL     1      -5.842   5.613 130.648  0.00  0.00    +0.000 C 
ATOM     11  C   UNL     1      -7.203   5.821 130.762  0.00  0.00    +0.000 C 
ATOM     12  C   UNL     1      -8.462   6.096 130.324  0.00  0.00    +0.000 C 
ATOM     13  C   UNL     1      -8.849   6.312 131.977  0.00  0.00    +0.000 C 
ATOM     14  C   UNL     1      -7.140   5.718 132.867  0.00  0.00    +0.000 C 
ATOM     15  C   UNL     1      -5.758   5.475 132.173  0.00  0.00    +0.000 C 
ATOM     16  C   UNL     1      -4.062   5.104 132.146  0.00  0.00    +0.000 C 
ATOM     17  C   UNL     1      -3.582   3.906 131.208  0.00  0.00    +0.000 C 
ATOM     18  C   UNL     1      -4.261   3.922 129.854  0.00  0.00    +0.000 C 
ENDROOT
BRANCH   4  19
ATOM     19  C   UNL     1      -3.602   3.425 126.991  0.00  0.00    +0.000 C 
ATOM     20  C   UNL     1      -2.599   3.606 126.405  0.00  0.00    +0.000 C 
ENDBRANCH   4  19
BRANCH   4  21
ATOM     21  O   UNL     1      -5.909   3.618 126.288  0.00  0.00    +0.000 OA
BRANCH  21  22
ATOM     22  C   UNL     1      -5.954   4.608 125.283  0.00  0.00    +0.000 C 
ATOM     23  C   UNL     1      -5.618   4.165 123.923  0.00  0.00    +0.000 C 
ATOM     24  O   UNL     1      -6.357   5.757 125.445  0.00  0.00    +0.000 OA
ENDBRANCH  21  22
ENDBRANCH   4  21
BRANCH  13  25
ATOM     25  O   UNL     1     -10.151   6.119 130.773  0.00  0.00    +0.000 OA
BRANCH  25  26
ATOM     26  C   UNL     1     -11.429   6.208 130.285  0.00  0.00    +0.000 C 
ATOM     27  C   UNL     1     -12.343   6.916 131.192  0.00  0.00    +0.000 C 
ATOM     28  O   UNL     1     -11.850   5.727 129.228  0.00  0.00    +0.000 OA
ENDBRANCH  25  26
ENDBRANCH  13  25
TORSDOF 5
ENDMDL
MODEL 9
REMARK VINA RESULT:      -8.0      1.859      6.139
REMARK  Name = Ethynodiol diacetate
REMARK  8 active torsions:
REMARK  status: ('A' for Active; 'I' for Inactive)
REMARK    1  A    between atoms: C_5  and  O_6
REMARK    2  A    between atoms: C_5  and  C_10
REMARK    3  A    between atoms: O_6  and  C_7
REMARK    4  A    between atoms: C_7  and  C_8
REMARK    5  A    between atoms: C_12  and  C_13
REMARK    6  A    between atoms: C_22  and  O_23
REMARK    7  A    between atoms: O_23  and  C_24
REMARK    8  A    between atoms: C_24  and  C_25
REMARK                            x       y       z     vdW  Elec       q    Type
REMARK                         _______ _______ _______ _____ _____    ______ ____
ROOT
ATOM      1  C   UNL     1      -8.842   1.140 123.964  0.00  0.00    +0.000 C 
ATOM      2  C   UNL     1     -10.213   1.316 124.279  0.00  0.00    +0.000 C 
ATOM      3  C   UNL     1      -9.307   1.188 125.464  0.00  0.00    +0.000 C 
ATOM      4  C   UNL     1      -7.298   1.593 125.080  0.00  0.00    +0.000 C 
ATOM      5  C   UNL     1      -8.387   2.323 125.327  0.00  0.00    +0.000 C 
ATOM      6  C   UNL     1      -8.919   3.658 125.144  0.00  0.00    +0.000 C 
ATOM      7  C   UNL     1      -8.016   1.718 127.044  0.00  0.00    +0.000 C 
ATOM      8  C   UNL     1      -7.538   0.202 126.920  0.00  0.00    +0.000 C 
ATOM      9  C   UNL     1      -8.154  -0.813 125.830  0.00  0.00    +0.000 C 
ATOM     10  C   UNL     1      -7.582  -2.148 125.957  0.00  0.00    +0.000 C 
ATOM     11  C   UNL     1      -7.570  -2.343 127.324  0.00  0.00    +0.000 C 
ATOM     12  C   UNL     1      -7.133  -2.176 128.602  0.00  0.00    +0.000 C 
ATOM     13  C   UNL     1      -8.099  -3.539 128.973  0.00  0.00    +0.000 C 
ATOM     14  C   UNL     1      -9.052  -3.839 127.222  0.00  0.00    +0.000 C 
ATOM     15  C   UNL     1      -8.702  -3.190 125.841  0.00  0.00    +0.000 C 
ATOM     16  C   UNL     1      -8.877  -2.957 124.130  0.00  0.00    +0.000 C 
ATOM     17  C   UNL     1      -9.113  -1.468 123.605  0.00  0.00    +0.000 C 
ATOM     18  C   UNL     1      -8.227  -0.460 124.307  0.00  0.00    +0.000 C 
ENDROOT
BRANCH   4  19
ATOM     19  C   UNL     1      -6.648   1.985 123.671  0.00  0.00    +0.000 C 
ATOM     20  C   UNL     1      -6.273   2.300 122.603  0.00  0.00    +0.000 C 
ENDBRANCH   4  19
BRANCH   4  21
ATOM     21  O   UNL     1      -6.144   2.427 125.996  0.00  0.00    +0.000 OA
BRANCH  21  22
ATOM     22  C   UNL     1      -4.740   2.558 126.065  0.00  0.00    +0.000 C 
ATOM     23  C   UNL     1      -4.210   3.921 125.922  0.00  0.00    +0.000 C 
ATOM     24  O   UNL     1      -3.962   1.650 126.346  0.00  0.00    +0.000 OA
ENDBRANCH  21  22
ENDBRANCH   4  21
BRANCH  13  25
ATOM     25  O   UNL     1      -7.497  -2.489 130.283  0.00  0.00    +0.000 OA
BRANCH  25  26
ATOM     26  C   UNL     1      -7.416  -2.004 131.563  0.00  0.00    +0.000 C 
ATOM     27  C   UNL     1      -6.729  -2.922 132.482  0.00  0.00    +0.000 C 
ATOM     28  O   UNL     1      -7.888  -0.943 131.981  0.00  0.00    +0.000 OA
ENDBRANCH  25  26
ENDBRANCH  13  25
TORSDOF 5
ENDMDL
