MODEL 1
REMARK VINA RESULT:      -7.3      0.000      0.000
REMARK  Name = Ethylhexyl methoxycrylene
REMARK  15 active torsions:
REMARK  status: ('A' for Active; 'I' for Inactive)
REMARK    1  A    between atoms: C_1  and  C_2
REMARK    2  A    between atoms: C_2  and  C_3
REMARK    3  A    between atoms: C_3  and  C_4
REMARK    4  A    between atoms: C_4  and  C_5
REMARK    5  A    between atoms: C_5  and  C_6
REMARK    6  A    between atoms: C_5  and  C_8
REMARK    7  A    between atoms: C_6  and  C_7
REMARK    8  A    between atoms: C_8  and  O_9
REMARK    9  A    between atoms: O_9  and  C_10
REMARK   10  A    between atoms: C_10  and  C_12
REMARK   11  A    between atoms: C_12  and  C_13
REMARK   12  A    between atoms: C_15  and  C_16
REMARK   13  A    between atoms: C_15  and  C_22
REMARK   14  A    between atoms: C_25  and  O_26
REMARK   15  A    between atoms: O_26  and  C_27
REMARK                            x       y       z     vdW  Elec       q    Type
REMARK                         _______ _______ _______ _____ _____    ______ ____
ROOT
ATOM      1  C   UNL     1      -8.197   2.406 124.910  0.00  0.00    +0.000 C 
ATOM      2  C   UNL     1      -7.967   1.923 123.645  0.00  0.00    +0.000 C 
ENDROOT
BRANCH   2   3
ATOM      3  C   UNL     1      -8.002   0.444 123.367  0.00  0.00    +0.000 A 
ATOM      4  C   UNL     1      -9.209  -0.262 123.231  0.00  0.00    +0.000 A 
ATOM      5  C   UNL     1      -9.196  -1.655 123.087  0.00  0.00    +0.000 A 
ATOM      6  C   UNL     1      -7.988  -2.331 122.920  0.00  0.00    +0.000 A 
ATOM      7  C   UNL     1      -6.791  -1.641 123.032  0.00  0.00    +0.000 A 
ATOM      8  C   UNL     1      -6.806  -0.285 123.339  0.00  0.00    +0.000 A 
ENDBRANCH   2   3
BRANCH   2   9
ATOM      9  C   UNL     1      -7.676   2.839 122.473  0.00  0.00    +0.000 A 
ATOM     10  C   UNL     1      -8.711   3.252 121.613  0.00  0.00    +0.000 A 
ATOM     11  C   UNL     1      -8.427   3.881 120.391  0.00  0.00    +0.000 A 
ATOM     12  C   UNL     1      -7.118   4.240 120.065  0.00  0.00    +0.000 A 
ATOM     13  C   UNL     1      -6.092   3.864 120.924  0.00  0.00    +0.000 A 
ATOM     14  C   UNL     1      -6.366   3.151 122.094  0.00  0.00    +0.000 A 
BRANCH  12  15
ATOM     15  O   UNL     1      -6.950   4.956 118.911  0.00  0.00    +0.000 OA
ATOM     16  C   UNL     1      -5.742   5.711 118.817  0.00  0.00    +0.000 C 
ENDBRANCH  12  15
ENDBRANCH   2   9
BRANCH   1  17
ATOM     17  C   UNL     1      -8.371   1.504 126.110  0.00  0.00    +0.000 C 
ATOM     18  O   UNL     1      -9.442   1.204 126.617  0.00  0.00    +0.000 OA
BRANCH  17  19
ATOM     19  O   UNL     1      -7.204   1.023 126.621  0.00  0.00    +0.000 OA
BRANCH  19  20
ATOM     20  C   UNL     1      -7.420  -0.136 127.468  0.00  0.00    +0.000 C 
BRANCH  20  21
ATOM     21  C   UNL     1      -7.254  -1.428 126.651  0.00  0.00    +0.000 C 
BRANCH  21  22
ATOM     22  C   UNL     1      -8.607  -2.182 126.647  0.00  0.00    +0.000 C 
ATOM     23  C   UNL     1      -8.546  -3.666 126.324  0.00  0.00    +0.000 C 
ENDBRANCH  21  22
BRANCH  21  24
ATOM     24  C   UNL     1      -6.083  -2.257 127.235  0.00  0.00    +0.000 C 
BRANCH  24  25
ATOM     25  C   UNL     1      -5.891  -2.034 128.726  0.00  0.00    +0.000 C 
BRANCH  25  27
ATOM     26  C   UNL     1      -7.597  -3.253 130.000  0.00  0.00    +0.000 C 
ATOM     27  C   UNL     1      -6.121  -3.231 129.612  0.00  0.00    +0.000 C 
ENDBRANCH  25  27
ENDBRANCH  24  25
ENDBRANCH  21  24
ENDBRANCH  20  21
ENDBRANCH  19  20
ENDBRANCH  17  19
ENDBRANCH   1  17
BRANCH   1  28
ATOM     28  C   UNL     1      -8.257   3.819 125.165  0.00  0.00    +0.000 C 
ATOM     29  N   UNL     1      -8.337   4.937 125.444  0.00  0.00    +0.000 NA
ENDBRANCH   1  28
TORSDOF 12
ENDMDL
MODEL 2
REMARK VINA RESULT:      -7.1      0.993      1.998
REMARK  Name = Ethylhexyl methoxycrylene
REMARK  15 active torsions:
REMARK  status: ('A' for Active; 'I' for Inactive)
REMARK    1  A    between atoms: C_1  and  C_2
REMARK    2  A    between atoms: C_2  and  C_3
REMARK    3  A    between atoms: C_3  and  C_4
REMARK    4  A    between atoms: C_4  and  C_5
REMARK    5  A    between atoms: C_5  and  C_6
REMARK    6  A    between atoms: C_5  and  C_8
REMARK    7  A    between atoms: C_6  and  C_7
REMARK    8  A    between atoms: C_8  and  O_9
REMARK    9  A    between atoms: O_9  and  C_10
REMARK   10  A    between atoms: C_10  and  C_12
REMARK   11  A    between atoms: C_12  and  C_13
REMARK   12  A    between atoms: C_15  and  C_16
REMARK   13  A    between atoms: C_15  and  C_22
REMARK   14  A    between atoms: C_25  and  O_26
REMARK   15  A    between atoms: O_26  and  C_27
REMARK                            x       y       z     vdW  Elec       q    Type
REMARK                         _______ _______ _______ _____ _____    ______ ____
ROOT
ATOM      1  C   UNL     1      -8.019   2.436 124.905  0.00  0.00    +0.000 C 
ATOM      2  C   UNL     1      -7.885   1.949 123.628  0.00  0.00    +0.000 C 
ENDROOT
BRANCH   2   3
ATOM      3  C   UNL     1      -8.006   0.474 123.350  0.00  0.00    +0.000 A 
ATOM      4  C   UNL     1      -6.890  -0.323 123.045  0.00  0.00    +0.000 A 
ATOM      5  C   UNL     1      -7.063  -1.664 122.680  0.00  0.00    +0.000 A 
ATOM      6  C   UNL     1      -8.321  -2.259 122.770  0.00  0.00    +0.000 A 
ATOM      7  C   UNL     1      -9.427  -1.486 123.090  0.00  0.00    +0.000 A 
ATOM      8  C   UNL     1      -9.275  -0.119 123.290  0.00  0.00    +0.000 A 
ENDBRANCH   2   3
BRANCH   2   9
ATOM      9  C   UNL     1      -7.620   2.854 122.442  0.00  0.00    +0.000 A 
ATOM     10  C   UNL     1      -8.682   3.310 121.638  0.00  0.00    +0.000 A 
ATOM     11  C   UNL     1      -8.438   3.930 120.402  0.00  0.00    +0.000 A 
ATOM     12  C   UNL     1      -7.136   4.237 120.008  0.00  0.00    +0.000 A 
ATOM     13  C   UNL     1      -6.081   3.817 120.811  0.00  0.00    +0.000 A 
ATOM     14  C   UNL     1      -6.321   3.114 121.993  0.00  0.00    +0.000 A 
BRANCH  12  15
ATOM     15  O   UNL     1      -7.000   4.947 118.846  0.00  0.00    +0.000 OA
ATOM     16  C   UNL     1      -5.817   5.738 118.735  0.00  0.00    +0.000 C 
ENDBRANCH  12  15
ENDBRANCH   2   9
BRANCH   1  17
ATOM     17  C   UNL     1      -8.164   1.539 126.112  0.00  0.00    +0.000 C 
ATOM     18  O   UNL     1      -9.194   1.379 126.751  0.00  0.00    +0.000 OA
BRANCH  17  19
ATOM     19  O   UNL     1      -7.022   0.887 126.465  0.00  0.00    +0.000 OA
BRANCH  19  20
ATOM     20  C   UNL     1      -7.288  -0.234 127.346  0.00  0.00    +0.000 C 
BRANCH  20  21
ATOM     21  C   UNL     1      -7.281  -1.549 126.549  0.00  0.00    +0.000 C 
BRANCH  21  22
ATOM     22  C   UNL     1      -8.373  -2.481 127.132  0.00  0.00    +0.000 C 
ATOM     23  C   UNL     1      -9.377  -3.039 126.137  0.00  0.00    +0.000 C 
ENDBRANCH  21  22
BRANCH  21  24
ATOM     24  C   UNL     1      -5.859  -2.161 126.583  0.00  0.00    +0.000 C 
BRANCH  24  25
ATOM     25  C   UNL     1      -5.312  -2.454 125.195  0.00  0.00    +0.000 C 
BRANCH  25  27
ATOM     26  C   UNL     1      -4.388  -3.965 123.496  0.00  0.00    +0.000 C 
ATOM     27  C   UNL     1      -4.867  -3.872 124.942  0.00  0.00    +0.000 C 
ENDBRANCH  25  27
ENDBRANCH  24  25
ENDBRANCH  21  24
ENDBRANCH  20  21
ENDBRANCH  19  20
ENDBRANCH  17  19
ENDBRANCH   1  17
BRANCH   1  28
ATOM     28  C   UNL     1      -7.997   3.850 125.164  0.00  0.00    +0.000 C 
ATOM     29  N   UNL     1      -8.063   4.984 125.375  0.00  0.00    +0.000 NA
ENDBRANCH   1  28
TORSDOF 12
ENDMDL
MODEL 3
REMARK VINA RESULT:      -7.0      3.439      5.430
REMARK  Name = Ethylhexyl methoxycrylene
REMARK  15 active torsions:
REMARK  status: ('A' for Active; 'I' for Inactive)
REMARK    1  A    between atoms: C_1  and  C_2
REMARK    2  A    between atoms: C_2  and  C_3
REMARK    3  A    between atoms: C_3  and  C_4
REMARK    4  A    between atoms: C_4  and  C_5
REMARK    5  A    between atoms: C_5  and  C_6
REMARK    6  A    between atoms: C_5  and  C_8
REMARK    7  A    between atoms: C_6  and  C_7
REMARK    8  A    between atoms: C_8  and  O_9
REMARK    9  A    between atoms: O_9  and  C_10
REMARK   10  A    between atoms: C_10  and  C_12
REMARK   11  A    between atoms: C_12  and  C_13
REMARK   12  A    between atoms: C_15  and  C_16
REMARK   13  A    between atoms: C_15  and  C_22
REMARK   14  A    between atoms: C_25  and  O_26
REMARK   15  A    between atoms: O_26  and  C_27
REMARK                            x       y       z     vdW  Elec       q    Type
REMARK                         _______ _______ _______ _____ _____    ______ ____
ROOT
ATOM      1  C   UNL     1      -6.355   2.424 124.467  0.00  0.00    +0.000 C 
ATOM      2  C   UNL     1      -5.863   1.972 125.667  0.00  0.00    +0.000 C 
ENDROOT
BRANCH   2   3
ATOM      3  C   UNL     1      -6.293   0.641 126.223  0.00  0.00    +0.000 A 
ATOM      4  C   UNL     1      -7.578   0.432 126.753  0.00  0.00    +0.000 A 
ATOM      5  C   UNL     1      -7.895  -0.788 127.365  0.00  0.00    +0.000 A 
ATOM      6  C   UNL     1      -6.998  -1.854 127.312  0.00  0.00    +0.000 A 
ATOM      7  C   UNL     1      -5.735  -1.664 126.773  0.00  0.00    +0.000 A 
ATOM      8  C   UNL     1      -5.365  -0.405 126.316  0.00  0.00    +0.000 A 
ENDBRANCH   2   3
BRANCH   2   9
ATOM      9  C   UNL     1      -4.869   2.772 126.484  0.00  0.00    +0.000 A 
ATOM     10  C   UNL     1      -5.309   3.787 127.354  0.00  0.00    +0.000 A 
ATOM     11  C   UNL     1      -4.403   4.699 127.917  0.00  0.00    +0.000 A 
ATOM     12  C   UNL     1      -3.029   4.534 127.742  0.00  0.00    +0.000 A 
ATOM     13  C   UNL     1      -2.582   3.514 126.908  0.00  0.00    +0.000 A 
ATOM     14  C   UNL     1      -3.490   2.667 126.269  0.00  0.00    +0.000 A 
BRANCH  12  15
ATOM     15  O   UNL     1      -2.217   5.398 128.425  0.00  0.00    +0.000 OA
ATOM     16  C   UNL     1      -2.349   6.777 128.084  0.00  0.00    +0.000 C 
ENDBRANCH  12  15
ENDBRANCH   2   9
BRANCH   1  17
ATOM     17  C   UNL     1      -7.433   1.696 123.699  0.00  0.00    +0.000 C 
ATOM     18  O   UNL     1      -8.562   2.119 123.497  0.00  0.00    +0.000 OA
BRANCH  17  19
ATOM     19  O   UNL     1      -7.056   0.477 123.224  0.00  0.00    +0.000 OA
BRANCH  19  20
ATOM     20  C   UNL     1      -8.185  -0.424 123.082  0.00  0.00    +0.000 C 
BRANCH  20  21
ATOM     21  C   UNL     1      -7.693  -1.867 122.889  0.00  0.00    +0.000 C 
BRANCH  21  22
ATOM     22  C   UNL     1      -8.411  -2.772 123.921  0.00  0.00    +0.000 C 
ATOM     23  C   UNL     1      -9.714  -3.407 123.462  0.00  0.00    +0.000 C 
ENDBRANCH  21  22
BRANCH  21  24
ATOM     24  C   UNL     1      -6.148  -1.902 123.001  0.00  0.00    +0.000 C 
BRANCH  24  25
ATOM     25  C   UNL     1      -5.640  -3.127 123.744  0.00  0.00    +0.000 C 
BRANCH  25  27
ATOM     26  C   UNL     1      -4.131  -5.028 123.385  0.00  0.00    +0.000 C 
ATOM     27  C   UNL     1      -4.204  -3.507 123.492  0.00  0.00    +0.000 C 
ENDBRANCH  25  27
ENDBRANCH  24  25
ENDBRANCH  21  24
ENDBRANCH  20  21
ENDBRANCH  19  20
ENDBRANCH  17  19
ENDBRANCH   1  17
BRANCH   1  28
ATOM     28  C   UNL     1      -5.879   3.649 123.886  0.00  0.00    +0.000 C 
ATOM     29  N   UNL     1      -5.568   4.670 123.445  0.00  0.00    +0.000 NA
ENDBRANCH   1  28
TORSDOF 12
ENDMDL
MODEL 4
REMARK VINA RESULT:      -6.9      1.909      3.895
REMARK  Name = Ethylhexyl methoxycrylene
REMARK  15 active torsions:
REMARK  status: ('A' for Active; 'I' for Inactive)
REMARK    1  A    between atoms: C_1  and  C_2
REMARK    2  A    between atoms: C_2  and  C_3
REMARK    3  A    between atoms: C_3  and  C_4
REMARK    4  A    between atoms: C_4  and  C_5
REMARK    5  A    between atoms: C_5  and  C_6
REMARK    6  A    between atoms: C_5  and  C_8
REMARK    7  A    between atoms: C_6  and  C_7
REMARK    8  A    between atoms: C_8  and  O_9
REMARK    9  A    between atoms: O_9  and  C_10
REMARK   10  A    between atoms: C_10  and  C_12
REMARK   11  A    between atoms: C_12  and  C_13
REMARK   12  A    between atoms: C_15  and  C_16
REMARK   13  A    between atoms: C_15  and  C_22
REMARK   14  A    between atoms: C_25  and  O_26
REMARK   15  A    between atoms: O_26  and  C_27
REMARK                            x       y       z     vdW  Elec       q    Type
REMARK                         _______ _______ _______ _____ _____    ______ ____
ROOT
ATOM      1  C   UNL     1      -8.698   1.219 124.170  0.00  0.00    +0.000 C 
ATOM      2  C   UNL     1      -7.698   2.095 123.824  0.00  0.00    +0.000 C 
ENDROOT
BRANCH   2   3
ATOM      3  C   UNL     1      -6.657   2.511 124.829  0.00  0.00    +0.000 A 
ATOM      4  C   UNL     1      -6.530   3.840 125.268  0.00  0.00    +0.000 A 
ATOM      5  C   UNL     1      -5.475   4.203 126.114  0.00  0.00    +0.000 A 
ATOM      6  C   UNL     1      -4.640   3.225 126.652  0.00  0.00    +0.000 A 
ATOM      7  C   UNL     1      -4.768   1.907 126.242  0.00  0.00    +0.000 A 
ATOM      8  C   UNL     1      -5.712   1.577 125.275  0.00  0.00    +0.000 A 
ENDBRANCH   2   3
BRANCH   2   9
ATOM      9  C   UNL     1      -7.582   2.677 122.430  0.00  0.00    +0.000 A 
ATOM     10  C   UNL     1      -6.322   2.845 121.826  0.00  0.00    +0.000 A 
ATOM     11  C   UNL     1      -6.176   3.609 120.657  0.00  0.00    +0.000 A 
ATOM     12  C   UNL     1      -7.297   4.101 119.988  0.00  0.00    +0.000 A 
ATOM     13  C   UNL     1      -8.550   3.915 120.561  0.00  0.00    +0.000 A 
ATOM     14  C   UNL     1      -8.685   3.238 121.776  0.00  0.00    +0.000 A 
BRANCH  12  15
ATOM     15  O   UNL     1      -7.068   4.731 118.795  0.00  0.00    +0.000 OA
ATOM     16  C   UNL     1      -5.911   5.565 118.743  0.00  0.00    +0.000 C 
ENDBRANCH  12  15
ENDBRANCH   2   9
BRANCH   1  17
ATOM     17  C   UNL     1      -8.897   0.723 125.583  0.00  0.00    +0.000 C 
ATOM     18  O   UNL     1      -9.468   1.337 126.472  0.00  0.00    +0.000 OA
BRANCH  17  19
ATOM     19  O   UNL     1      -8.374  -0.512 125.820  0.00  0.00    +0.000 OA
BRANCH  19  20
ATOM     20  C   UNL     1      -9.406  -1.524 125.944  0.00  0.00    +0.000 C 
BRANCH  20  21
ATOM     21  C   UNL     1      -8.784  -2.928 125.881  0.00  0.00    +0.000 C 
BRANCH  21  22
ATOM     22  C   UNL     1      -8.186  -3.262 127.270  0.00  0.00    +0.000 C 
ATOM     23  C   UNL     1      -9.078  -4.059 128.209  0.00  0.00    +0.000 C 
ENDBRANCH  21  22
BRANCH  21  24
ATOM     24  C   UNL     1      -7.748  -2.979 124.730  0.00  0.00    +0.000 C 
BRANCH  24  25
ATOM     25  C   UNL     1      -8.386  -2.836 123.358  0.00  0.00    +0.000 C 
BRANCH  25  27
ATOM     26  C   UNL     1      -6.397  -1.434 123.045  0.00  0.00    +0.000 C 
ATOM     27  C   UNL     1      -7.599  -2.054 122.338  0.00  0.00    +0.000 C 
ENDBRANCH  25  27
ENDBRANCH  24  25
ENDBRANCH  21  24
ENDBRANCH  20  21
ENDBRANCH  19  20
ENDBRANCH  17  19
ENDBRANCH   1  17
BRANCH   1  28
ATOM     28  C   UNL     1      -9.639   0.747 123.192  0.00  0.00    +0.000 C 
ATOM     29  N   UNL     1     -10.387   0.290 122.439  0.00  0.00    +0.000 NA
ENDBRANCH   1  28
TORSDOF 12
ENDMDL
MODEL 5
REMARK VINA RESULT:      -6.7      2.132      7.635
REMARK  Name = Ethylhexyl methoxycrylene
REMARK  15 active torsions:
REMARK  status: ('A' for Active; 'I' for Inactive)
REMARK    1  A    between atoms: C_1  and  C_2
REMARK    2  A    between atoms: C_2  and  C_3
REMARK    3  A    between atoms: C_3  and  C_4
REMARK    4  A    between atoms: C_4  and  C_5
REMARK    5  A    between atoms: C_5  and  C_6
REMARK    6  A    between atoms: C_5  and  C_8
REMARK    7  A    between atoms: C_6  and  C_7
REMARK    8  A    between atoms: C_8  and  O_9
REMARK    9  A    between atoms: O_9  and  C_10
REMARK   10  A    between atoms: C_10  and  C_12
REMARK   11  A    between atoms: C_12  and  C_13
REMARK   12  A    between atoms: C_15  and  C_16
REMARK   13  A    between atoms: C_15  and  C_22
REMARK   14  A    between atoms: C_25  and  O_26
REMARK   15  A    between atoms: O_26  and  C_27
REMARK                            x       y       z     vdW  Elec       q    Type
REMARK                         _______ _______ _______ _____ _____    ______ ____
ROOT
ATOM      1  C   UNL     1      -8.496   0.388 126.829  0.00  0.00    +0.000 C 
ATOM      2  C   UNL     1      -7.991  -0.872 126.618  0.00  0.00    +0.000 C 
ENDROOT
BRANCH   2   3
ATOM      3  C   UNL     1      -8.205  -1.578 125.306  0.00  0.00    +0.000 A 
ATOM      4  C   UNL     1      -9.167  -2.592 125.152  0.00  0.00    +0.000 A 
ATOM      5  C   UNL     1      -9.252  -3.301 123.947  0.00  0.00    +0.000 A 
ATOM      6  C   UNL     1      -8.497  -2.904 122.844  0.00  0.00    +0.000 A 
ATOM      7  C   UNL     1      -7.560  -1.892 122.980  0.00  0.00    +0.000 A 
ATOM      8  C   UNL     1      -7.361  -1.301 124.222  0.00  0.00    +0.000 A 
ENDBRANCH   2   3
BRANCH   2   9
ATOM      9  C   UNL     1      -7.193  -1.609 127.676  0.00  0.00    +0.000 A 
ATOM     10  C   UNL     1      -5.787  -1.635 127.623  0.00  0.00    +0.000 A 
ATOM     11  C   UNL     1      -5.050  -2.513 128.434  0.00  0.00    +0.000 A 
ATOM     12  C   UNL     1      -5.686  -3.278 129.412  0.00  0.00    +0.000 A 
ATOM     13  C   UNL     1      -7.073  -3.235 129.492  0.00  0.00    +0.000 A 
ATOM     14  C   UNL     1      -7.814  -2.435 128.619  0.00  0.00    +0.000 A 
BRANCH  12  15
ATOM     15  O   UNL     1      -4.877  -4.014 130.234  0.00  0.00    +0.000 OA
ATOM     16  C   UNL     1      -5.498  -5.117 130.894  0.00  0.00    +0.000 C 
ENDBRANCH  12  15
ENDBRANCH   2   9
BRANCH   1  17
ATOM     17  C   UNL     1      -9.391   1.087 125.832  0.00  0.00    +0.000 C 
ATOM     18  O   UNL     1     -10.459   0.657 125.423  0.00  0.00    +0.000 OA
BRANCH  17  19
ATOM     19  O   UNL     1      -8.911   2.283 125.393  0.00  0.00    +0.000 OA
BRANCH  19  20
ATOM     20  C   UNL     1      -8.637   2.267 123.968  0.00  0.00    +0.000 C 
BRANCH  20  21
ATOM     21  C   UNL     1      -7.120   2.269 123.718  0.00  0.00    +0.000 C 
BRANCH  21  22
ATOM     22  C   UNL     1      -6.432   3.015 124.889  0.00  0.00    +0.000 C 
ATOM     23  C   UNL     1      -5.488   2.188 125.746  0.00  0.00    +0.000 C 
ENDBRANCH  21  22
BRANCH  21  24
ATOM     24  C   UNL     1      -6.830   2.890 122.329  0.00  0.00    +0.000 C 
BRANCH  24  25
ATOM     25  C   UNL     1      -5.697   3.902 122.363  0.00  0.00    +0.000 C 
BRANCH  25  27
ATOM     26  C   UNL     1      -6.379   4.305 120.041  0.00  0.00    +0.000 C 
ATOM     27  C   UNL     1      -5.218   4.408 121.027  0.00  0.00    +0.000 C 
ENDBRANCH  25  27
ENDBRANCH  24  25
ENDBRANCH  21  24
ENDBRANCH  20  21
ENDBRANCH  19  20
ENDBRANCH  17  19
ENDBRANCH   1  17
BRANCH   1  28
ATOM     28  C   UNL     1      -8.216   1.104 128.043  0.00  0.00    +0.000 C 
ATOM     29  N   UNL     1      -7.918   1.703 128.985  0.00  0.00    +0.000 NA
ENDBRANCH   1  28
TORSDOF 12
ENDMDL
MODEL 6
REMARK VINA RESULT:      -6.5      2.317      7.132
REMARK  Name = Ethylhexyl methoxycrylene
REMARK  15 active torsions:
REMARK  status: ('A' for Active; 'I' for Inactive)
REMARK    1  A    between atoms: C_1  and  C_2
REMARK    2  A    between atoms: C_2  and  C_3
REMARK    3  A    between atoms: C_3  and  C_4
REMARK    4  A    between atoms: C_4  and  C_5
REMARK    5  A    between atoms: C_5  and  C_6
REMARK    6  A    between atoms: C_5  and  C_8
REMARK    7  A    between atoms: C_6  and  C_7
REMARK    8  A    between atoms: C_8  and  O_9
REMARK    9  A    between atoms: O_9  and  C_10
REMARK   10  A    between atoms: C_10  and  C_12
REMARK   11  A    between atoms: C_12  and  C_13
REMARK   12  A    between atoms: C_15  and  C_16
REMARK   13  A    between atoms: C_15  and  C_22
REMARK   14  A    between atoms: C_25  and  O_26
REMARK   15  A    between atoms: O_26  and  C_27
REMARK                            x       y       z     vdW  Elec       q    Type
REMARK                         _______ _______ _______ _____ _____    ______ ____
ROOT
ATOM      1  C   UNL     1      -8.551   0.439 126.739  0.00  0.00    +0.000 C 
ATOM      2  C   UNL     1      -8.056  -0.828 126.548  0.00  0.00    +0.000 C 
ENDROOT
BRANCH   2   3
ATOM      3  C   UNL     1      -8.318  -1.572 125.267  0.00  0.00    +0.000 A 
ATOM      4  C   UNL     1      -9.229  -2.640 125.195  0.00  0.00    +0.000 A 
ATOM      5  C   UNL     1      -9.356  -3.377 124.011  0.00  0.00    +0.000 A 
ATOM      6  C   UNL     1      -8.700  -2.962 122.853  0.00  0.00    +0.000 A 
ATOM      7  C   UNL     1      -7.813  -1.898 122.907  0.00  0.00    +0.000 A 
ATOM      8  C   UNL     1      -7.565  -1.271 124.123  0.00  0.00    +0.000 A 
ENDBRANCH   2   3
BRANCH   2   9
ATOM      9  C   UNL     1      -7.223  -1.535 127.599  0.00  0.00    +0.000 A 
ATOM     10  C   UNL     1      -5.820  -1.577 127.491  0.00  0.00    +0.000 A 
ATOM     11  C   UNL     1      -5.058  -2.433 128.302  0.00  0.00    +0.000 A 
ATOM     12  C   UNL     1      -5.661  -3.158 129.331  0.00  0.00    +0.000 A 
ATOM     13  C   UNL     1      -7.044  -3.099 129.464  0.00  0.00    +0.000 A 
ATOM     14  C   UNL     1      -7.812  -2.323 128.594  0.00  0.00    +0.000 A 
BRANCH  12  15
ATOM     15  O   UNL     1      -4.826  -3.873 130.145  0.00  0.00    +0.000 OA
ATOM     16  C   UNL     1      -5.427  -4.953 130.859  0.00  0.00    +0.000 C 
ENDBRANCH  12  15
ENDBRANCH   2   9
BRANCH   1  17
ATOM     17  C   UNL     1      -9.479   1.111 125.755  0.00  0.00    +0.000 C 
ATOM     18  O   UNL     1     -10.503   0.619 125.304  0.00  0.00    +0.000 OA
BRANCH  17  19
ATOM     19  O   UNL     1      -9.086   2.359 125.377  0.00  0.00    +0.000 OA
BRANCH  19  20
ATOM     20  C   UNL     1      -8.666   2.398 123.989  0.00  0.00    +0.000 C 
BRANCH  20  21
ATOM     21  C   UNL     1      -7.260   3.011 123.876  0.00  0.00    +0.000 C 
BRANCH  21  22
ATOM     22  C   UNL     1      -6.935   3.218 122.376  0.00  0.00    +0.000 C 
ATOM     23  C   UNL     1      -5.661   3.986 122.067  0.00  0.00    +0.000 C 
ENDBRANCH  21  22
BRANCH  21  24
ATOM     24  C   UNL     1      -6.245   2.103 124.612  0.00  0.00    +0.000 C 
BRANCH  24  25
ATOM     25  C   UNL     1      -5.592   2.793 125.799  0.00  0.00    +0.000 C 
BRANCH  25  27
ATOM     26  C   UNL     1      -3.301   2.854 126.678  0.00  0.00    +0.000 C 
ATOM     27  C   UNL     1      -4.554   1.993 126.544  0.00  0.00    +0.000 C 
ENDBRANCH  25  27
ENDBRANCH  24  25
ENDBRANCH  21  24
ENDBRANCH  20  21
ENDBRANCH  19  20
ENDBRANCH  17  19
ENDBRANCH   1  17
BRANCH   1  28
ATOM     28  C   UNL     1      -8.227   1.190 127.921  0.00  0.00    +0.000 C 
ATOM     29  N   UNL     1      -7.892   1.810 128.837  0.00  0.00    +0.000 NA
ENDBRANCH   1  28
TORSDOF 12
ENDMDL
MODEL 7
REMARK VINA RESULT:      -6.4      2.149      7.883
REMARK  Name = Ethylhexyl methoxycrylene
REMARK  15 active torsions:
REMARK  status: ('A' for Active; 'I' for Inactive)
REMARK    1  A    between atoms: C_1  and  C_2
REMARK    2  A    between atoms: C_2  and  C_3
REMARK    3  A    between atoms: C_3  and  C_4
REMARK    4  A    between atoms: C_4  and  C_5
REMARK    5  A    between atoms: C_5  and  C_6
REMARK    6  A    between atoms: C_5  and  C_8
REMARK    7  A    between atoms: C_6  and  C_7
REMARK    8  A    between atoms: C_8  and  O_9
REMARK    9  A    between atoms: O_9  and  C_10
REMARK   10  A    between atoms: C_10  and  C_12
REMARK   11  A    between atoms: C_12  and  C_13
REMARK   12  A    between atoms: C_15  and  C_16
REMARK   13  A    between atoms: C_15  and  C_22
REMARK   14  A    between atoms: C_25  and  O_26
REMARK   15  A    between atoms: O_26  and  C_27
REMARK                            x       y       z     vdW  Elec       q    Type
REMARK                         _______ _______ _______ _____ _____    ______ ____
ROOT
ATOM      1  C   UNL     1      -8.205  -0.042 127.104  0.00  0.00    +0.000 C 
ATOM      2  C   UNL     1      -7.802  -1.314 126.775  0.00  0.00    +0.000 C 
ENDROOT
BRANCH   2   3
ATOM      3  C   UNL     1      -8.081  -1.882 125.409  0.00  0.00    +0.000 A 
ATOM      4  C   UNL     1      -7.320  -1.527 124.283  0.00  0.00    +0.000 A 
ATOM      5  C   UNL     1      -7.686  -1.989 123.013  0.00  0.00    +0.000 A 
ATOM      6  C   UNL     1      -8.708  -2.928 122.876  0.00  0.00    +0.000 A 
ATOM      7  C   UNL     1      -9.454  -3.300 123.984  0.00  0.00    +0.000 A 
ATOM      8  C   UNL     1      -9.193  -2.713 125.217  0.00  0.00    +0.000 A 
ENDBRANCH   2   3
BRANCH   2   9
ATOM      9  C   UNL     1      -7.059  -2.202 127.753  0.00  0.00    +0.000 A 
ATOM     10  C   UNL     1      -7.761  -2.966 128.703  0.00  0.00    +0.000 A 
ATOM     11  C   UNL     1      -7.091  -3.588 129.769  0.00  0.00    +0.000 A 
ATOM     12  C   UNL     1      -5.697  -3.580 129.831  0.00  0.00    +0.000 A 
ATOM     13  C   UNL     1      -4.993  -2.852 128.879  0.00  0.00    +0.000 A 
ATOM     14  C   UNL     1      -5.665  -2.153 127.874  0.00  0.00    +0.000 A 
BRANCH  12  15
ATOM     15  O   UNL     1      -5.126  -4.311 130.837  0.00  0.00    +0.000 OA
ATOM     16  C   UNL     1      -5.516  -3.956 132.163  0.00  0.00    +0.000 C 
ENDBRANCH  12  15
ENDBRANCH   2   9
BRANCH   1  17
ATOM     17  C   UNL     1      -9.049   0.810 126.185  0.00  0.00    +0.000 C 
ATOM     18  O   UNL     1     -10.179   0.536 125.810  0.00  0.00    +0.000 OA
BRANCH  17  19
ATOM     19  O   UNL     1      -8.444   1.960 125.777  0.00  0.00    +0.000 OA
BRANCH  19  20
ATOM     20  C   UNL     1      -7.731   1.782 124.525  0.00  0.00    +0.000 C 
BRANCH  20  21
ATOM     21  C   UNL     1      -7.888   3.031 123.643  0.00  0.00    +0.000 C 
BRANCH  21  22
ATOM     22  C   UNL     1      -8.858   2.692 122.482  0.00  0.00    +0.000 C 
ATOM     23  C   UNL     1      -9.568   1.352 122.573  0.00  0.00    +0.000 C 
ENDBRANCH  21  22
BRANCH  21  24
ATOM     24  C   UNL     1      -6.492   3.502 123.168  0.00  0.00    +0.000 C 
BRANCH  24  25
ATOM     25  C   UNL     1      -6.224   3.172 121.709  0.00  0.00    +0.000 C 
BRANCH  25  27
ATOM     26  C   UNL     1      -5.727   4.819 119.959  0.00  0.00    +0.000 C 
ATOM     27  C   UNL     1      -5.111   3.943 121.046  0.00  0.00    +0.000 C 
ENDBRANCH  25  27
ENDBRANCH  24  25
ENDBRANCH  21  24
ENDBRANCH  20  21
ENDBRANCH  19  20
ENDBRANCH  17  19
ENDBRANCH   1  17
BRANCH   1  28
ATOM     28  C   UNL     1      -7.862   0.539 128.372  0.00  0.00    +0.000 C 
ATOM     29  N   UNL     1      -7.508   0.979 129.380  0.00  0.00    +0.000 NA
ENDBRANCH   1  28
TORSDOF 12
ENDMDL
MODEL 8
REMARK VINA RESULT:      -5.9      2.713      7.723
REMARK  Name = Ethylhexyl methoxycrylene
REMARK  15 active torsions:
REMARK  status: ('A' for Active; 'I' for Inactive)
REMARK    1  A    between atoms: C_1  and  C_2
REMARK    2  A    between atoms: C_2  and  C_3
REMARK    3  A    between atoms: C_3  and  C_4
REMARK    4  A    between atoms: C_4  and  C_5
REMARK    5  A    between atoms: C_5  and  C_6
REMARK    6  A    between atoms: C_5  and  C_8
REMARK    7  A    between atoms: C_6  and  C_7
REMARK    8  A    between atoms: C_8  and  O_9
REMARK    9  A    between atoms: O_9  and  C_10
REMARK   10  A    between atoms: C_10  and  C_12
REMARK   11  A    between atoms: C_12  and  C_13
REMARK   12  A    between atoms: C_15  and  C_16
REMARK   13  A    between atoms: C_15  and  C_22
REMARK   14  A    between atoms: C_25  and  O_26
REMARK   15  A    between atoms: O_26  and  C_27
REMARK                            x       y       z     vdW  Elec       q    Type
REMARK                         _______ _______ _______ _____ _____    ______ ____
ROOT
ATOM      1  C   UNL     1      -7.439   0.306 127.380  0.00  0.00    +0.000 C 
ATOM      2  C   UNL     1      -7.327  -1.056 127.245  0.00  0.00    +0.000 C 
ENDROOT
BRANCH   2   3
ATOM      3  C   UNL     1      -7.765  -1.744 125.980  0.00  0.00    +0.000 A 
ATOM      4  C   UNL     1      -9.041  -2.318 125.844  0.00  0.00    +0.000 A 
ATOM      5  C   UNL     1      -9.364  -3.047 124.693  0.00  0.00    +0.000 A 
ATOM      6  C   UNL     1      -8.485  -3.076 123.611  0.00  0.00    +0.000 A 
ATOM      7  C   UNL     1      -7.232  -2.496 123.726  0.00  0.00    +0.000 A 
ATOM      8  C   UNL     1      -6.852  -1.914 124.931  0.00  0.00    +0.000 A 
ENDBRANCH   2   3
BRANCH   2   9
ATOM      9  C   UNL     1      -6.758  -1.931 128.344  0.00  0.00    +0.000 A 
ATOM     10  C   UNL     1      -5.385  -2.238 128.375  0.00  0.00    +0.000 A 
ATOM     11  C   UNL     1      -4.887  -3.241 129.222  0.00  0.00    +0.000 A 
ATOM     12  C   UNL     1      -5.721  -3.858 130.156  0.00  0.00    +0.000 A 
ATOM     13  C   UNL     1      -7.074  -3.539 130.153  0.00  0.00    +0.000 A 
ATOM     14  C   UNL     1      -7.586  -2.612 129.243  0.00  0.00    +0.000 A 
BRANCH  12  15
ATOM     15  O   UNL     1      -5.126  -4.736 131.020  0.00  0.00    +0.000 OA
ATOM     16  C   UNL     1      -5.506  -4.616 132.390  0.00  0.00    +0.000 C 
ENDBRANCH  12  15
ENDBRANCH   2   9
BRANCH   1  17
ATOM     17  C   UNL     1      -8.112   1.177 126.345  0.00  0.00    +0.000 C 
ATOM     18  O   UNL     1      -9.314   1.383 126.272  0.00  0.00    +0.000 OA
BRANCH  17  19
ATOM     19  O   UNL     1      -7.256   1.746 125.451  0.00  0.00    +0.000 OA
BRANCH  19  20
ATOM     20  C   UNL     1      -7.770   2.999 124.931  0.00  0.00    +0.000 C 
BRANCH  20  21
ATOM     21  C   UNL     1      -6.652   4.053 124.885  0.00  0.00    +0.000 C 
BRANCH  21  22
ATOM     22  C   UNL     1      -5.864   3.875 123.563  0.00  0.00    +0.000 C 
ATOM     23  C   UNL     1      -6.661   3.371 122.372  0.00  0.00    +0.000 C 
ENDBRANCH  21  22
BRANCH  21  24
ATOM     24  C   UNL     1      -5.774   3.925 126.154  0.00  0.00    +0.000 C 
BRANCH  24  25
ATOM     25  C   UNL     1      -4.295   3.783 125.834  0.00  0.00    +0.000 C 
BRANCH  25  27
ATOM     26  C   UNL     1      -2.122   3.146 126.780  0.00  0.00    +0.000 C 
ATOM     27  C   UNL     1      -3.561   2.685 126.560  0.00  0.00    +0.000 C 
ENDBRANCH  25  27
ENDBRANCH  24  25
ENDBRANCH  21  24
ENDBRANCH  20  21
ENDBRANCH  19  20
ENDBRANCH  17  19
ENDBRANCH   1  17
BRANCH   1  28
ATOM     28  C   UNL     1      -6.938   0.978 128.547  0.00  0.00    +0.000 C 
ATOM     29  N   UNL     1      -6.584   1.469 129.531  0.00  0.00    +0.000 NA
ENDBRANCH   1  28
TORSDOF 12
ENDMDL
MODEL 9
REMARK VINA RESULT:      -5.9      2.711      7.765
REMARK  Name = Ethylhexyl methoxycrylene
REMARK  15 active torsions:
REMARK  status: ('A' for Active; 'I' for Inactive)
REMARK    1  A    between atoms: C_1  and  C_2
REMARK    2  A    between atoms: C_2  and  C_3
REMARK    3  A    between atoms: C_3  and  C_4
REMARK    4  A    between atoms: C_4  and  C_5
REMARK    5  A    between atoms: C_5  and  C_6
REMARK    6  A    between atoms: C_5  and  C_8
REMARK    7  A    between atoms: C_6  and  C_7
REMARK    8  A    between atoms: C_8  and  O_9
REMARK    9  A    between atoms: O_9  and  C_10
REMARK   10  A    between atoms: C_10  and  C_12
REMARK   11  A    between atoms: C_12  and  C_13
REMARK   12  A    between atoms: C_15  and  C_16
REMARK   13  A    between atoms: C_15  and  C_22
REMARK   14  A    between atoms: C_25  and  O_26
REMARK   15  A    between atoms: O_26  and  C_27
REMARK                            x       y       z     vdW  Elec       q    Type
REMARK                         _______ _______ _______ _____ _____    ______ ____
ROOT
ATOM      1  C   UNL     1      -7.617  -0.022 127.670  0.00  0.00    +0.000 C 
ATOM      2  C   UNL     1      -7.419  -1.342 127.346  0.00  0.00    +0.000 C 
ENDROOT
BRANCH   2   3
ATOM      3  C   UNL     1      -7.839  -1.877 126.003  0.00  0.00    +0.000 A 
ATOM      4  C   UNL     1      -9.107  -2.443 125.787  0.00  0.00    +0.000 A 
ATOM      5  C   UNL     1      -9.412  -3.032 124.554  0.00  0.00    +0.000 A 
ATOM      6  C   UNL     1      -8.523  -2.924 123.485  0.00  0.00    +0.000 A 
ATOM      7  C   UNL     1      -7.277  -2.350 123.682  0.00  0.00    +0.000 A 
ATOM      8  C   UNL     1      -6.914  -1.913 124.951  0.00  0.00    +0.000 A 
ENDBRANCH   2   3
BRANCH   2   9
ATOM      9  C   UNL     1      -6.769  -2.319 128.306  0.00  0.00    +0.000 A 
ATOM     10  C   UNL     1      -7.531  -2.955 129.304  0.00  0.00    +0.000 A 
ATOM     11  C   UNL     1      -6.909  -3.656 130.350  0.00  0.00    +0.000 A 
ATOM     12  C   UNL     1      -5.529  -3.859 130.346  0.00  0.00    +0.000 A 
ATOM     13  C   UNL     1      -4.771  -3.259 129.346  0.00  0.00    +0.000 A 
ATOM     14  C   UNL     1      -5.381  -2.480 128.360  0.00  0.00    +0.000 A 
BRANCH  12  15
ATOM     15  O   UNL     1      -5.024  -4.653 131.339  0.00  0.00    +0.000 OA
ATOM     16  C   UNL     1      -4.103  -4.026 132.231  0.00  0.00    +0.000 C 
ENDBRANCH  12  15
ENDBRANCH   2   9
BRANCH   1  17
ATOM     17  C   UNL     1      -8.368   0.935 126.774  0.00  0.00    +0.000 C 
ATOM     18  O   UNL     1      -9.542   0.824 126.451  0.00  0.00    +0.000 OA
BRANCH  17  19
ATOM     19  O   UNL     1      -7.622   1.981 126.322  0.00  0.00    +0.000 OA
BRANCH  19  20
ATOM     20  C   UNL     1      -6.540   1.542 125.460  0.00  0.00    +0.000 C 
BRANCH  20  21
ATOM     21  C   UNL     1      -6.740   2.089 124.037  0.00  0.00    +0.000 C 
BRANCH  21  22
ATOM     22  C   UNL     1      -7.064   3.601 124.135  0.00  0.00    +0.000 C 
ATOM     23  C   UNL     1      -5.872   4.533 124.278  0.00  0.00    +0.000 C 
ENDBRANCH  21  22
BRANCH  21  24
ATOM     24  C   UNL     1      -7.836   1.264 123.319  0.00  0.00    +0.000 C 
BRANCH  24  25
ATOM     25  C   UNL     1      -9.144   2.025 123.172  0.00  0.00    +0.000 C 
BRANCH  25  27
ATOM     26  C   UNL     1     -10.128  -0.056 122.323  0.00  0.00    +0.000 C 
ATOM     27  C   UNL     1     -10.399   1.192 123.158  0.00  0.00    +0.000 C 
ENDBRANCH  25  27
ENDBRANCH  24  25
ENDBRANCH  21  24
ENDBRANCH  20  21
ENDBRANCH  19  20
ENDBRANCH  17  19
ENDBRANCH   1  17
BRANCH   1  28
ATOM     28  C   UNL     1      -7.136   0.516 128.912  0.00  0.00    +0.000 C 
ATOM     29  N   UNL     1      -6.717   0.874 129.928  0.00  0.00    +0.000 NA
ENDBRANCH   1  28
TORSDOF 12
ENDMDL
