MODEL 1
REMARK VINA RESULT:      -5.5      0.000      0.000
REMARK  Name = Ethyl salicylate
REMARK  5 active torsions:
REMARK  status: ('A' for Active; 'I' for Inactive)
REMARK    1  A    between atoms: C_1  and  C_2
REMARK    2  A    between atoms: C_2  and  O_3
REMARK    3  A    between atoms: O_3  and  C_4
REMARK    4  A    between atoms: C_4  and  C_6
REMARK    5  A    between atoms: C_11  and  O_12
REMARK                            x       y       z     vdW  Elec       q    Type
REMARK                         _______ _______ _______ _____ _____    ______ ____
ROOT
ATOM      1  C   UNL     1     -11.904   7.609 129.703  0.00  0.00    +0.000 A 
ATOM      2  C   UNL     1     -12.347   7.004 130.892  0.00  0.00    +0.000 A 
ATOM      3  C   UNL     1     -11.433   6.425 131.781  0.00  0.00    +0.000 A 
ATOM      4  C   UNL     1     -10.069   6.467 131.500  0.00  0.00    +0.000 A 
ATOM      5  C   UNL     1      -9.616   7.079 130.327  0.00  0.00    +0.000 A 
ATOM      6  C   UNL     1     -10.532   7.645 129.430  0.00  0.00    +0.000 A 
ENDROOT
BRANCH   1   7
ATOM      7  C   UNL     1     -12.908   8.274 128.833  0.00  0.00    +0.000 C 
ATOM      8  O   UNL     1     -13.804   7.647 128.280  0.00  0.00    +0.000 OA
BRANCH   7   9
ATOM      9  O   UNL     1     -12.659   9.602 128.681  0.00  0.00    +0.000 OA
BRANCH   9  11
ATOM     10  C   UNL     1     -13.578  11.246 130.202  0.00  0.00    +0.000 C 
ATOM     11  C   UNL     1     -13.793  10.453 128.922  0.00  0.00    +0.000 C 
ENDBRANCH   9  11
ENDBRANCH   7   9
ENDBRANCH   1   7
BRANCH   6  12
ATOM     12  O   UNL     1     -10.077   8.278 128.308  0.00  0.00    +0.000 OA
ATOM     13  H   UNL     1     -10.039   7.653 127.567  0.00  0.00    +0.000 HD
ENDBRANCH   6  12
TORSDOF 4
ENDMDL
MODEL 2
REMARK VINA RESULT:      -5.5      2.084      3.231
REMARK  Name = Ethyl salicylate
REMARK  5 active torsions:
REMARK  status: ('A' for Active; 'I' for Inactive)
REMARK    1  A    between atoms: C_1  and  C_2
REMARK    2  A    between atoms: C_2  and  O_3
REMARK    3  A    between atoms: O_3  and  C_4
REMARK    4  A    between atoms: C_4  and  C_6
REMARK    5  A    between atoms: C_11  and  O_12
REMARK                            x       y       z     vdW  Elec       q    Type
REMARK                         _______ _______ _______ _____ _____    ______ ____
ROOT
ATOM      1  C   UNL     1     -10.770   7.034 130.405  0.00  0.00    +0.000 A 
ATOM      2  C   UNL     1      -9.442   7.250 129.997  0.00  0.00    +0.000 A 
ATOM      3  C   UNL     1      -8.373   6.861 130.813  0.00  0.00    +0.000 A 
ATOM      4  C   UNL     1      -8.623   6.232 132.032  0.00  0.00    +0.000 A 
ATOM      5  C   UNL     1      -9.940   5.999 132.440  0.00  0.00    +0.000 A 
ATOM      6  C   UNL     1     -11.009   6.401 131.631  0.00  0.00    +0.000 A 
ENDROOT
BRANCH   1   7
ATOM      7  C   UNL     1     -11.864   7.397 129.468  0.00  0.00    +0.000 C 
ATOM      8  O   UNL     1     -12.620   8.336 129.685  0.00  0.00    +0.000 OA
BRANCH   7   9
ATOM      9  O   UNL     1     -11.954   6.533 128.421  0.00  0.00    +0.000 OA
BRANCH   9  11
ATOM     10  C   UNL     1     -10.979   7.692 126.533  0.00  0.00    +0.000 C 
ATOM     11  C   UNL     1     -12.256   7.154 127.159  0.00  0.00    +0.000 C 
ENDBRANCH   9  11
ENDBRANCH   7   9
ENDBRANCH   1   7
BRANCH   6  12
ATOM     12  O   UNL     1     -12.291   6.131 132.018  0.00  0.00    +0.000 OA
ATOM     13  H   UNL     1     -12.316   5.307 132.529  0.00  0.00    +0.000 HD
ENDBRANCH   6  12
TORSDOF 4
ENDMDL
MODEL 3
REMARK VINA RESULT:      -5.4      2.352      4.912
REMARK  Name = Ethyl salicylate
REMARK  5 active torsions:
REMARK  status: ('A' for Active; 'I' for Inactive)
REMARK    1  A    between atoms: C_1  and  C_2
REMARK    2  A    between atoms: C_2  and  O_3
REMARK    3  A    between atoms: O_3  and  C_4
REMARK    4  A    between atoms: C_4  and  C_6
REMARK    5  A    between atoms: C_11  and  O_12
REMARK                            x       y       z     vdW  Elec       q    Type
REMARK                         _______ _______ _______ _____ _____    ______ ____
ROOT
ATOM      1  C   UNL     1     -10.911   7.175 130.388  0.00  0.00    +0.000 A 
ATOM      2  C   UNL     1     -10.142   7.658 129.316  0.00  0.00    +0.000 A 
ATOM      3  C   UNL     1     -10.736   8.403 128.289  0.00  0.00    +0.000 A 
ATOM      4  C   UNL     1     -12.099   8.690 128.340  0.00  0.00    +0.000 A 
ATOM      5  C   UNL     1     -12.871   8.226 129.410  0.00  0.00    +0.000 A 
ATOM      6  C   UNL     1     -12.279   7.469 130.428  0.00  0.00    +0.000 A 
ENDROOT
BRANCH   1   7
ATOM      7  C   UNL     1     -10.217   6.456 131.486  0.00  0.00    +0.000 C 
ATOM      8  O   UNL     1     -10.638   6.465 132.637  0.00  0.00    +0.000 OA
BRANCH   7   9
ATOM      9  O   UNL     1      -9.059   5.876 131.071  0.00  0.00    +0.000 OA
BRANCH   9  11
ATOM     10  C   UNL     1      -6.875   6.917 131.158  0.00  0.00    +0.000 C 
ATOM     11  C   UNL     1      -7.927   6.128 131.922  0.00  0.00    +0.000 C 
ENDBRANCH   9  11
ENDBRANCH   7   9
ENDBRANCH   1   7
BRANCH   6  12
ATOM     12  O   UNL     1     -13.032   7.057 131.491  0.00  0.00    +0.000 OA
ATOM     13  H   UNL     1     -12.866   7.629 132.257  0.00  0.00    +0.000 HD
ENDBRANCH   6  12
TORSDOF 4
ENDMDL
MODEL 4
REMARK VINA RESULT:      -5.4      1.548      2.246
REMARK  Name = Ethyl salicylate
REMARK  5 active torsions:
REMARK  status: ('A' for Active; 'I' for Inactive)
REMARK    1  A    between atoms: C_1  and  C_2
REMARK    2  A    between atoms: C_2  and  O_3
REMARK    3  A    between atoms: O_3  and  C_4
REMARK    4  A    between atoms: C_4  and  C_6
REMARK    5  A    between atoms: C_11  and  O_12
REMARK                            x       y       z     vdW  Elec       q    Type
REMARK                         _______ _______ _______ _____ _____    ______ ____
ROOT
ATOM      1  C   UNL     1     -11.355   7.309 130.368  0.00  0.00    +0.000 A 
ATOM      2  C   UNL     1     -11.549   6.612 131.573  0.00  0.00    +0.000 A 
ATOM      3  C   UNL     1     -10.459   6.077 132.271  0.00  0.00    +0.000 A 
ATOM      4  C   UNL     1      -9.166   6.257 131.783  0.00  0.00    +0.000 A 
ATOM      5  C   UNL     1      -8.961   6.962 130.593  0.00  0.00    +0.000 A 
ATOM      6  C   UNL     1     -10.052   7.484 129.887  0.00  0.00    +0.000 A 
ENDROOT
BRANCH   1   7
ATOM      7  C   UNL     1     -12.538   7.920 129.709  0.00  0.00    +0.000 C 
ATOM      8  O   UNL     1     -12.730   9.130 129.710  0.00  0.00    +0.000 OA
BRANCH   7   9
ATOM      9  O   UNL     1     -13.380   6.984 129.193  0.00  0.00    +0.000 OA
BRANCH   9  11
ATOM     10  C   UNL     1     -12.660   7.047 126.882  0.00  0.00    +0.000 C 
ATOM     11  C   UNL     1     -13.817   7.252 127.848  0.00  0.00    +0.000 C 
ENDBRANCH   9  11
ENDBRANCH   7   9
ENDBRANCH   1   7
BRANCH   6  12
ATOM     12  O   UNL     1      -9.839   8.209 128.749  0.00  0.00    +0.000 OA
ATOM     13  H   UNL     1      -9.958   7.643 127.969  0.00  0.00    +0.000 HD
ENDBRANCH   6  12
TORSDOF 4
ENDMDL
MODEL 5
REMARK VINA RESULT:      -5.2      2.493      5.064
REMARK  Name = Ethyl salicylate
REMARK  5 active torsions:
REMARK  status: ('A' for Active; 'I' for Inactive)
REMARK    1  A    between atoms: C_1  and  C_2
REMARK    2  A    between atoms: C_2  and  O_3
REMARK    3  A    between atoms: O_3  and  C_4
REMARK    4  A    between atoms: C_4  and  C_6
REMARK    5  A    between atoms: C_11  and  O_12
REMARK                            x       y       z     vdW  Elec       q    Type
REMARK                         _______ _______ _______ _____ _____    ______ ____
ROOT
ATOM      1  C   UNL     1     -10.559   7.089 130.228  0.00  0.00    +0.000 A 
ATOM      2  C   UNL     1     -10.452   7.970 129.138  0.00  0.00    +0.000 A 
ATOM      3  C   UNL     1     -11.595   8.555 128.578  0.00  0.00    +0.000 A 
ATOM      4  C   UNL     1     -12.850   8.282 129.119  0.00  0.00    +0.000 A 
ATOM      5  C   UNL     1     -12.967   7.418 130.212  0.00  0.00    +0.000 A 
ATOM      6  C   UNL     1     -11.825   6.822 130.762  0.00  0.00    +0.000 A 
ENDROOT
BRANCH   1   7
ATOM      7  C   UNL     1      -9.310   6.556 130.829  0.00  0.00    +0.000 C 
ATOM      8  O   UNL     1      -8.414   6.074 130.146  0.00  0.00    +0.000 OA
BRANCH   7   9
ATOM      9  O   UNL     1      -9.331   6.606 132.189  0.00  0.00    +0.000 OA
BRANCH   9  11
ATOM     10  C   UNL     1      -9.107   4.483 133.332  0.00  0.00    +0.000 C 
ATOM     11  C   UNL     1      -8.390   5.728 132.832  0.00  0.00    +0.000 C 
ENDBRANCH   9  11
ENDBRANCH   7   9
ENDBRANCH   1   7
BRANCH   6  12
ATOM     12  O   UNL     1     -11.944   6.013 131.857  0.00  0.00    +0.000 OA
ATOM     13  H   UNL     1     -11.746   6.515 132.663  0.00  0.00    +0.000 HD
ENDBRANCH   6  12
TORSDOF 4
ENDMDL
MODEL 6
REMARK VINA RESULT:      -5.2      2.614      4.497
REMARK  Name = Ethyl salicylate
REMARK  5 active torsions:
REMARK  status: ('A' for Active; 'I' for Inactive)
REMARK    1  A    between atoms: C_1  and  C_2
REMARK    2  A    between atoms: C_2  and  O_3
REMARK    3  A    between atoms: O_3  and  C_4
REMARK    4  A    between atoms: C_4  and  C_6
REMARK    5  A    between atoms: C_11  and  O_12
REMARK                            x       y       z     vdW  Elec       q    Type
REMARK                         _______ _______ _______ _____ _____    ______ ____
ROOT
ATOM      1  C   UNL     1     -11.706   6.842 129.531  0.00  0.00    +0.000 A 
ATOM      2  C   UNL     1     -12.853   6.632 128.746  0.00  0.00    +0.000 A 
ATOM      3  C   UNL     1     -12.893   7.060 127.413  0.00  0.00    +0.000 A 
ATOM      4  C   UNL     1     -11.779   7.679 126.848  0.00  0.00    +0.000 A 
ATOM      5  C   UNL     1     -10.627   7.879 127.616  0.00  0.00    +0.000 A 
ATOM      6  C   UNL     1     -10.593   7.465 128.954  0.00  0.00    +0.000 A 
ENDROOT
BRANCH   1   7
ATOM      7  C   UNL     1     -11.690   6.302 130.914  0.00  0.00    +0.000 C 
ATOM      8  O   UNL     1     -12.517   6.639 131.753  0.00  0.00    +0.000 OA
BRANCH   7   9
ATOM      9  O   UNL     1     -10.631   5.477 131.133  0.00  0.00    +0.000 OA
BRANCH   9  11
ATOM     10  C   UNL     1      -9.419   3.686 130.043  0.00  0.00    +0.000 C 
ATOM     11  C   UNL     1     -10.768   4.165 130.558  0.00  0.00    +0.000 C 
ENDBRANCH   9  11
ENDBRANCH   7   9
ENDBRANCH   1   7
BRANCH   6  12
ATOM     12  O   UNL     1      -9.449   7.625 129.684  0.00  0.00    +0.000 OA
ATOM     13  H   UNL     1      -8.876   6.849 129.578  0.00  0.00    +0.000 HD
ENDBRANCH   6  12
TORSDOF 4
ENDMDL
MODEL 7
REMARK VINA RESULT:      -5.1      2.290      4.337
REMARK  Name = Ethyl salicylate
REMARK  5 active torsions:
REMARK  status: ('A' for Active; 'I' for Inactive)
REMARK    1  A    between atoms: C_1  and  C_2
REMARK    2  A    between atoms: C_2  and  O_3
REMARK    3  A    between atoms: O_3  and  C_4
REMARK    4  A    between atoms: C_4  and  C_6
REMARK    5  A    between atoms: C_11  and  O_12
REMARK                            x       y       z     vdW  Elec       q    Type
REMARK                         _______ _______ _______ _____ _____    ______ ____
ROOT
ATOM      1  C   UNL     1     -11.212   6.753 129.788  0.00  0.00    +0.000 A 
ATOM      2  C   UNL     1     -12.221   7.476 130.447  0.00  0.00    +0.000 A 
ATOM      3  C   UNL     1     -12.790   8.609 129.853  0.00  0.00    +0.000 A 
ATOM      4  C   UNL     1     -12.371   9.015 128.587  0.00  0.00    +0.000 A 
ATOM      5  C   UNL     1     -11.378   8.294 127.917  0.00  0.00    +0.000 A 
ATOM      6  C   UNL     1     -10.798   7.169 128.517  0.00  0.00    +0.000 A 
ENDROOT
BRANCH   1   7
ATOM      7  C   UNL     1     -10.697   5.516 130.430  0.00  0.00    +0.000 C 
ATOM      8  O   UNL     1     -10.905   4.405 129.957  0.00  0.00    +0.000 OA
BRANCH   7   9
ATOM      9  O   UNL     1     -10.058   5.772 131.603  0.00  0.00    +0.000 OA
BRANCH   9  11
ATOM     10  C   UNL     1      -7.889   6.746 131.145  0.00  0.00    +0.000 C 
ATOM     11  C   UNL     1      -8.645   5.501 131.584  0.00  0.00    +0.000 C 
ENDBRANCH   9  11
ENDBRANCH   7   9
ENDBRANCH   1   7
BRANCH   6  12
ATOM     12  O   UNL     1      -9.859   6.446 127.837  0.00  0.00    +0.000 OA
ATOM     13  H   UNL     1      -9.327   7.036 127.280  0.00  0.00    +0.000 HD
ENDBRANCH   6  12
TORSDOF 4
ENDMDL
MODEL 8
REMARK VINA RESULT:      -5.1     11.011     11.988
REMARK  Name = Ethyl salicylate
REMARK  5 active torsions:
REMARK  status: ('A' for Active; 'I' for Inactive)
REMARK    1  A    between atoms: C_1  and  C_2
REMARK    2  A    between atoms: C_2  and  O_3
REMARK    3  A    between atoms: O_3  and  C_4
REMARK    4  A    between atoms: C_4  and  C_6
REMARK    5  A    between atoms: C_11  and  O_12
REMARK                            x       y       z     vdW  Elec       q    Type
REMARK                         _______ _______ _______ _____ _____    ______ ____
ROOT
ATOM      1  C   UNL     1      -8.159  -1.547 123.553  0.00  0.00    +0.000 A 
ATOM      2  C   UNL     1      -6.814  -1.371 123.184  0.00  0.00    +0.000 A 
ATOM      3  C   UNL     1      -5.864  -2.363 123.455  0.00  0.00    +0.000 A 
ATOM      4  C   UNL     1      -6.255  -3.548 124.076  0.00  0.00    +0.000 A 
ATOM      5  C   UNL     1      -7.593  -3.740 124.434  0.00  0.00    +0.000 A 
ATOM      6  C   UNL     1      -8.541  -2.741 124.176  0.00  0.00    +0.000 A 
ENDROOT
BRANCH   1   7
ATOM      7  C   UNL     1      -9.138  -0.496 123.174  0.00  0.00    +0.000 C 
ATOM      8  O   UNL     1     -10.164  -0.757 122.557  0.00  0.00    +0.000 OA
BRANCH   7   9
ATOM      9  O   UNL     1      -8.717   0.749 123.523  0.00  0.00    +0.000 OA
BRANCH   9  11
ATOM     10  C   UNL     1      -8.532   2.900 122.426  0.00  0.00    +0.000 C 
ATOM     11  C   UNL     1      -9.476   1.821 122.936  0.00  0.00    +0.000 C 
ENDBRANCH   9  11
ENDBRANCH   7   9
ENDBRANCH   1   7
BRANCH   6  12
ATOM     12  O   UNL     1      -9.853  -2.955 124.490  0.00  0.00    +0.000 OA
ATOM     13  H   UNL     1     -10.132  -3.829 124.173  0.00  0.00    +0.000 HD
ENDBRANCH   6  12
TORSDOF 4
ENDMDL
MODEL 9
REMARK VINA RESULT:      -4.8     10.680     11.905
REMARK  Name = Ethyl salicylate
REMARK  5 active torsions:
REMARK  status: ('A' for Active; 'I' for Inactive)
REMARK    1  A    between atoms: C_1  and  C_2
REMARK    2  A    between atoms: C_2  and  O_3
REMARK    3  A    between atoms: O_3  and  C_4
REMARK    4  A    between atoms: C_4  and  C_6
REMARK    5  A    between atoms: C_11  and  O_12
REMARK                            x       y       z     vdW  Elec       q    Type
REMARK                         _______ _______ _______ _____ _____    ______ ____
ROOT
ATOM      1  C   UNL     1      -8.498  -1.663 126.059  0.00  0.00    +0.000 A 
ATOM      2  C   UNL     1      -7.676  -1.338 127.153  0.00  0.00    +0.000 A 
ATOM      3  C   UNL     1      -7.609  -2.180 128.270  0.00  0.00    +0.000 A 
ATOM      4  C   UNL     1      -8.344  -3.364 128.292  0.00  0.00    +0.000 A 
ATOM      5  C   UNL     1      -9.152  -3.705 127.203  0.00  0.00    +0.000 A 
ATOM      6  C   UNL     1      -9.231  -2.855 126.092  0.00  0.00    +0.000 A 
ENDROOT
BRANCH   1   7
ATOM      7  C   UNL     1      -8.473  -0.774 124.870  0.00  0.00    +0.000 C 
ATOM      8  O   UNL     1      -9.497  -0.293 124.398  0.00  0.00    +0.000 OA
BRANCH   7   9
ATOM      9  O   UNL     1      -7.222  -0.637 124.354  0.00  0.00    +0.000 OA
BRANCH   9  11
ATOM     10  C   UNL     1      -5.639  -2.377 123.781  0.00  0.00    +0.000 C 
ATOM     11  C   UNL     1      -6.881  -1.611 123.352  0.00  0.00    +0.000 C 
ENDBRANCH   9  11
ENDBRANCH   7   9
ENDBRANCH   1   7
BRANCH   6  12
ATOM     12  O   UNL     1      -9.990  -3.217 125.015  0.00  0.00    +0.000 OA
ATOM     13  H   UNL     1     -10.757  -3.734 125.309  0.00  0.00    +0.000 HD
ENDBRANCH   6  12
TORSDOF 4
ENDMDL
