MODEL 1
REMARK VINA RESULT:      -5.9      0.000      0.000
REMARK  Name = Etidocaine
REMARK  12 active torsions:
REMARK  status: ('A' for Active; 'I' for Inactive)
REMARK    1  A    between atoms: C_1  and  C_2
REMARK    2  A    between atoms: C_2  and  C_3
REMARK    3  A    between atoms: C_3  and  N_4
REMARK    4  A    between atoms: N_4  and  C_5
REMARK    5  A    between atoms: N_4  and  C_7
REMARK    6  A    between atoms: C_5  and  C_6
REMARK    7  A    between atoms: C_7  and  C_8
REMARK    8  A    between atoms: C_7  and  C_10
REMARK    9  A    between atoms: C_8  and  C_9
REMARK   10  A    between atoms: N_12  and  C_13
REMARK   11  A    between atoms: C_14  and  C_15
REMARK   12  A    between atoms: C_19  and  C_20
REMARK                            x       y       z     vdW  Elec       q    Type
REMARK                         _______ _______ _______ _____ _____    ______ ____
ROOT
ATOM      1  C   UNL     1      -5.593   4.743 125.230  0.00  0.00    +0.000 C 
ATOM      2  O   UNL     1      -6.297   5.723 125.023  0.00  0.00    +0.000 OA
ATOM      3  N   UNL     1      -5.651   3.603 124.402  0.00  0.00    +0.000 N 
ATOM      4  H   UNL     1      -5.464   2.701 124.813  0.00  0.00    +0.000 HD
ENDROOT
BRANCH   3   5
ATOM      5  C   UNL     1      -6.444   3.625 123.212  0.00  0.00    +0.000 A 
ATOM      6  C   UNL     1      -7.788   3.188 123.252  0.00  0.00    +0.000 A 
ATOM      7  C   UNL     1      -8.494   2.787 124.520  0.00  0.00    +0.000 C 
ATOM      8  C   UNL     1      -8.548   3.146 122.069  0.00  0.00    +0.000 A 
ATOM      9  C   UNL     1      -8.005   3.552 120.857  0.00  0.00    +0.000 A 
ATOM     10  C   UNL     1      -6.699   4.025 120.817  0.00  0.00    +0.000 A 
ATOM     11  C   UNL     1      -5.908   4.088 121.984  0.00  0.00    +0.000 A 
ATOM     12  C   UNL     1      -4.490   4.565 121.831  0.00  0.00    +0.000 C 
ENDBRANCH   3   5
BRANCH   1  13
ATOM     13  C   UNL     1      -4.578   4.688 126.452  0.00  0.00    +0.000 C 
BRANCH  13  14
ATOM     14  C   UNL     1      -3.961   3.253 126.409  0.00  0.00    +0.000 C 
ATOM     15  C   UNL     1      -2.459   3.080 126.631  0.00  0.00    +0.000 C 
ENDBRANCH  13  14
BRANCH  13  16
ATOM     16  N   UNL     1      -5.303   5.073 127.743  0.00  0.00    +0.000 NA
BRANCH  16  17
ATOM     17  C   UNL     1      -4.377   5.687 128.722  0.00  0.00    +0.000 C 
ATOM     18  C   UNL     1      -3.300   6.585 128.119  0.00  0.00    +0.000 C 
ENDBRANCH  16  17
BRANCH  16  19
ATOM     19  C   UNL     1      -6.033   3.946 128.340  0.00  0.00    +0.000 C 
BRANCH  19  21
ATOM     20  C   UNL     1      -8.019   2.397 128.200  0.00  0.00    +0.000 C 
ATOM     21  C   UNL     1      -7.544   3.834 128.163  0.00  0.00    +0.000 C 
ENDBRANCH  19  21
ENDBRANCH  16  19
ENDBRANCH  13  16
ENDBRANCH   1  13
TORSDOF 7
ENDMDL
MODEL 2
REMARK VINA RESULT:      -5.9      3.818      6.403
REMARK  Name = Etidocaine
REMARK  12 active torsions:
REMARK  status: ('A' for Active; 'I' for Inactive)
REMARK    1  A    between atoms: C_1  and  C_2
REMARK    2  A    between atoms: C_2  and  C_3
REMARK    3  A    between atoms: C_3  and  N_4
REMARK    4  A    between atoms: N_4  and  C_5
REMARK    5  A    between atoms: N_4  and  C_7
REMARK    6  A    between atoms: C_5  and  C_6
REMARK    7  A    between atoms: C_7  and  C_8
REMARK    8  A    between atoms: C_7  and  C_10
REMARK    9  A    between atoms: C_8  and  C_9
REMARK   10  A    between atoms: N_12  and  C_13
REMARK   11  A    between atoms: C_14  and  C_15
REMARK   12  A    between atoms: C_19  and  C_20
REMARK                            x       y       z     vdW  Elec       q    Type
REMARK                         _______ _______ _______ _____ _____    ______ ____
ROOT
ATOM      1  C   UNL     1      -7.104   1.183 123.911  0.00  0.00    +0.000 C 
ATOM      2  O   UNL     1      -7.665   1.106 124.996  0.00  0.00    +0.000 OA
ATOM      3  N   UNL     1      -6.940   0.054 123.082  0.00  0.00    +0.000 N 
ATOM      4  H   UNL     1      -6.128   0.011 122.484  0.00  0.00    +0.000 HD
ENDROOT
BRANCH   3   5
ATOM      5  C   UNL     1      -7.552  -1.189 123.439  0.00  0.00    +0.000 A 
ATOM      6  C   UNL     1      -6.798  -2.179 124.110  0.00  0.00    +0.000 A 
ATOM      7  C   UNL     1      -5.383  -1.970 124.580  0.00  0.00    +0.000 C 
ATOM      8  C   UNL     1      -7.379  -3.426 124.401  0.00  0.00    +0.000 A 
ATOM      9  C   UNL     1      -8.698  -3.696 124.061  0.00  0.00    +0.000 A 
ATOM     10  C   UNL     1      -9.460  -2.711 123.442  0.00  0.00    +0.000 A 
ATOM     11  C   UNL     1      -8.913  -1.446 123.139  0.00  0.00    +0.000 A 
ATOM     12  C   UNL     1      -9.800  -0.466 122.423  0.00  0.00    +0.000 C 
ENDBRANCH   3   5
BRANCH   1  13
ATOM     13  C   UNL     1      -6.517   2.558 123.371  0.00  0.00    +0.000 C 
BRANCH  13  14
ATOM     14  C   UNL     1      -7.075   3.650 124.339  0.00  0.00    +0.000 C 
ATOM     15  C   UNL     1      -6.142   4.756 124.833  0.00  0.00    +0.000 C 
ENDBRANCH  13  14
BRANCH  13  16
ATOM     16  N   UNL     1      -6.868   2.724 121.892  0.00  0.00    +0.000 NA
BRANCH  16  17
ATOM     17  C   UNL     1      -5.664   3.004 121.077  0.00  0.00    +0.000 C 
ATOM     18  C   UNL     1      -5.261   4.474 121.002  0.00  0.00    +0.000 C 
ENDBRANCH  16  17
BRANCH  16  19
ATOM     19  C   UNL     1      -7.908   3.738 121.666  0.00  0.00    +0.000 C 
BRANCH  19  21
ATOM     20  C   UNL     1      -8.809   4.200 119.356  0.00  0.00    +0.000 C 
ATOM     21  C   UNL     1      -9.029   3.474 120.666  0.00  0.00    +0.000 C 
ENDBRANCH  19  21
ENDBRANCH  16  19
ENDBRANCH  13  16
ENDBRANCH   1  13
TORSDOF 7
ENDMDL
MODEL 3
REMARK VINA RESULT:      -5.8      0.804      2.253
REMARK  Name = Etidocaine
REMARK  12 active torsions:
REMARK  status: ('A' for Active; 'I' for Inactive)
REMARK    1  A    between atoms: C_1  and  C_2
REMARK    2  A    between atoms: C_2  and  C_3
REMARK    3  A    between atoms: C_3  and  N_4
REMARK    4  A    between atoms: N_4  and  C_5
REMARK    5  A    between atoms: N_4  and  C_7
REMARK    6  A    between atoms: C_5  and  C_6
REMARK    7  A    between atoms: C_7  and  C_8
REMARK    8  A    between atoms: C_7  and  C_10
REMARK    9  A    between atoms: C_8  and  C_9
REMARK   10  A    between atoms: N_12  and  C_13
REMARK   11  A    between atoms: C_14  and  C_15
REMARK   12  A    between atoms: C_19  and  C_20
REMARK                            x       y       z     vdW  Elec       q    Type
REMARK                         _______ _______ _______ _____ _____    ______ ____
ROOT
ATOM      1  C   UNL     1      -5.595   4.737 125.235  0.00  0.00    +0.000 C 
ATOM      2  O   UNL     1      -6.347   5.681 125.033  0.00  0.00    +0.000 OA
ATOM      3  N   UNL     1      -5.633   3.577 124.435  0.00  0.00    +0.000 N 
ATOM      4  H   UNL     1      -5.393   2.693 124.858  0.00  0.00    +0.000 HD
ENDROOT
BRANCH   3   5
ATOM      5  C   UNL     1      -6.469   3.538 123.274  0.00  0.00    +0.000 A 
ATOM      6  C   UNL     1      -5.969   3.986 122.030  0.00  0.00    +0.000 A 
ATOM      7  C   UNL     1      -4.542   4.416 121.814  0.00  0.00    +0.000 C 
ATOM      8  C   UNL     1      -6.810   4.012 120.903  0.00  0.00    +0.000 A 
ATOM      9  C   UNL     1      -8.127   3.579 120.986  0.00  0.00    +0.000 A 
ATOM     10  C   UNL     1      -8.614   3.095 122.195  0.00  0.00    +0.000 A 
ATOM     11  C   UNL     1      -7.797   3.049 123.345  0.00  0.00    +0.000 A 
ATOM     12  C   UNL     1      -8.429   2.558 124.618  0.00  0.00    +0.000 C 
ENDBRANCH   3   5
BRANCH   1  13
ATOM     13  C   UNL     1      -4.535   4.754 126.420  0.00  0.00    +0.000 C 
BRANCH  13  14
ATOM     14  C   UNL     1      -3.678   3.463 126.220  0.00  0.00    +0.000 C 
ATOM     15  C   UNL     1      -2.232   3.443 126.718  0.00  0.00    +0.000 C 
ENDBRANCH  13  14
BRANCH  13  16
ATOM     16  N   UNL     1      -5.261   4.882 127.760  0.00  0.00    +0.000 NA
BRANCH  16  17
ATOM     17  C   UNL     1      -4.453   5.641 128.743  0.00  0.00    +0.000 C 
ATOM     18  C   UNL     1      -3.543   6.710 128.145  0.00  0.00    +0.000 C 
ENDBRANCH  16  17
BRANCH  16  19
ATOM     19  C   UNL     1      -5.676   3.583 128.306  0.00  0.00    +0.000 C 
BRANCH  19  21
ATOM     20  C   UNL     1      -4.314   1.866 129.555  0.00  0.00    +0.000 C 
ATOM     21  C   UNL     1      -5.153   3.122 129.663  0.00  0.00    +0.000 C 
ENDBRANCH  19  21
ENDBRANCH  16  19
ENDBRANCH  13  16
ENDBRANCH   1  13
TORSDOF 7
ENDMDL
MODEL 4
REMARK VINA RESULT:      -5.8      5.059      8.321
REMARK  Name = Etidocaine
REMARK  12 active torsions:
REMARK  status: ('A' for Active; 'I' for Inactive)
REMARK    1  A    between atoms: C_1  and  C_2
REMARK    2  A    between atoms: C_2  and  C_3
REMARK    3  A    between atoms: C_3  and  N_4
REMARK    4  A    between atoms: N_4  and  C_5
REMARK    5  A    between atoms: N_4  and  C_7
REMARK    6  A    between atoms: C_5  and  C_6
REMARK    7  A    between atoms: C_7  and  C_8
REMARK    8  A    between atoms: C_7  and  C_10
REMARK    9  A    between atoms: C_8  and  C_9
REMARK   10  A    between atoms: N_12  and  C_13
REMARK   11  A    between atoms: C_14  and  C_15
REMARK   12  A    between atoms: C_19  and  C_20
REMARK                            x       y       z     vdW  Elec       q    Type
REMARK                         _______ _______ _______ _____ _____    ______ ____
ROOT
ATOM      1  C   UNL     1      -6.594  -2.167 126.058  0.00  0.00    +0.000 C 
ATOM      2  O   UNL     1      -5.531  -2.125 126.664  0.00  0.00    +0.000 OA
ATOM      3  N   UNL     1      -7.815  -1.840 126.684  0.00  0.00    +0.000 N 
ATOM      4  H   UNL     1      -8.654  -2.305 126.372  0.00  0.00    +0.000 HD
ENDROOT
BRANCH   3   5
ATOM      5  C   UNL     1      -7.816  -1.316 128.015  0.00  0.00    +0.000 A 
ATOM      6  C   UNL     1      -7.750   0.081 128.223  0.00  0.00    +0.000 A 
ATOM      7  C   UNL     1      -7.785   1.090 127.106  0.00  0.00    +0.000 C 
ATOM      8  C   UNL     1      -7.683   0.593 129.531  0.00  0.00    +0.000 A 
ATOM      9  C   UNL     1      -7.705  -0.254 130.632  0.00  0.00    +0.000 A 
ATOM     10  C   UNL     1      -7.815  -1.626 130.437  0.00  0.00    +0.000 A 
ATOM     11  C   UNL     1      -7.890  -2.176 129.139  0.00  0.00    +0.000 A 
ATOM     12  C   UNL     1      -7.955  -3.674 129.029  0.00  0.00    +0.000 C 
ENDBRANCH   3   5
BRANCH   1  13
ATOM     13  C   UNL     1      -6.668  -2.603 124.531  0.00  0.00    +0.000 C 
BRANCH  13  14
ATOM     14  C   UNL     1      -5.184  -2.637 124.043  0.00  0.00    +0.000 C 
ATOM     15  C   UNL     1      -4.569  -3.970 123.618  0.00  0.00    +0.000 C 
ENDBRANCH  13  14
BRANCH  13  16
ATOM     16  N   UNL     1      -7.607  -1.665 123.772  0.00  0.00    +0.000 NA
BRANCH  16  17
ATOM     17  C   UNL     1      -8.487  -2.414 122.845  0.00  0.00    +0.000 C 
ATOM     18  C   UNL     1      -9.517  -3.317 123.517  0.00  0.00    +0.000 C 
ENDBRANCH  16  17
BRANCH  16  19
ATOM     19  C   UNL     1      -6.890  -0.591 123.070  0.00  0.00    +0.000 C 
BRANCH  19  21
ATOM     20  C   UNL     1      -8.556   1.276 123.388  0.00  0.00    +0.000 C 
ATOM     21  C   UNL     1      -7.102   0.864 123.479  0.00  0.00    +0.000 C 
ENDBRANCH  19  21
ENDBRANCH  16  19
ENDBRANCH  13  16
ENDBRANCH   1  13
TORSDOF 7
ENDMDL
MODEL 5
REMARK VINA RESULT:      -5.7      4.581      6.975
REMARK  Name = Etidocaine
REMARK  12 active torsions:
REMARK  status: ('A' for Active; 'I' for Inactive)
REMARK    1  A    between atoms: C_1  and  C_2
REMARK    2  A    between atoms: C_2  and  C_3
REMARK    3  A    between atoms: C_3  and  N_4
REMARK    4  A    between atoms: N_4  and  C_5
REMARK    5  A    between atoms: N_4  and  C_7
REMARK    6  A    between atoms: C_5  and  C_6
REMARK    7  A    between atoms: C_7  and  C_8
REMARK    8  A    between atoms: C_7  and  C_10
REMARK    9  A    between atoms: C_8  and  C_9
REMARK   10  A    between atoms: N_12  and  C_13
REMARK   11  A    between atoms: C_14  and  C_15
REMARK   12  A    between atoms: C_19  and  C_20
REMARK                            x       y       z     vdW  Elec       q    Type
REMARK                         _______ _______ _______ _____ _____    ______ ____
ROOT
ATOM      1  C   UNL     1      -7.806  -0.092 125.365  0.00  0.00    +0.000 C 
ATOM      2  O   UNL     1      -8.629   0.651 125.885  0.00  0.00    +0.000 OA
ATOM      3  N   UNL     1      -6.589   0.400 124.849  0.00  0.00    +0.000 N 
ATOM      4  H   UNL     1      -6.177  -0.072 124.058  0.00  0.00    +0.000 HD
ENDROOT
BRANCH   3   5
ATOM      5  C   UNL     1      -6.232   1.771 125.048  0.00  0.00    +0.000 A 
ATOM      6  C   UNL     1      -6.545   2.732 124.060  0.00  0.00    +0.000 A 
ATOM      7  C   UNL     1      -7.345   2.422 122.822  0.00  0.00    +0.000 C 
ATOM      8  C   UNL     1      -6.134   4.067 124.223  0.00  0.00    +0.000 A 
ATOM      9  C   UNL     1      -5.443   4.467 125.360  0.00  0.00    +0.000 A 
ATOM     10  C   UNL     1      -5.170   3.537 126.357  0.00  0.00    +0.000 A 
ATOM     11  C   UNL     1      -5.571   2.190 126.229  0.00  0.00    +0.000 A 
ATOM     12  C   UNL     1      -5.185   1.249 127.337  0.00  0.00    +0.000 C 
ENDBRANCH   3   5
BRANCH   1  13
ATOM     13  C   UNL     1      -8.061  -1.655 125.228  0.00  0.00    +0.000 C 
BRANCH  13  14
ATOM     14  C   UNL     1      -7.576  -2.268 126.581  0.00  0.00    +0.000 C 
ATOM     15  C   UNL     1      -8.521  -3.172 127.372  0.00  0.00    +0.000 C 
ENDBRANCH  13  14
BRANCH  13  16
ATOM     16  N   UNL     1      -7.378  -2.180 123.965  0.00  0.00    +0.000 NA
BRANCH  16  17
ATOM     17  C   UNL     1      -8.369  -2.594 122.945  0.00  0.00    +0.000 C 
ATOM     18  C   UNL     1      -9.580  -3.348 123.488  0.00  0.00    +0.000 C 
ENDBRANCH  16  17
BRANCH  16  19
ATOM     19  C   UNL     1      -6.423  -3.262 124.245  0.00  0.00    +0.000 C 
BRANCH  19  21
ATOM     20  C   UNL     1      -4.395  -4.620 123.609  0.00  0.00    +0.000 C 
ATOM     21  C   UNL     1      -5.044  -3.253 123.591  0.00  0.00    +0.000 C 
ENDBRANCH  19  21
ENDBRANCH  16  19
ENDBRANCH  13  16
ENDBRANCH   1  13
TORSDOF 7
ENDMDL
MODEL 6
REMARK VINA RESULT:      -5.7      5.405      8.569
REMARK  Name = Etidocaine
REMARK  12 active torsions:
REMARK  status: ('A' for Active; 'I' for Inactive)
REMARK    1  A    between atoms: C_1  and  C_2
REMARK    2  A    between atoms: C_2  and  C_3
REMARK    3  A    between atoms: C_3  and  N_4
REMARK    4  A    between atoms: N_4  and  C_5
REMARK    5  A    between atoms: N_4  and  C_7
REMARK    6  A    between atoms: C_5  and  C_6
REMARK    7  A    between atoms: C_7  and  C_8
REMARK    8  A    between atoms: C_7  and  C_10
REMARK    9  A    between atoms: C_8  and  C_9
REMARK   10  A    between atoms: N_12  and  C_13
REMARK   11  A    between atoms: C_14  and  C_15
REMARK   12  A    between atoms: C_19  and  C_20
REMARK                            x       y       z     vdW  Elec       q    Type
REMARK                         _______ _______ _______ _____ _____    ______ ____
ROOT
ATOM      1  C   UNL     1      -6.228  -1.650 126.327  0.00  0.00    +0.000 C 
ATOM      2  O   UNL     1      -5.335  -2.323 126.826  0.00  0.00    +0.000 OA
ATOM      3  N   UNL     1      -7.374  -1.282 127.062  0.00  0.00    +0.000 N 
ATOM      4  H   UNL     1      -8.247  -1.170 126.567  0.00  0.00    +0.000 HD
ENDROOT
BRANCH   3   5
ATOM      5  C   UNL     1      -7.451  -1.578 128.460  0.00  0.00    +0.000 A 
ATOM      6  C   UNL     1      -6.934  -0.660 129.403  0.00  0.00    +0.000 A 
ATOM      7  C   UNL     1      -6.387   0.693 129.033  0.00  0.00    +0.000 C 
ATOM      8  C   UNL     1      -6.947  -0.980 130.773  0.00  0.00    +0.000 A 
ATOM      9  C   UNL     1      -7.485  -2.179 131.221  0.00  0.00    +0.000 A 
ATOM     10  C   UNL     1      -8.036  -3.067 130.303  0.00  0.00    +0.000 A 
ATOM     11  C   UNL     1      -8.046  -2.778 128.922  0.00  0.00    +0.000 A 
ATOM     12  C   UNL     1      -8.616  -3.823 128.004  0.00  0.00    +0.000 C 
ENDBRANCH   3   5
BRANCH   1  13
ATOM     13  C   UNL     1      -6.158  -1.158 124.817  0.00  0.00    +0.000 C 
BRANCH  13  14
ATOM     14  C   UNL     1      -7.109   0.080 124.746  0.00  0.00    +0.000 C 
ATOM     15  C   UNL     1      -6.525   1.481 124.927  0.00  0.00    +0.000 C 
ENDBRANCH  13  14
BRANCH  13  16
ATOM     16  N   UNL     1      -6.491  -2.319 123.880  0.00  0.00    +0.000 NA
BRANCH  16  17
ATOM     17  C   UNL     1      -5.280  -2.827 123.196  0.00  0.00    +0.000 C 
ATOM     18  C   UNL     1      -4.703  -4.117 123.774  0.00  0.00    +0.000 C 
ENDBRANCH  16  17
BRANCH  16  19
ATOM     19  C   UNL     1      -7.544  -1.983 122.912  0.00  0.00    +0.000 C 
BRANCH  19  21
ATOM     20  C   UNL     1      -9.075  -3.434 124.295  0.00  0.00    +0.000 C 
ATOM     21  C   UNL     1      -8.916  -2.642 123.015  0.00  0.00    +0.000 C 
ENDBRANCH  19  21
ENDBRANCH  16  19
ENDBRANCH  13  16
ENDBRANCH   1  13
TORSDOF 7
ENDMDL
MODEL 7
REMARK VINA RESULT:      -5.7      6.294      9.082
REMARK  Name = Etidocaine
REMARK  12 active torsions:
REMARK  status: ('A' for Active; 'I' for Inactive)
REMARK    1  A    between atoms: C_1  and  C_2
REMARK    2  A    between atoms: C_2  and  C_3
REMARK    3  A    between atoms: C_3  and  N_4
REMARK    4  A    between atoms: N_4  and  C_5
REMARK    5  A    between atoms: N_4  and  C_7
REMARK    6  A    between atoms: C_5  and  C_6
REMARK    7  A    between atoms: C_7  and  C_8
REMARK    8  A    between atoms: C_7  and  C_10
REMARK    9  A    between atoms: C_8  and  C_9
REMARK   10  A    between atoms: N_12  and  C_13
REMARK   11  A    between atoms: C_14  and  C_15
REMARK   12  A    between atoms: C_19  and  C_20
REMARK                            x       y       z     vdW  Elec       q    Type
REMARK                         _______ _______ _______ _____ _____    ______ ____
ROOT
ATOM      1  C   UNL     1      -5.548  -1.568 127.251  0.00  0.00    +0.000 C 
ATOM      2  O   UNL     1      -5.324  -0.641 128.018  0.00  0.00    +0.000 OA
ATOM      3  N   UNL     1      -5.666  -2.896 127.711  0.00  0.00    +0.000 N 
ATOM      4  H   UNL     1      -5.380  -3.645 127.097  0.00  0.00    +0.000 HD
ENDROOT
BRANCH   3   5
ATOM      5  C   UNL     1      -5.660  -3.168 129.116  0.00  0.00    +0.000 A 
ATOM      6  C   UNL     1      -6.871  -3.126 129.846  0.00  0.00    +0.000 A 
ATOM      7  C   UNL     1      -8.218  -2.911 129.210  0.00  0.00    +0.000 C 
ATOM      8  C   UNL     1      -6.857  -3.325 131.238  0.00  0.00    +0.000 A 
ATOM      9  C   UNL     1      -5.671  -3.589 131.910  0.00  0.00    +0.000 A 
ATOM     10  C   UNL     1      -4.483  -3.676 131.193  0.00  0.00    +0.000 A 
ATOM     11  C   UNL     1      -4.459  -3.487 129.794  0.00  0.00    +0.000 A 
ATOM     12  C   UNL     1      -3.119  -3.550 129.115  0.00  0.00    +0.000 C 
ENDBRANCH   3   5
BRANCH   1  13
ATOM     13  C   UNL     1      -5.709  -1.337 125.686  0.00  0.00    +0.000 C 
BRANCH  13  14
ATOM     14  C   UNL     1      -6.856  -0.285 125.544  0.00  0.00    +0.000 C 
ATOM     15  C   UNL     1      -6.724   0.827 124.504  0.00  0.00    +0.000 C 
ENDBRANCH  13  14
BRANCH  13  16
ATOM     16  N   UNL     1      -5.932  -2.678 124.987  0.00  0.00    +0.000 NA
BRANCH  16  17
ATOM     17  C   UNL     1      -4.913  -2.920 123.940  0.00  0.00    +0.000 C 
ATOM     18  C   UNL     1      -4.524  -4.383 123.742  0.00  0.00    +0.000 C 
ENDBRANCH  16  17
BRANCH  16  19
ATOM     19  C   UNL     1      -7.291  -2.815 124.444  0.00  0.00    +0.000 C 
BRANCH  19  21
ATOM     20  C   UNL     1      -9.444  -3.015 125.742  0.00  0.00    +0.000 C 
ATOM     21  C   UNL     1      -8.289  -3.759 125.108  0.00  0.00    +0.000 C 
ENDBRANCH  19  21
ENDBRANCH  16  19
ENDBRANCH  13  16
ENDBRANCH   1  13
TORSDOF 7
ENDMDL
MODEL 8
REMARK VINA RESULT:      -5.7      5.383      7.563
REMARK  Name = Etidocaine
REMARK  12 active torsions:
REMARK  status: ('A' for Active; 'I' for Inactive)
REMARK    1  A    between atoms: C_1  and  C_2
REMARK    2  A    between atoms: C_2  and  C_3
REMARK    3  A    between atoms: C_3  and  N_4
REMARK    4  A    between atoms: N_4  and  C_5
REMARK    5  A    between atoms: N_4  and  C_7
REMARK    6  A    between atoms: C_5  and  C_6
REMARK    7  A    between atoms: C_7  and  C_8
REMARK    8  A    between atoms: C_7  and  C_10
REMARK    9  A    between atoms: C_8  and  C_9
REMARK   10  A    between atoms: N_12  and  C_13
REMARK   11  A    between atoms: C_14  and  C_15
REMARK   12  A    between atoms: C_19  and  C_20
REMARK                            x       y       z     vdW  Elec       q    Type
REMARK                         _______ _______ _______ _____ _____    ______ ____
ROOT
ATOM      1  C   UNL     1      -8.947   5.866 130.103  0.00  0.00    +0.000 C 
ATOM      2  O   UNL     1      -8.523   6.971 130.415  0.00  0.00    +0.000 OA
ATOM      3  N   UNL     1     -10.279   5.678 129.680  0.00  0.00    +0.000 N 
ATOM      4  H   UNL     1     -10.727   4.796 129.881  0.00  0.00    +0.000 HD
ENDROOT
BRANCH   3   5
ATOM      5  C   UNL     1     -11.129   6.810 129.475  0.00  0.00    +0.000 A 
ATOM      6  C   UNL     1     -11.154   7.455 128.217  0.00  0.00    +0.000 A 
ATOM      7  C   UNL     1     -10.403   6.954 127.012  0.00  0.00    +0.000 C 
ATOM      8  C   UNL     1     -11.937   8.609 128.035  0.00  0.00    +0.000 A 
ATOM      9  C   UNL     1     -12.713   9.115 129.069  0.00  0.00    +0.000 A 
ATOM     10  C   UNL     1     -12.729   8.461 130.296  0.00  0.00    +0.000 A 
ATOM     11  C   UNL     1     -11.959   7.298 130.514  0.00  0.00    +0.000 A 
ATOM     12  C   UNL     1     -12.003   6.692 131.890  0.00  0.00    +0.000 C 
ENDBRANCH   3   5
BRANCH   1  13
ATOM     13  C   UNL     1      -8.027   4.571 130.166  0.00  0.00    +0.000 C 
BRANCH  13  14
ATOM     14  C   UNL     1      -8.911   3.412 129.603  0.00  0.00    +0.000 C 
ATOM     15  C   UNL     1      -8.269   2.349 128.712  0.00  0.00    +0.000 C 
ENDBRANCH  13  14
BRANCH  13  16
ATOM     16  N   UNL     1      -7.495   4.385 131.587  0.00  0.00    +0.000 NA
BRANCH  16  17
ATOM     17  C   UNL     1      -6.020   4.246 131.600  0.00  0.00    +0.000 C 
ATOM     18  C   UNL     1      -5.328   4.574 130.280  0.00  0.00    +0.000 C 
ENDBRANCH  16  17
BRANCH  16  19
ATOM     19  C   UNL     1      -8.138   3.267 132.291  0.00  0.00    +0.000 C 
BRANCH  19  21
ATOM     20  C   UNL     1      -8.309   4.350 134.563  0.00  0.00    +0.000 C 
ATOM     21  C   UNL     1      -9.023   3.535 133.505  0.00  0.00    +0.000 C 
ENDBRANCH  19  21
ENDBRANCH  16  19
ENDBRANCH  13  16
ENDBRANCH   1  13
TORSDOF 7
ENDMDL
MODEL 9
REMARK VINA RESULT:      -5.6      4.316      7.672
REMARK  Name = Etidocaine
REMARK  12 active torsions:
REMARK  status: ('A' for Active; 'I' for Inactive)
REMARK    1  A    between atoms: C_1  and  C_2
REMARK    2  A    between atoms: C_2  and  C_3
REMARK    3  A    between atoms: C_3  and  N_4
REMARK    4  A    between atoms: N_4  and  C_5
REMARK    5  A    between atoms: N_4  and  C_7
REMARK    6  A    between atoms: C_5  and  C_6
REMARK    7  A    between atoms: C_7  and  C_8
REMARK    8  A    between atoms: C_7  and  C_10
REMARK    9  A    between atoms: C_8  and  C_9
REMARK   10  A    between atoms: N_12  and  C_13
REMARK   11  A    between atoms: C_14  and  C_15
REMARK   12  A    between atoms: C_19  and  C_20
REMARK                            x       y       z     vdW  Elec       q    Type
REMARK                         _______ _______ _______ _____ _____    ______ ____
ROOT
ATOM      1  C   UNL     1      -8.067  -0.408 125.548  0.00  0.00    +0.000 C 
ATOM      2  O   UNL     1      -8.835   0.146 126.324  0.00  0.00    +0.000 OA
ATOM      3  N   UNL     1      -7.238  -1.471 125.962  0.00  0.00    +0.000 N 
ATOM      4  H   UNL     1      -6.342  -1.586 125.512  0.00  0.00    +0.000 HD
ENDROOT
BRANCH   3   5
ATOM      5  C   UNL     1      -7.380  -2.016 127.278  0.00  0.00    +0.000 A 
ATOM      6  C   UNL     1      -8.394  -2.967 127.540  0.00  0.00    +0.000 A 
ATOM      7  C   UNL     1      -9.292  -3.539 126.477  0.00  0.00    +0.000 C 
ATOM      8  C   UNL     1      -8.579  -3.452 128.848  0.00  0.00    +0.000 A 
ATOM      9  C   UNL     1      -7.761  -3.030 129.888  0.00  0.00    +0.000 A 
ATOM     10  C   UNL     1      -6.734  -2.129 129.629  0.00  0.00    +0.000 A 
ATOM     11  C   UNL     1      -6.515  -1.625 128.329  0.00  0.00    +0.000 A 
ATOM     12  C   UNL     1      -5.413  -0.616 128.159  0.00  0.00    +0.000 C 
ENDBRANCH   3   5
BRANCH   1  13
ATOM     13  C   UNL     1      -7.947   0.042 124.028  0.00  0.00    +0.000 C 
BRANCH  13  14
ATOM     14  C   UNL     1      -6.595  -0.562 123.528  0.00  0.00    +0.000 C 
ATOM     15  C   UNL     1      -6.620  -1.737 122.551  0.00  0.00    +0.000 C 
ENDBRANCH  13  14
BRANCH  13  16
ATOM     16  N   UNL     1      -8.085   1.562 123.928  0.00  0.00    +0.000 NA
BRANCH  16  17
ATOM     17  C   UNL     1      -9.229   1.946 123.069  0.00  0.00    +0.000 C 
ATOM     18  C   UNL     1     -10.109   0.788 122.607  0.00  0.00    +0.000 C 
ENDBRANCH  16  17
BRANCH  16  19
ATOM     19  C   UNL     1      -6.847   2.216 123.484  0.00  0.00    +0.000 C 
BRANCH  19  21
ATOM     20  C   UNL     1      -5.898   3.107 121.323  0.00  0.00    +0.000 C 
ATOM     21  C   UNL     1      -6.901   3.324 122.436  0.00  0.00    +0.000 C 
ENDBRANCH  19  21
ENDBRANCH  16  19
ENDBRANCH  13  16
ENDBRANCH   1  13
TORSDOF 7
ENDMDL
