MODEL 1
REMARK VINA RESULT:      -5.2      0.000      0.000
REMARK  Name = Etidronic acid
REMARK  8 active torsions:
REMARK  status: ('A' for Active; 'I' for Inactive)
REMARK    1  A    between atoms: C_1  and  C_2
REMARK    2  A    between atoms: C_2  and  O_3
REMARK    3  A    between atoms: C_2  and  P_4
REMARK    4  A    between atoms: C_2  and  P_8
REMARK    5  A    between atoms: P_4  and  O_5
REMARK    6  A    between atoms: P_4  and  O_6
REMARK    7  A    between atoms: P_8  and  O_9
REMARK    8  A    between atoms: P_8  and  O_10
REMARK                            x       y       z     vdW  Elec       q    Type
REMARK                         _______ _______ _______ _____ _____    ______ ____
ROOT
ATOM      1  C   UNL     1     -13.859   7.307 127.745  0.00  0.00    +0.000 C 
ATOM      2  C   UNL     1     -12.524   7.695 128.380  0.00  0.00    +0.000 C 
ENDROOT
BRANCH   2   3
ATOM      3  O   UNL     1     -12.421   9.155 128.402  0.00  0.00    +0.000 OA
ATOM      4  H   UNL     1     -13.001   9.532 129.083  0.00  0.00    +0.000 HD
ENDBRANCH   2   3
BRANCH   2   5
ATOM      5  P   UNL     1     -12.398   7.026 130.079  0.00  0.00    +0.000 P 
ATOM      6  O   UNL     1     -12.291   6.460 131.516  0.00  0.00    +0.000 OA
BRANCH   5   7
ATOM      7  O   UNL     1     -12.114   5.523 129.483  0.00  0.00    +0.000 OA
ATOM      8  H   UNL     1     -12.990   5.160 129.169  0.00  0.00    +0.000 HD
ENDBRANCH   5   7
BRANCH   5   9
ATOM      9  O   UNL     1     -10.820   7.547 130.152  0.00  0.00    +0.000 OA
ATOM     10  H   UNL     1     -10.577   8.422 129.893  0.00  0.00    +0.000 HD
ENDBRANCH   5   9
ENDBRANCH   2   5
BRANCH   2  11
ATOM     11  P   UNL     1     -11.120   7.085 127.379  0.00  0.00    +0.000 P 
ATOM     12  O   UNL     1      -9.930   6.569 126.532  0.00  0.00    +0.000 OA
BRANCH  11  13
ATOM     13  O   UNL     1     -12.091   6.786 126.095  0.00  0.00    +0.000 OA
ATOM     14  H   UNL     1     -12.178   7.493 125.408  0.00  0.00    +0.000 HD
ENDBRANCH  11  13
BRANCH  11  15
ATOM     15  O   UNL     1     -10.714   8.672 127.207  0.00  0.00    +0.000 OA
ATOM     16  H   UNL     1     -10.194   9.017 127.967  0.00  0.00    +0.000 HD
ENDBRANCH  11  15
ENDBRANCH   2  11
TORSDOF 7
ENDMDL
MODEL 2
REMARK VINA RESULT:      -5.1      1.561      2.706
REMARK  Name = Etidronic acid
REMARK  8 active torsions:
REMARK  status: ('A' for Active; 'I' for Inactive)
REMARK    1  A    between atoms: C_1  and  C_2
REMARK    2  A    between atoms: C_2  and  O_3
REMARK    3  A    between atoms: C_2  and  P_4
REMARK    4  A    between atoms: C_2  and  P_8
REMARK    5  A    between atoms: P_4  and  O_5
REMARK    6  A    between atoms: P_4  and  O_6
REMARK    7  A    between atoms: P_8  and  O_9
REMARK    8  A    between atoms: P_8  and  O_10
REMARK                            x       y       z     vdW  Elec       q    Type
REMARK                         _______ _______ _______ _____ _____    ______ ____
ROOT
ATOM      1  C   UNL     1     -10.150   6.976 129.337  0.00  0.00    +0.000 C 
ATOM      2  C   UNL     1     -11.438   7.259 128.563  0.00  0.00    +0.000 C 
ENDROOT
BRANCH   2   3
ATOM      3  O   UNL     1     -12.276   6.059 128.593  0.00  0.00    +0.000 OA
ATOM      4  H   UNL     1     -11.827   5.336 129.060  0.00  0.00    +0.000 HD
ENDBRANCH   2   3
BRANCH   2   5
ATOM      5  P   UNL     1     -12.334   8.677 129.293  0.00  0.00    +0.000 P 
ATOM      6  O   UNL     1     -13.092   9.877 129.912  0.00  0.00    +0.000 OA
BRANCH   5   7
ATOM      7  O   UNL     1     -13.549   8.489 128.207  0.00  0.00    +0.000 OA
ATOM      8  H   UNL     1     -13.355   9.099 127.439  0.00  0.00    +0.000 HD
ENDBRANCH   5   7
BRANCH   5   9
ATOM      9  O   UNL     1     -12.928   7.673 130.479  0.00  0.00    +0.000 OA
ATOM     10  H   UNL     1     -12.397   6.989 130.858  0.00  0.00    +0.000 HD
ENDBRANCH   5   9
ENDBRANCH   2   5
BRANCH   2  11
ATOM     11  P   UNL     1     -11.080   7.605 126.802  0.00  0.00    +0.000 P 
ATOM     12  O   UNL     1     -10.779   7.898 125.312  0.00  0.00    +0.000 OA
BRANCH  11  13
ATOM     13  O   UNL     1      -9.803   6.579 126.800  0.00  0.00    +0.000 OA
ATOM     14  H   UNL     1      -9.934   5.680 127.192  0.00  0.00    +0.000 HD
ENDBRANCH  11  13
BRANCH  11  15
ATOM     15  O   UNL     1     -12.370   6.632 126.479  0.00  0.00    +0.000 OA
ATOM     16  H   UNL     1     -12.219   5.698 126.748  0.00  0.00    +0.000 HD
ENDBRANCH  11  15
ENDBRANCH   2  11
TORSDOF 7
ENDMDL
MODEL 3
REMARK VINA RESULT:      -5.1      1.662      3.789
REMARK  Name = Etidronic acid
REMARK  8 active torsions:
REMARK  status: ('A' for Active; 'I' for Inactive)
REMARK    1  A    between atoms: C_1  and  C_2
REMARK    2  A    between atoms: C_2  and  O_3
REMARK    3  A    between atoms: C_2  and  P_4
REMARK    4  A    between atoms: C_2  and  P_8
REMARK    5  A    between atoms: P_4  and  O_5
REMARK    6  A    between atoms: P_4  and  O_6
REMARK    7  A    between atoms: P_8  and  O_9
REMARK    8  A    between atoms: P_8  and  O_10
REMARK                            x       y       z     vdW  Elec       q    Type
REMARK                         _______ _______ _______ _____ _____    ______ ____
ROOT
ATOM      1  C   UNL     1     -12.252   8.407 129.361  0.00  0.00    +0.000 C 
ATOM      2  C   UNL     1     -11.631   7.197 128.662  0.00  0.00    +0.000 C 
ENDROOT
BRANCH   2   3
ATOM      3  O   UNL     1     -12.609   6.108 128.655  0.00  0.00    +0.000 OA
ATOM      4  H   UNL     1     -12.960   5.953 129.547  0.00  0.00    +0.000 HD
ENDBRANCH   2   3
BRANCH   2   5
ATOM      5  P   UNL     1     -11.141   7.621 126.951  0.00  0.00    +0.000 P 
ATOM      6  O   UNL     1     -10.726   7.980 125.503  0.00  0.00    +0.000 OA
BRANCH   5   7
ATOM      7  O   UNL     1      -9.907   6.541 127.020  0.00  0.00    +0.000 OA
ATOM      8  H   UNL     1      -9.279   6.763 126.275  0.00  0.00    +0.000 HD
ENDBRANCH   5   7
BRANCH   5   9
ATOM      9  O   UNL     1     -12.315   6.593 126.375  0.00  0.00    +0.000 OA
ATOM     10  H   UNL     1     -12.289   5.666 126.553  0.00  0.00    +0.000 HD
ENDBRANCH   5   9
ENDBRANCH   2   5
BRANCH   2  11
ATOM     11  P   UNL     1     -10.173   6.587 129.582  0.00  0.00    +0.000 P 
ATOM     12  O   UNL     1      -8.938   6.069 130.361  0.00  0.00    +0.000 OA
BRANCH  11  13
ATOM     13  O   UNL     1      -9.381   8.007 129.383  0.00  0.00    +0.000 OA
ATOM     14  H   UNL     1      -9.028   8.216 128.483  0.00  0.00    +0.000 HD
ENDBRANCH  11  13
BRANCH  11  15
ATOM     15  O   UNL     1     -11.081   6.826 130.935  0.00  0.00    +0.000 OA
ATOM     16  H   UNL     1     -10.824   7.636 131.428  0.00  0.00    +0.000 HD
ENDBRANCH  11  15
ENDBRANCH   2  11
TORSDOF 7
ENDMDL
MODEL 4
REMARK VINA RESULT:      -5.0      1.351      3.765
REMARK  Name = Etidronic acid
REMARK  8 active torsions:
REMARK  status: ('A' for Active; 'I' for Inactive)
REMARK    1  A    between atoms: C_1  and  C_2
REMARK    2  A    between atoms: C_2  and  O_3
REMARK    3  A    between atoms: C_2  and  P_4
REMARK    4  A    between atoms: C_2  and  P_8
REMARK    5  A    between atoms: P_4  and  O_5
REMARK    6  A    between atoms: P_4  and  O_6
REMARK    7  A    between atoms: P_8  and  O_9
REMARK    8  A    between atoms: P_8  and  O_10
REMARK                            x       y       z     vdW  Elec       q    Type
REMARK                         _______ _______ _______ _____ _____    ______ ____
ROOT
ATOM      1  C   UNL     1     -12.738   9.091 129.013  0.00  0.00    +0.000 C 
ATOM      2  C   UNL     1     -12.326   7.693 128.553  0.00  0.00    +0.000 C 
ENDROOT
BRANCH   2   3
ATOM      3  O   UNL     1     -13.532   6.878 128.393  0.00  0.00    +0.000 OA
ATOM      4  H   UNL     1     -14.243   7.197 128.973  0.00  0.00    +0.000 HD
ENDBRANCH   2   3
BRANCH   2   5
ATOM      5  P   UNL     1     -11.406   7.778 126.973  0.00  0.00    +0.000 P 
ATOM      6  O   UNL     1     -10.627   7.850 125.637  0.00  0.00    +0.000 OA
BRANCH   5   7
ATOM      7  O   UNL     1     -10.200   6.864 127.608  0.00  0.00    +0.000 OA
ATOM      8  H   UNL     1      -9.336   7.302 127.361  0.00  0.00    +0.000 HD
ENDBRANCH   5   7
BRANCH   5   9
ATOM      9  O   UNL     1     -12.343   6.540 126.376  0.00  0.00    +0.000 OA
ATOM     10  H   UNL     1     -12.111   5.635 126.515  0.00  0.00    +0.000 HD
ENDBRANCH   5   9
ENDBRANCH   2   5
BRANCH   2  11
ATOM     11  P   UNL     1     -11.295   6.864 129.816  0.00  0.00    +0.000 P 
ATOM     12  O   UNL     1     -10.422   6.161 130.884  0.00  0.00    +0.000 OA
BRANCH  11  13
ATOM     13  O   UNL     1     -12.274   7.367 131.028  0.00  0.00    +0.000 OA
ATOM     14  H   UNL     1     -13.223   7.544 130.811  0.00  0.00    +0.000 HD
ENDBRANCH  11  13
BRANCH  11  15
ATOM     15  O   UNL     1     -11.998   5.469 129.293  0.00  0.00    +0.000 OA
ATOM     16  H   UNL     1     -11.497   4.666 129.561  0.00  0.00    +0.000 HD
ENDBRANCH  11  15
ENDBRANCH   2  11
TORSDOF 7
ENDMDL
MODEL 5
REMARK VINA RESULT:      -4.8      2.047      4.253
REMARK  Name = Etidronic acid
REMARK  8 active torsions:
REMARK  status: ('A' for Active; 'I' for Inactive)
REMARK    1  A    between atoms: C_1  and  C_2
REMARK    2  A    between atoms: C_2  and  O_3
REMARK    3  A    between atoms: C_2  and  P_4
REMARK    4  A    between atoms: C_2  and  P_8
REMARK    5  A    between atoms: P_4  and  O_5
REMARK    6  A    between atoms: P_4  and  O_6
REMARK    7  A    between atoms: P_8  and  O_9
REMARK    8  A    between atoms: P_8  and  O_10
REMARK                            x       y       z     vdW  Elec       q    Type
REMARK                         _______ _______ _______ _____ _____    ______ ____
ROOT
ATOM      1  C   UNL     1     -12.752   7.188 130.859  0.00  0.00    +0.000 C 
ATOM      2  C   UNL     1     -11.505   6.633 130.172  0.00  0.00    +0.000 C 
ENDROOT
BRANCH   2   3
ATOM      3  O   UNL     1     -11.803   5.290 129.672  0.00  0.00    +0.000 OA
ATOM      4  H   UNL     1     -11.239   5.071 128.913  0.00  0.00    +0.000 HD
ENDBRANCH   2   3
BRANCH   2   5
ATOM      5  P   UNL     1     -10.988   7.721 128.794  0.00  0.00    +0.000 P 
ATOM      6  O   UNL     1     -10.551   8.642 127.628  0.00  0.00    +0.000 OA
BRANCH   5   7
ATOM      7  O   UNL     1      -9.497   7.884 129.460  0.00  0.00    +0.000 OA
ATOM      8  H   UNL     1      -8.900   7.220 129.012  0.00  0.00    +0.000 HD
ENDBRANCH   5   7
BRANCH   5   9
ATOM      9  O   UNL     1     -10.680   6.376 127.865  0.00  0.00    +0.000 OA
ATOM     10  H   UNL     1      -9.890   6.302 127.353  0.00  0.00    +0.000 HD
ENDBRANCH   5   9
ENDBRANCH   2   5
BRANCH   2  11
ATOM     11  P   UNL     1     -10.125   6.457 131.359  0.00  0.00    +0.000 P 
ATOM     12  O   UNL     1      -8.956   6.307 132.364  0.00  0.00    +0.000 OA
BRANCH  11  13
ATOM     13  O   UNL     1     -11.122   5.868 132.518  0.00  0.00    +0.000 OA
ATOM     14  H   UNL     1     -10.763   5.173 133.124  0.00  0.00    +0.000 HD
ENDBRANCH  11  13
BRANCH  11  15
ATOM     15  O   UNL     1      -9.706   5.126 130.484  0.00  0.00    +0.000 OA
ATOM     16  H   UNL     1      -8.739   4.953 130.493  0.00  0.00    +0.000 HD
ENDBRANCH  11  15
ENDBRANCH   2  11
TORSDOF 7
ENDMDL
MODEL 6
REMARK VINA RESULT:      -4.7      4.009      5.825
REMARK  Name = Etidronic acid
REMARK  8 active torsions:
REMARK  status: ('A' for Active; 'I' for Inactive)
REMARK    1  A    between atoms: C_1  and  C_2
REMARK    2  A    between atoms: C_2  and  O_3
REMARK    3  A    between atoms: C_2  and  P_4
REMARK    4  A    between atoms: C_2  and  P_8
REMARK    5  A    between atoms: P_4  and  O_5
REMARK    6  A    between atoms: P_4  and  O_6
REMARK    7  A    between atoms: P_8  and  O_9
REMARK    8  A    between atoms: P_8  and  O_10
REMARK                            x       y       z     vdW  Elec       q    Type
REMARK                         _______ _______ _______ _____ _____    ______ ____
ROOT
ATOM      1  C   UNL     1      -8.312   6.463 131.464  0.00  0.00    +0.000 C 
ATOM      2  C   UNL     1      -9.505   5.690 132.025  0.00  0.00    +0.000 C 
ENDROOT
BRANCH   2   3
ATOM      3  O   UNL     1     -10.029   6.413 133.186  0.00  0.00    +0.000 OA
ATOM      4  H   UNL     1      -9.973   7.373 133.048  0.00  0.00    +0.000 HD
ENDBRANCH   2   3
BRANCH   2   5
ATOM      5  P   UNL     1     -10.809   5.503 130.754  0.00  0.00    +0.000 P 
ATOM      6  O   UNL     1     -11.912   5.345 129.679  0.00  0.00    +0.000 OA
BRANCH   5   7
ATOM      7  O   UNL     1     -10.820   3.878 130.982  0.00  0.00    +0.000 OA
ATOM      8  H   UNL     1     -10.257   3.689 131.786  0.00  0.00    +0.000 HD
ENDBRANCH   5   7
BRANCH   5   9
ATOM      9  O   UNL     1     -11.955   5.903 131.891  0.00  0.00    +0.000 OA
ATOM     10  H   UNL     1     -11.878   5.621 132.789  0.00  0.00    +0.000 HD
ENDBRANCH   5   9
ENDBRANCH   2   5
BRANCH   2  11
ATOM     11  P   UNL     1      -8.994   4.038 132.622  0.00  0.00    +0.000 P 
ATOM     12  O   UNL     1      -8.562   2.640 133.128  0.00  0.00    +0.000 OA
BRANCH  11  13
ATOM     13  O   UNL     1      -7.619   4.638 133.279  0.00  0.00    +0.000 OA
ATOM     14  H   UNL     1      -7.707   5.320 133.990  0.00  0.00    +0.000 HD
ENDBRANCH  11  13
BRANCH  11  15
ATOM     15  O   UNL     1     -10.122   4.254 133.803  0.00  0.00    +0.000 OA
ATOM     16  H   UNL     1     -10.019   3.621 134.548  0.00  0.00    +0.000 HD
ENDBRANCH  11  15
ENDBRANCH   2  11
TORSDOF 7
ENDMDL
MODEL 7
REMARK VINA RESULT:      -4.6      2.299      3.450
REMARK  Name = Etidronic acid
REMARK  8 active torsions:
REMARK  status: ('A' for Active; 'I' for Inactive)
REMARK    1  A    between atoms: C_1  and  C_2
REMARK    2  A    between atoms: C_2  and  O_3
REMARK    3  A    between atoms: C_2  and  P_4
REMARK    4  A    between atoms: C_2  and  P_8
REMARK    5  A    between atoms: P_4  and  O_5
REMARK    6  A    between atoms: P_4  and  O_6
REMARK    7  A    between atoms: P_8  and  O_9
REMARK    8  A    between atoms: P_8  and  O_10
REMARK                            x       y       z     vdW  Elec       q    Type
REMARK                         _______ _______ _______ _____ _____    ______ ____
ROOT
ATOM      1  C   UNL     1     -11.826   6.583 131.603  0.00  0.00    +0.000 C 
ATOM      2  C   UNL     1     -11.262   6.370 130.198  0.00  0.00    +0.000 C 
ENDROOT
BRANCH   2   3
ATOM      3  O   UNL     1     -11.674   5.049 129.721  0.00  0.00    +0.000 OA
ATOM      4  H   UNL     1     -11.081   4.359 130.061  0.00  0.00    +0.000 HD
ENDBRANCH   2   3
BRANCH   2   5
ATOM      5  P   UNL     1     -11.861   7.670 129.058  0.00  0.00    +0.000 P 
ATOM      6  O   UNL     1     -12.369   8.771 128.094  0.00  0.00    +0.000 OA
BRANCH   5   7
ATOM      7  O   UNL     1     -11.580   6.694 127.770  0.00  0.00    +0.000 OA
ATOM      8  H   UNL     1     -12.211   6.970 127.046  0.00  0.00    +0.000 HD
ENDBRANCH   5   7
BRANCH   5   9
ATOM      9  O   UNL     1     -13.427   7.199 129.366  0.00  0.00    +0.000 OA
ATOM     10  H   UNL     1     -13.655   6.290 129.478  0.00  0.00    +0.000 HD
ENDBRANCH   5   9
ENDBRANCH   2   5
BRANCH   2  11
ATOM     11  P   UNL     1      -9.433   6.373 130.218  0.00  0.00    +0.000 P 
ATOM     12  O   UNL     1      -7.884   6.377 130.235  0.00  0.00    +0.000 OA
BRANCH  11  13
ATOM     13  O   UNL     1      -9.360   5.263 129.016  0.00  0.00    +0.000 OA
ATOM     14  H   UNL     1     -10.112   5.230 128.374  0.00  0.00    +0.000 HD
ENDBRANCH  11  13
BRANCH  11  15
ATOM     15  O   UNL     1      -9.551   7.811 129.422  0.00  0.00    +0.000 OA
ATOM     16  H   UNL     1      -8.678   8.157 129.130  0.00  0.00    +0.000 HD
ENDBRANCH  11  15
ENDBRANCH   2  11
TORSDOF 7
ENDMDL
MODEL 8
REMARK VINA RESULT:      -4.6      2.471      4.231
REMARK  Name = Etidronic acid
REMARK  8 active torsions:
REMARK  status: ('A' for Active; 'I' for Inactive)
REMARK    1  A    between atoms: C_1  and  C_2
REMARK    2  A    between atoms: C_2  and  O_3
REMARK    3  A    between atoms: C_2  and  P_4
REMARK    4  A    between atoms: C_2  and  P_8
REMARK    5  A    between atoms: P_4  and  O_5
REMARK    6  A    between atoms: P_4  and  O_6
REMARK    7  A    between atoms: P_8  and  O_9
REMARK    8  A    between atoms: P_8  and  O_10
REMARK                            x       y       z     vdW  Elec       q    Type
REMARK                         _______ _______ _______ _____ _____    ______ ____
ROOT
ATOM      1  C   UNL     1      -9.022   6.834 130.931  0.00  0.00    +0.000 C 
ATOM      2  C   UNL     1     -10.530   6.606 130.821  0.00  0.00    +0.000 C 
ENDROOT
BRANCH   2   3
ATOM      3  O   UNL     1     -11.144   6.896 132.118  0.00  0.00    +0.000 OA
ATOM      4  H   UNL     1     -10.589   6.566 132.844  0.00  0.00    +0.000 HD
ENDBRANCH   2   3
BRANCH   2   5
ATOM      5  P   UNL     1     -11.252   7.676 129.524  0.00  0.00    +0.000 P 
ATOM      6  O   UNL     1     -11.864   8.581 128.426  0.00  0.00    +0.000 OA
BRANCH   5   7
ATOM      7  O   UNL     1      -9.817   7.707 128.728  0.00  0.00    +0.000 OA
ATOM      8  H   UNL     1      -9.853   8.473 128.086  0.00  0.00    +0.000 HD
ENDBRANCH   5   7
BRANCH   5   9
ATOM      9  O   UNL     1     -11.894   6.328 128.789  0.00  0.00    +0.000 OA
ATOM     10  H   UNL     1     -12.753   6.007 129.013  0.00  0.00    +0.000 HD
ENDBRANCH   5   9
ENDBRANCH   2   5
BRANCH   2  11
ATOM     11  P   UNL     1     -10.902   4.855 130.444  0.00  0.00    +0.000 P 
ATOM     12  O   UNL     1     -11.217   3.373 130.126  0.00  0.00    +0.000 OA
BRANCH  11  13
ATOM     13  O   UNL     1      -9.630   4.746 129.418  0.00  0.00    +0.000 OA
ATOM     14  H   UNL     1      -9.280   3.844 129.213  0.00  0.00    +0.000 HD
ENDBRANCH  11  13
BRANCH  11  15
ATOM     15  O   UNL     1     -10.247   4.529 131.920  0.00  0.00    +0.000 OA
ATOM     16  H   UNL     1      -9.663   5.249 132.246  0.00  0.00    +0.000 HD
ENDBRANCH  11  15
ENDBRANCH   2  11
TORSDOF 7
ENDMDL
MODEL 9
REMARK VINA RESULT:      -4.5      1.907      2.980
REMARK  Name = Etidronic acid
REMARK  8 active torsions:
REMARK  status: ('A' for Active; 'I' for Inactive)
REMARK    1  A    between atoms: C_1  and  C_2
REMARK    2  A    between atoms: C_2  and  O_3
REMARK    3  A    between atoms: C_2  and  P_4
REMARK    4  A    between atoms: C_2  and  P_8
REMARK    5  A    between atoms: P_4  and  O_5
REMARK    6  A    between atoms: P_4  and  O_6
REMARK    7  A    between atoms: P_8  and  O_9
REMARK    8  A    between atoms: P_8  and  O_10
REMARK                            x       y       z     vdW  Elec       q    Type
REMARK                         _______ _______ _______ _____ _____    ______ ____
ROOT
ATOM      1  C   UNL     1     -11.597   7.366 126.946  0.00  0.00    +0.000 C 
ATOM      2  C   UNL     1     -11.252   7.942 128.319  0.00  0.00    +0.000 C 
ENDROOT
BRANCH   2   3
ATOM      3  O   UNL     1      -9.961   8.626 128.231  0.00  0.00    +0.000 OA
ATOM      4  H   UNL     1      -9.383   8.369 128.967  0.00  0.00    +0.000 HD
ENDBRANCH   2   3
BRANCH   2   5
ATOM      5  P   UNL     1     -12.549   9.107 128.875  0.00  0.00    +0.000 P 
ATOM      6  O   UNL     1     -13.647  10.093 129.345  0.00  0.00    +0.000 OA
BRANCH   5   7
ATOM      7  O   UNL     1     -13.689   8.250 128.064  0.00  0.00    +0.000 OA
ATOM      8  H   UNL     1     -14.125   8.875 127.417  0.00  0.00    +0.000 HD
ENDBRANCH   5   7
BRANCH   5   9
ATOM      9  O   UNL     1     -12.638   8.295 130.324  0.00  0.00    +0.000 OA
ATOM     10  H   UNL     1     -13.404   8.351 130.874  0.00  0.00    +0.000 HD
ENDBRANCH   5   9
ENDBRANCH   2   5
BRANCH   2  11
ATOM     11  P   UNL     1     -11.057   6.611 129.558  0.00  0.00    +0.000 P 
ATOM     12  O   UNL     1     -10.890   5.484 130.607  0.00  0.00    +0.000 OA
BRANCH  11  13
ATOM     13  O   UNL     1     -12.355   5.800 128.976  0.00  0.00    +0.000 OA
ATOM     14  H   UNL     1     -12.708   6.069 128.092  0.00  0.00    +0.000 HD
ENDBRANCH  11  13
BRANCH  11  15
ATOM     15  O   UNL     1      -9.810   6.089 128.617  0.00  0.00    +0.000 OA
ATOM     16  H   UNL     1      -9.102   6.764 128.514  0.00  0.00    +0.000 HD
ENDBRANCH  11  15
ENDBRANCH   2  11
TORSDOF 7
ENDMDL
