MODEL 1
REMARK VINA RESULT:      -5.8      0.000      0.000
REMARK  Name = Etilefrine
REMARK  7 active torsions:
REMARK  status: ('A' for Active; 'I' for Inactive)
REMARK    1  A    between atoms: C_1  and  C_2
REMARK    2  A    between atoms: C_2  and  N_3
REMARK    3  A    between atoms: N_3  and  C_4
REMARK    4  A    between atoms: C_4  and  C_5
REMARK    5  A    between atoms: C_5  and  O_6
REMARK    6  A    between atoms: C_5  and  C_7
REMARK    7  A    between atoms: C_11  and  O_12
REMARK                            x       y       z     vdW  Elec       q    Type
REMARK                         _______ _______ _______ _____ _____    ______ ____
ROOT
ATOM      1  C   UNL     1     -11.616   6.164 130.761  0.00  0.00    +0.000 C 
ENDROOT
BRANCH   1   2
ATOM      2  C   UNL     1     -12.366   7.035 129.768  0.00  0.00    +0.000 A 
ATOM      3  C   UNL     1     -13.061   6.475 128.686  0.00  0.00    +0.000 A 
ATOM      4  C   UNL     1     -13.751   7.287 127.782  0.00  0.00    +0.000 A 
ATOM      5  C   UNL     1     -13.754   8.674 127.937  0.00  0.00    +0.000 A 
ATOM      6  C   UNL     1     -13.049   9.237 128.993  0.00  0.00    +0.000 A 
ATOM      7  C   UNL     1     -12.350   8.437 129.882  0.00  0.00    +0.000 A 
BRANCH   6   8
ATOM      8  O   UNL     1     -13.013  10.582 129.210  0.00  0.00    +0.000 OA
ATOM      9  H   UNL     1     -13.913  10.895 129.387  0.00  0.00    +0.000 HD
ENDBRANCH   6   8
ENDBRANCH   1   2
BRANCH   1  10
ATOM     10  O   UNL     1     -12.231   6.239 132.059  0.00  0.00    +0.000 OA
ATOM     11  H   UNL     1     -12.575   7.144 132.149  0.00  0.00    +0.000 HD
ENDBRANCH   1  10
BRANCH   1  12
ATOM     12  C   UNL     1     -10.138   6.596 130.907  0.00  0.00    +0.000 C 
BRANCH  12  13
ATOM     13  N   UNL     1      -9.640   6.424 132.273  0.00  0.00    +0.000 NA
ATOM     14  H   UNL     1      -9.793   7.290 132.794  0.00  0.00    +0.000 HD
BRANCH  13  16
ATOM     15  C   UNL     1      -7.541   6.811 131.129  0.00  0.00    +0.000 C 
ATOM     16  C   UNL     1      -8.231   6.055 132.247  0.00  0.00    +0.000 C 
ENDBRANCH  13  16
ENDBRANCH  12  13
ENDBRANCH   1  12
TORSDOF 6
ENDMDL
MODEL 2
REMARK VINA RESULT:      -5.5      2.516      5.427
REMARK  Name = Etilefrine
REMARK  7 active torsions:
REMARK  status: ('A' for Active; 'I' for Inactive)
REMARK    1  A    between atoms: C_1  and  C_2
REMARK    2  A    between atoms: C_2  and  N_3
REMARK    3  A    between atoms: N_3  and  C_4
REMARK    4  A    between atoms: C_4  and  C_5
REMARK    5  A    between atoms: C_5  and  O_6
REMARK    6  A    between atoms: C_5  and  C_7
REMARK    7  A    between atoms: C_11  and  O_12
REMARK                            x       y       z     vdW  Elec       q    Type
REMARK                         _______ _______ _______ _____ _____    ______ ____
ROOT
ATOM      1  C   UNL     1     -11.548   7.191 129.747  0.00  0.00    +0.000 C 
ENDROOT
BRANCH   1   2
ATOM      2  C   UNL     1     -10.396   6.766 130.641  0.00  0.00    +0.000 A 
ATOM      3  C   UNL     1      -9.080   7.174 130.379  0.00  0.00    +0.000 A 
ATOM      4  C   UNL     1      -8.030   6.779 131.211  0.00  0.00    +0.000 A 
ATOM      5  C   UNL     1      -8.273   5.963 132.318  0.00  0.00    +0.000 A 
ATOM      6  C   UNL     1      -9.570   5.537 132.570  0.00  0.00    +0.000 A 
ATOM      7  C   UNL     1     -10.612   5.912 131.737  0.00  0.00    +0.000 A 
BRANCH   6   8
ATOM      8  O   UNL     1      -9.881   4.745 133.635  0.00  0.00    +0.000 OA
ATOM      9  H   UNL     1     -10.080   3.852 133.315  0.00  0.00    +0.000 HD
ENDBRANCH   6   8
ENDBRANCH   1   2
BRANCH   1  10
ATOM     10  O   UNL     1     -11.996   6.085 128.945  0.00  0.00    +0.000 OA
ATOM     11  H   UNL     1     -12.092   6.423 128.038  0.00  0.00    +0.000 HD
ENDBRANCH   1  10
BRANCH   1  12
ATOM     12  C   UNL     1     -11.144   8.340 128.793  0.00  0.00    +0.000 C 
BRANCH  12  13
ATOM     13  N   UNL     1     -12.238   9.286 128.563  0.00  0.00    +0.000 NA
ATOM     14  H   UNL     1     -11.850  10.166 128.219  0.00  0.00    +0.000 HD
BRANCH  13  16
ATOM     15  C   UNL     1     -13.442  10.921 129.882  0.00  0.00    +0.000 C 
ATOM     16  C   UNL     1     -12.997   9.475 129.792  0.00  0.00    +0.000 C 
ENDBRANCH  13  16
ENDBRANCH  12  13
ENDBRANCH   1  12
TORSDOF 6
ENDMDL
MODEL 3
REMARK VINA RESULT:      -5.5      1.819      2.348
REMARK  Name = Etilefrine
REMARK  7 active torsions:
REMARK  status: ('A' for Active; 'I' for Inactive)
REMARK    1  A    between atoms: C_1  and  C_2
REMARK    2  A    between atoms: C_2  and  N_3
REMARK    3  A    between atoms: N_3  and  C_4
REMARK    4  A    between atoms: C_4  and  C_5
REMARK    5  A    between atoms: C_5  and  O_6
REMARK    6  A    between atoms: C_5  and  C_7
REMARK    7  A    between atoms: C_11  and  O_12
REMARK                            x       y       z     vdW  Elec       q    Type
REMARK                         _______ _______ _______ _____ _____    ______ ____
ROOT
ATOM      1  C   UNL     1     -11.222   5.990 131.111  0.00  0.00    +0.000 C 
ENDROOT
BRANCH   1   2
ATOM      2  C   UNL     1     -11.712   6.859 129.965  0.00  0.00    +0.000 A 
ATOM      3  C   UNL     1     -12.354   8.084 130.202  0.00  0.00    +0.000 A 
ATOM      4  C   UNL     1     -12.796   8.876 129.140  0.00  0.00    +0.000 A 
ATOM      5  C   UNL     1     -12.613   8.457 127.820  0.00  0.00    +0.000 A 
ATOM      6  C   UNL     1     -11.998   7.235 127.580  0.00  0.00    +0.000 A 
ATOM      7  C   UNL     1     -11.573   6.439 128.630  0.00  0.00    +0.000 A 
BRANCH   6   8
ATOM      8  O   UNL     1     -11.780   6.767 126.318  0.00  0.00    +0.000 OA
ATOM      9  H   UNL     1     -11.866   5.801 126.323  0.00  0.00    +0.000 HD
ENDBRANCH   6   8
ENDBRANCH   1   2
BRANCH   1  10
ATOM     10  O   UNL     1     -12.126   6.074 132.226  0.00  0.00    +0.000 OA
ATOM     11  H   UNL     1     -11.906   6.895 132.698  0.00  0.00    +0.000 HD
ENDBRANCH   1  10
BRANCH   1  12
ATOM     12  C   UNL     1      -9.818   6.418 131.600  0.00  0.00    +0.000 C 
BRANCH  12  13
ATOM     13  N   UNL     1      -9.650   6.230 133.043  0.00  0.00    +0.000 NA
ATOM     14  H   UNL     1      -9.463   7.136 133.477  0.00  0.00    +0.000 HD
BRANCH  13  16
ATOM     15  C   UNL     1      -9.165   4.007 133.871  0.00  0.00    +0.000 C 
ATOM     16  C   UNL     1      -8.576   5.280 133.298  0.00  0.00    +0.000 C 
ENDBRANCH  13  16
ENDBRANCH  12  13
ENDBRANCH   1  12
TORSDOF 6
ENDMDL
MODEL 4
REMARK VINA RESULT:      -5.5      1.608      1.945
REMARK  Name = Etilefrine
REMARK  7 active torsions:
REMARK  status: ('A' for Active; 'I' for Inactive)
REMARK    1  A    between atoms: C_1  and  C_2
REMARK    2  A    between atoms: C_2  and  N_3
REMARK    3  A    between atoms: N_3  and  C_4
REMARK    4  A    between atoms: C_4  and  C_5
REMARK    5  A    between atoms: C_5  and  O_6
REMARK    6  A    between atoms: C_5  and  C_7
REMARK    7  A    between atoms: C_11  and  O_12
REMARK                            x       y       z     vdW  Elec       q    Type
REMARK                         _______ _______ _______ _____ _____    ______ ____
ROOT
ATOM      1  C   UNL     1     -11.949   5.991 130.754  0.00  0.00    +0.000 C 
ENDROOT
BRANCH   1   2
ATOM      2  C   UNL     1     -12.548   6.992 129.782  0.00  0.00    +0.000 A 
ATOM      3  C   UNL     1     -13.166   6.575 128.594  0.00  0.00    +0.000 A 
ATOM      4  C   UNL     1     -13.717   7.506 127.709  0.00  0.00    +0.000 A 
ATOM      5  C   UNL     1     -13.655   8.872 127.991  0.00  0.00    +0.000 A 
ATOM      6  C   UNL     1     -13.024   9.293 129.154  0.00  0.00    +0.000 A 
ATOM      7  C   UNL     1     -12.462   8.375 130.026  0.00  0.00    +0.000 A 
BRANCH   6   8
ATOM      8  O   UNL     1     -12.933  10.609 129.496  0.00  0.00    +0.000 OA
ATOM      9  H   UNL     1     -13.827  10.976 129.576  0.00  0.00    +0.000 HD
ENDBRANCH   6   8
ENDBRANCH   1   2
BRANCH   1  10
ATOM     10  O   UNL     1     -12.183   6.407 132.111  0.00  0.00    +0.000 OA
ATOM     11  H   UNL     1     -11.551   5.916 132.663  0.00  0.00    +0.000 HD
ENDBRANCH   1  10
BRANCH   1  12
ATOM     12  C   UNL     1     -10.422   5.838 130.559  0.00  0.00    +0.000 C 
BRANCH  12  13
ATOM     13  N   UNL     1     -10.072   4.615 129.835  0.00  0.00    +0.000 NA
ATOM     14  H   UNL     1     -10.315   4.731 128.849  0.00  0.00    +0.000 HD
BRANCH  13  16
ATOM     15  C   UNL     1      -9.764   2.666 131.238  0.00  0.00    +0.000 C 
ATOM     16  C   UNL     1     -10.757   3.473 130.426  0.00  0.00    +0.000 C 
ENDBRANCH  13  16
ENDBRANCH  12  13
ENDBRANCH   1  12
TORSDOF 6
ENDMDL
MODEL 5
REMARK VINA RESULT:      -5.3      2.242      5.370
REMARK  Name = Etilefrine
REMARK  7 active torsions:
REMARK  status: ('A' for Active; 'I' for Inactive)
REMARK    1  A    between atoms: C_1  and  C_2
REMARK    2  A    between atoms: C_2  and  N_3
REMARK    3  A    between atoms: N_3  and  C_4
REMARK    4  A    between atoms: C_4  and  C_5
REMARK    5  A    between atoms: C_5  and  O_6
REMARK    6  A    between atoms: C_5  and  C_7
REMARK    7  A    between atoms: C_11  and  O_12
REMARK                            x       y       z     vdW  Elec       q    Type
REMARK                         _______ _______ _______ _____ _____    ______ ____
ROOT
ATOM      1  C   UNL     1     -11.356   6.666 130.932  0.00  0.00    +0.000 C 
ENDROOT
BRANCH   1   2
ATOM      2  C   UNL     1      -9.938   6.487 131.445  0.00  0.00    +0.000 A 
ATOM      3  C   UNL     1      -9.680   5.848 132.667  0.00  0.00    +0.000 A 
ATOM      4  C   UNL     1      -8.371   5.685 133.125  0.00  0.00    +0.000 A 
ATOM      5  C   UNL     1      -7.294   6.164 132.377  0.00  0.00    +0.000 A 
ATOM      6  C   UNL     1      -7.544   6.818 131.178  0.00  0.00    +0.000 A 
ATOM      7  C   UNL     1      -8.841   6.996 130.727  0.00  0.00    +0.000 A 
BRANCH   6   8
ATOM      8  O   UNL     1      -6.541   7.305 130.392  0.00  0.00    +0.000 OA
ATOM      9  H   UNL     1      -6.487   8.265 130.513  0.00  0.00    +0.000 HD
ENDBRANCH   6   8
ENDBRANCH   1   2
BRANCH   1  10
ATOM     10  O   UNL     1     -12.307   6.368 131.969  0.00  0.00    +0.000 OA
ATOM     11  H   UNL     1     -11.967   5.587 132.438  0.00  0.00    +0.000 HD
ENDBRANCH   1  10
BRANCH   1  12
ATOM     12  C   UNL     1     -11.656   5.740 129.729  0.00  0.00    +0.000 C 
BRANCH  12  13
ATOM     13  N   UNL     1     -11.761   6.479 128.469  0.00  0.00    +0.000 NA
ATOM     14  H   UNL     1     -10.877   6.400 127.963  0.00  0.00    +0.000 HD
BRANCH  13  16
ATOM     15  C   UNL     1     -13.460   8.168 128.119  0.00  0.00    +0.000 C 
ATOM     16  C   UNL     1     -12.108   7.868 128.734  0.00  0.00    +0.000 C 
ENDBRANCH  13  16
ENDBRANCH  12  13
ENDBRANCH   1  12
TORSDOF 6
ENDMDL
MODEL 6
REMARK VINA RESULT:      -5.2      2.130      5.095
REMARK  Name = Etilefrine
REMARK  7 active torsions:
REMARK  status: ('A' for Active; 'I' for Inactive)
REMARK    1  A    between atoms: C_1  and  C_2
REMARK    2  A    between atoms: C_2  and  N_3
REMARK    3  A    between atoms: N_3  and  C_4
REMARK    4  A    between atoms: C_4  and  C_5
REMARK    5  A    between atoms: C_5  and  O_6
REMARK    6  A    between atoms: C_5  and  C_7
REMARK    7  A    between atoms: C_11  and  O_12
REMARK                            x       y       z     vdW  Elec       q    Type
REMARK                         _______ _______ _______ _____ _____    ______ ____
ROOT
ATOM      1  C   UNL     1     -12.179   7.271 130.421  0.00  0.00    +0.000 C 
ENDROOT
BRANCH   1   2
ATOM      2  C   UNL     1     -10.857   6.805 131.005  0.00  0.00    +0.000 A 
ATOM      3  C   UNL     1      -9.633   7.191 130.439  0.00  0.00    +0.000 A 
ATOM      4  C   UNL     1      -8.423   6.759 130.989  0.00  0.00    +0.000 A 
ATOM      5  C   UNL     1      -8.413   5.928 132.110  0.00  0.00    +0.000 A 
ATOM      6  C   UNL     1      -9.621   5.524 132.662  0.00  0.00    +0.000 A 
ATOM      7  C   UNL     1     -10.823   5.936 132.110  0.00  0.00    +0.000 A 
BRANCH   6   8
ATOM      8  O   UNL     1      -9.687   4.719 133.760  0.00  0.00    +0.000 OA
ATOM      9  H   UNL     1      -8.895   4.160 133.787  0.00  0.00    +0.000 HD
ENDBRANCH   6   8
ENDBRANCH   1   2
BRANCH   1  10
ATOM     10  O   UNL     1     -13.157   7.439 131.462  0.00  0.00    +0.000 OA
ATOM     11  H   UNL     1     -13.943   6.938 131.185  0.00  0.00    +0.000 HD
ENDBRANCH   1  10
BRANCH   1  12
ATOM     12  C   UNL     1     -12.744   6.262 129.393  0.00  0.00    +0.000 C 
BRANCH  12  13
ATOM     13  N   UNL     1     -12.100   6.379 128.084  0.00  0.00    +0.000 NA
ATOM     14  H   UNL     1     -11.156   5.991 128.142  0.00  0.00    +0.000 HD
BRANCH  13  16
ATOM     15  C   UNL     1     -10.864   8.012 126.794  0.00  0.00    +0.000 C 
ATOM     16  C   UNL     1     -12.083   7.772 127.660  0.00  0.00    +0.000 C 
ENDBRANCH  13  16
ENDBRANCH  12  13
ENDBRANCH   1  12
TORSDOF 6
ENDMDL
MODEL 7
REMARK VINA RESULT:      -5.2      2.005      2.768
REMARK  Name = Etilefrine
REMARK  7 active torsions:
REMARK  status: ('A' for Active; 'I' for Inactive)
REMARK    1  A    between atoms: C_1  and  C_2
REMARK    2  A    between atoms: C_2  and  N_3
REMARK    3  A    between atoms: N_3  and  C_4
REMARK    4  A    between atoms: C_4  and  C_5
REMARK    5  A    between atoms: C_5  and  O_6
REMARK    6  A    between atoms: C_5  and  C_7
REMARK    7  A    between atoms: C_11  and  O_12
REMARK                            x       y       z     vdW  Elec       q    Type
REMARK                         _______ _______ _______ _____ _____    ______ ____
ROOT
ATOM      1  C   UNL     1      -9.451   5.810 131.394  0.00  0.00    +0.000 C 
ENDROOT
BRANCH   1   2
ATOM      2  C   UNL     1     -10.594   6.674 130.890  0.00  0.00    +0.000 A 
ATOM      3  C   UNL     1     -11.825   6.718 131.562  0.00  0.00    +0.000 A 
ATOM      4  C   UNL     1     -12.867   7.520 131.090  0.00  0.00    +0.000 A 
ATOM      5  C   UNL     1     -12.703   8.288 129.936  0.00  0.00    +0.000 A 
ATOM      6  C   UNL     1     -11.495   8.230 129.254  0.00  0.00    +0.000 A 
ATOM      7  C   UNL     1     -10.465   7.424 129.708  0.00  0.00    +0.000 A 
BRANCH   6   8
ATOM      8  O   UNL     1     -11.263   8.957 128.124  0.00  0.00    +0.000 OA
ATOM      9  H   UNL     1     -10.917   9.827 128.376  0.00  0.00    +0.000 HD
ENDBRANCH   6   8
ENDBRANCH   1   2
BRANCH   1  10
ATOM     10  O   UNL     1      -9.589   4.462 130.912  0.00  0.00    +0.000 OA
ATOM     11  H   UNL     1      -9.595   3.888 131.696  0.00  0.00    +0.000 HD
ENDBRANCH   1  10
BRANCH   1  12
ATOM     12  C   UNL     1      -9.401   5.761 132.939  0.00  0.00    +0.000 C 
BRANCH  12  13
ATOM     13  N   UNL     1      -9.769   4.446 133.468  0.00  0.00    +0.000 NA
ATOM     14  H   UNL     1     -10.621   4.539 134.025  0.00  0.00    +0.000 HD
BRANCH  13  16
ATOM     15  C   UNL     1      -7.858   5.041 134.830  0.00  0.00    +0.000 C 
ATOM     16  C   UNL     1      -8.670   3.900 134.252  0.00  0.00    +0.000 C 
ENDBRANCH  13  16
ENDBRANCH  12  13
ENDBRANCH   1  12
TORSDOF 6
ENDMDL
MODEL 8
REMARK VINA RESULT:      -5.1      9.809     10.401
REMARK  Name = Etilefrine
REMARK  7 active torsions:
REMARK  status: ('A' for Active; 'I' for Inactive)
REMARK    1  A    between atoms: C_1  and  C_2
REMARK    2  A    between atoms: C_2  and  N_3
REMARK    3  A    between atoms: N_3  and  C_4
REMARK    4  A    between atoms: C_4  and  C_5
REMARK    5  A    between atoms: C_5  and  O_6
REMARK    6  A    between atoms: C_5  and  C_7
REMARK    7  A    between atoms: C_11  and  O_12
REMARK                            x       y       z     vdW  Elec       q    Type
REMARK                         _______ _______ _______ _____ _____    ______ ____
ROOT
ATOM      1  C   UNL     1      -9.060   2.305 123.698  0.00  0.00    +0.000 C 
ENDROOT
BRANCH   1   2
ATOM      2  C   UNL     1      -8.148   2.840 122.607  0.00  0.00    +0.000 A 
ATOM      3  C   UNL     1      -6.753   2.840 122.758  0.00  0.00    +0.000 A 
ATOM      4  C   UNL     1      -5.925   3.330 121.745  0.00  0.00    +0.000 A 
ATOM      5  C   UNL     1      -6.474   3.837 120.566  0.00  0.00    +0.000 A 
ATOM      6  C   UNL     1      -7.854   3.861 120.420  0.00  0.00    +0.000 A 
ATOM      7  C   UNL     1      -8.680   3.391 121.428  0.00  0.00    +0.000 A 
BRANCH   6   8
ATOM      8  O   UNL     1      -8.459   4.334 119.293  0.00  0.00    +0.000 OA
ATOM      9  H   UNL     1      -9.317   3.897 119.190  0.00  0.00    +0.000 HD
ENDBRANCH   6   8
ENDBRANCH   1   2
BRANCH   1  10
ATOM     10  O   UNL     1      -9.220   3.281 124.742  0.00  0.00    +0.000 OA
ATOM     11  H   UNL     1      -9.033   2.823 125.578  0.00  0.00    +0.000 HD
ENDBRANCH   1  10
BRANCH   1  12
ATOM     12  C   UNL     1      -8.500   1.011 124.336  0.00  0.00    +0.000 C 
BRANCH  12  13
ATOM     13  N   UNL     1      -9.411  -0.125 124.182  0.00  0.00    +0.000 NA
ATOM     14  H   UNL     1      -9.430  -0.655 125.055  0.00  0.00    +0.000 HD
BRANCH  13  16
ATOM     15  C   UNL     1      -7.487  -1.129 123.110  0.00  0.00    +0.000 C 
ATOM     16  C   UNL     1      -8.990  -0.951 123.060  0.00  0.00    +0.000 C 
ENDBRANCH  13  16
ENDBRANCH  12  13
ENDBRANCH   1  12
TORSDOF 6
ENDMDL
MODEL 9
REMARK VINA RESULT:      -5.1      1.657      1.926
REMARK  Name = Etilefrine
REMARK  7 active torsions:
REMARK  status: ('A' for Active; 'I' for Inactive)
REMARK    1  A    between atoms: C_1  and  C_2
REMARK    2  A    between atoms: C_2  and  N_3
REMARK    3  A    between atoms: N_3  and  C_4
REMARK    4  A    between atoms: C_4  and  C_5
REMARK    5  A    between atoms: C_5  and  O_6
REMARK    6  A    between atoms: C_5  and  C_7
REMARK    7  A    between atoms: C_11  and  O_12
REMARK                            x       y       z     vdW  Elec       q    Type
REMARK                         _______ _______ _______ _____ _____    ______ ____
ROOT
ATOM      1  C   UNL     1     -11.124   5.828 131.160  0.00  0.00    +0.000 C 
ENDROOT
BRANCH   1   2
ATOM      2  C   UNL     1     -11.592   7.001 130.317  0.00  0.00    +0.000 A 
ATOM      3  C   UNL     1     -12.575   7.887 130.782  0.00  0.00    +0.000 A 
ATOM      4  C   UNL     1     -12.994   8.965 129.998  0.00  0.00    +0.000 A 
ATOM      5  C   UNL     1     -12.444   9.176 128.733  0.00  0.00    +0.000 A 
ATOM      6  C   UNL     1     -11.486   8.290 128.257  0.00  0.00    +0.000 A 
ATOM      7  C   UNL     1     -11.080   7.210 129.024  0.00  0.00    +0.000 A 
BRANCH   6   8
ATOM      8  O   UNL     1     -10.901   8.438 127.034  0.00  0.00    +0.000 OA
ATOM      9  H   UNL     1      -9.948   8.562 127.156  0.00  0.00    +0.000 HD
ENDBRANCH   6   8
ENDBRANCH   1   2
BRANCH   1  10
ATOM     10  O   UNL     1     -11.386   6.074 132.552  0.00  0.00    +0.000 OA
ATOM     11  H   UNL     1     -10.641   5.690 133.045  0.00  0.00    +0.000 HD
ENDBRANCH   1  10
BRANCH   1  12
ATOM     12  C   UNL     1      -9.607   5.569 130.998  0.00  0.00    +0.000 C 
BRANCH  12  13
ATOM     13  N   UNL     1      -8.795   6.504 131.779  0.00  0.00    +0.000 NA
ATOM     14  H   UNL     1      -9.376   7.298 132.055  0.00  0.00    +0.000 HD
BRANCH  13  16
ATOM     15  C   UNL     1      -6.375   6.506 131.726  0.00  0.00    +0.000 C 
ATOM     16  C   UNL     1      -7.638   6.927 131.003  0.00  0.00    +0.000 C 
ENDBRANCH  13  16
ENDBRANCH  12  13
ENDBRANCH   1  12
TORSDOF 6
ENDMDL
