MODEL 1
REMARK VINA RESULT:      -7.1      0.000      0.000
REMARK  Name = Etodolac
REMARK  7 active torsions:
REMARK  status: ('A' for Active; 'I' for Inactive)
REMARK    1  A    between atoms: C_1  and  C_2
REMARK    2  A    between atoms: C_2  and  C_3
REMARK    3  A    between atoms: C_11  and  C_12
REMARK    4  A    between atoms: C_11  and  C_14
REMARK    5  A    between atoms: C_12  and  C_13
REMARK    6  A    between atoms: C_14  and  C_15
REMARK    7  A    between atoms: C_15  and  O_16
REMARK                            x       y       z     vdW  Elec       q    Type
REMARK                         _______ _______ _______ _____ _____    ______ ____
ROOT
ATOM      1  C   UNL     1      -6.315  -2.770 123.951  0.00  0.00    +0.000 A 
ATOM      2  C   UNL     1      -6.982  -1.536 124.015  0.00  0.00    +0.000 A 
ATOM      3  N   UNL     1      -6.525  -0.283 123.678  0.00  0.00    +0.000 N 
ATOM      4  C   UNL     1      -7.479   0.656 123.937  0.00  0.00    +0.000 A 
ATOM      5  C   UNL     1      -8.577  -0.001 124.438  0.00  0.00    +0.000 A 
ATOM      6  C   UNL     1      -9.824   0.722 124.761  0.00  0.00    +0.000 C 
ATOM      7  C   UNL     1      -9.650   2.237 124.534  0.00  0.00    +0.000 C 
ATOM      8  O   UNL     1      -8.739   2.585 123.447  0.00  0.00    +0.000 OA
ATOM      9  C   UNL     1      -7.372   2.122 123.641  0.00  0.00    +0.000 C 
ATOM     10  C   UNL     1      -8.282  -1.386 124.491  0.00  0.00    +0.000 A 
ATOM     11  C   UNL     1      -8.989  -2.529 124.900  0.00  0.00    +0.000 A 
ATOM     12  C   UNL     1      -8.368  -3.777 124.817  0.00  0.00    +0.000 A 
ATOM     13  C   UNL     1      -7.058  -3.895 124.348  0.00  0.00    +0.000 A 
ATOM     14  H   UNL     1      -5.622  -0.110 123.259  0.00  0.00    +0.000 HD
ENDROOT
BRANCH   1  16
ATOM     15  C   UNL     1      -4.417  -4.331 123.609  0.00  0.00    +0.000 C 
ATOM     16  C   UNL     1      -4.864  -2.872 123.565  0.00  0.00    +0.000 C 
ENDBRANCH   1  16
BRANCH   9  17
ATOM     17  C   UNL     1      -6.526   2.337 122.351  0.00  0.00    +0.000 C 
ATOM     18  C   UNL     1      -7.095   3.400 121.424  0.00  0.00    +0.000 C 
ENDBRANCH   9  17
BRANCH   9  19
ATOM     19  C   UNL     1      -6.747   2.890 124.808  0.00  0.00    +0.000 C 
BRANCH  19  20
ATOM     20  C   UNL     1      -6.816   4.397 124.714  0.00  0.00    +0.000 C 
ATOM     21  O   UNL     1      -5.842   5.053 124.340  0.00  0.00    +0.000 OA
BRANCH  20  22
ATOM     22  O   UNL     1      -7.958   5.018 125.060  0.00  0.00    +0.000 OA
ATOM     23  H   UNL     1      -7.872   5.933 125.407  0.00  0.00    +0.000 HD
ENDBRANCH  20  22
ENDBRANCH  19  20
ENDBRANCH   9  19
TORSDOF 5
ENDMDL
MODEL 2
REMARK VINA RESULT:      -7.0      3.641      4.907
REMARK  Name = Etodolac
REMARK  7 active torsions:
REMARK  status: ('A' for Active; 'I' for Inactive)
REMARK    1  A    between atoms: C_1  and  C_2
REMARK    2  A    between atoms: C_2  and  C_3
REMARK    3  A    between atoms: C_11  and  C_12
REMARK    4  A    between atoms: C_11  and  C_14
REMARK    5  A    between atoms: C_12  and  C_13
REMARK    6  A    between atoms: C_14  and  C_15
REMARK    7  A    between atoms: C_15  and  O_16
REMARK                            x       y       z     vdW  Elec       q    Type
REMARK                         _______ _______ _______ _____ _____    ______ ____
ROOT
ATOM      1  C   UNL     1      -5.746  -2.478 129.139  0.00  0.00    +0.000 A 
ATOM      2  C   UNL     1      -6.361  -2.529 127.879  0.00  0.00    +0.000 A 
ATOM      3  N   UNL     1      -5.835  -2.234 126.642  0.00  0.00    +0.000 N 
ATOM      4  C   UNL     1      -6.788  -2.369 125.676  0.00  0.00    +0.000 A 
ATOM      5  C   UNL     1      -7.947  -2.771 126.295  0.00  0.00    +0.000 A 
ATOM      6  C   UNL     1      -9.165  -3.078 125.519  0.00  0.00    +0.000 C 
ATOM      7  C   UNL     1      -8.942  -2.801 124.019  0.00  0.00    +0.000 C 
ATOM      8  O   UNL     1      -7.576  -3.035 123.559  0.00  0.00    +0.000 OA
ATOM      9  C   UNL     1      -6.575  -2.196 124.202  0.00  0.00    +0.000 C 
ATOM     10  C   UNL     1      -7.695  -2.881 127.686  0.00  0.00    +0.000 A 
ATOM     11  C   UNL     1      -8.468  -3.241 128.801  0.00  0.00    +0.000 A 
ATOM     12  C   UNL     1      -7.878  -3.233 130.067  0.00  0.00    +0.000 A 
ATOM     13  C   UNL     1      -6.542  -2.863 130.232  0.00  0.00    +0.000 A 
ATOM     14  H   UNL     1      -4.865  -1.993 126.489  0.00  0.00    +0.000 HD
ENDROOT
BRANCH   1  16
ATOM     15  C   UNL     1      -3.366  -3.125 129.415  0.00  0.00    +0.000 C 
ATOM     16  C   UNL     1      -4.345  -1.956 129.321  0.00  0.00    +0.000 C 
ENDBRANCH   1  16
BRANCH   9  17
ATOM     17  C   UNL     1      -5.137  -2.658 123.821  0.00  0.00    +0.000 C 
ATOM     18  C   UNL     1      -4.955  -4.167 123.856  0.00  0.00    +0.000 C 
ENDBRANCH   9  17
BRANCH   9  19
ATOM     19  C   UNL     1      -6.789  -0.744 123.767  0.00  0.00    +0.000 C 
BRANCH  19  20
ATOM     20  C   UNL     1      -6.902   0.265 124.887  0.00  0.00    +0.000 C 
ATOM     21  O   UNL     1      -5.896   0.698 125.453  0.00  0.00    +0.000 OA
BRANCH  20  22
ATOM     22  O   UNL     1      -8.125   0.675 125.270  0.00  0.00    +0.000 OA
ATOM     23  H   UNL     1      -8.578   1.316 124.681  0.00  0.00    +0.000 HD
ENDBRANCH  20  22
ENDBRANCH  19  20
ENDBRANCH   9  19
TORSDOF 5
ENDMDL
MODEL 3
REMARK VINA RESULT:      -7.0      5.305      6.417
REMARK  Name = Etodolac
REMARK  7 active torsions:
REMARK  status: ('A' for Active; 'I' for Inactive)
REMARK    1  A    between atoms: C_1  and  C_2
REMARK    2  A    between atoms: C_2  and  C_3
REMARK    3  A    between atoms: C_11  and  C_12
REMARK    4  A    between atoms: C_11  and  C_14
REMARK    5  A    between atoms: C_12  and  C_13
REMARK    6  A    between atoms: C_14  and  C_15
REMARK    7  A    between atoms: C_15  and  O_16
REMARK                            x       y       z     vdW  Elec       q    Type
REMARK                         _______ _______ _______ _____ _____    ______ ____
ROOT
ATOM      1  C   UNL     1      -6.932  -2.486 124.302  0.00  0.00    +0.000 A 
ATOM      2  C   UNL     1      -7.011  -2.553 125.703  0.00  0.00    +0.000 A 
ATOM      3  N   UNL     1      -6.044  -2.278 126.641  0.00  0.00    +0.000 N 
ATOM      4  C   UNL     1      -6.520  -2.516 127.897  0.00  0.00    +0.000 A 
ATOM      5  C   UNL     1      -7.821  -2.938 127.770  0.00  0.00    +0.000 A 
ATOM      6  C   UNL     1      -8.656  -3.217 128.956  0.00  0.00    +0.000 C 
ATOM      7  C   UNL     1      -7.840  -3.046 130.252  0.00  0.00    +0.000 C 
ATOM      8  O   UNL     1      -6.804  -2.019 130.182  0.00  0.00    +0.000 OA
ATOM      9  C   UNL     1      -5.779  -2.270 129.178  0.00  0.00    +0.000 C 
ATOM     10  C   UNL     1      -8.149  -2.964 126.392  0.00  0.00    +0.000 A 
ATOM     11  C   UNL     1      -9.299  -3.300 125.660  0.00  0.00    +0.000 A 
ATOM     12  C   UNL     1      -9.266  -3.213 124.266  0.00  0.00    +0.000 A 
ATOM     13  C   UNL     1      -8.106  -2.809 123.601  0.00  0.00    +0.000 A 
ATOM     14  H   UNL     1      -5.129  -1.912 126.413  0.00  0.00    +0.000 HD
ENDROOT
BRANCH   1  16
ATOM     15  C   UNL     1      -4.754  -3.415 123.561  0.00  0.00    +0.000 C 
ATOM     16  C   UNL     1      -5.642  -2.173 123.592  0.00  0.00    +0.000 C 
ENDBRANCH   1  16
BRANCH   9  17
ATOM     17  C   UNL     1      -4.846  -1.033 129.017  0.00  0.00    +0.000 C 
ATOM     18  C   UNL     1      -5.195   0.115 129.952  0.00  0.00    +0.000 C 
ENDBRANCH   9  17
BRANCH   9  19
ATOM     19  C   UNL     1      -4.959  -3.491 129.599  0.00  0.00    +0.000 C 
BRANCH  19  20
ATOM     20  C   UNL     1      -4.180  -3.346 130.886  0.00  0.00    +0.000 C 
ATOM     21  O   UNL     1      -2.969  -3.571 130.923  0.00  0.00    +0.000 OA
BRANCH  20  22
ATOM     22  O   UNL     1      -4.834  -2.980 132.003  0.00  0.00    +0.000 OA
ATOM     23  H   UNL     1      -5.615  -2.397 131.884  0.00  0.00    +0.000 HD
ENDBRANCH  20  22
ENDBRANCH  19  20
ENDBRANCH   9  19
TORSDOF 5
ENDMDL
MODEL 4
REMARK VINA RESULT:      -6.9      7.659     10.366
REMARK  Name = Etodolac
REMARK  7 active torsions:
REMARK  status: ('A' for Active; 'I' for Inactive)
REMARK    1  A    between atoms: C_1  and  C_2
REMARK    2  A    between atoms: C_2  and  C_3
REMARK    3  A    between atoms: C_11  and  C_12
REMARK    4  A    between atoms: C_11  and  C_14
REMARK    5  A    between atoms: C_12  and  C_13
REMARK    6  A    between atoms: C_14  and  C_15
REMARK    7  A    between atoms: C_15  and  O_16
REMARK                            x       y       z     vdW  Elec       q    Type
REMARK                         _______ _______ _______ _____ _____    ______ ____
ROOT
ATOM      1  C   UNL     1     -11.039   7.927 129.377  0.00  0.00    +0.000 A 
ATOM      2  C   UNL     1     -10.203   7.215 130.251  0.00  0.00    +0.000 A 
ATOM      3  N   UNL     1      -8.850   6.985 130.164  0.00  0.00    +0.000 N 
ATOM      4  C   UNL     1      -8.434   6.202 131.201  0.00  0.00    +0.000 A 
ATOM      5  C   UNL     1      -9.534   5.932 131.980  0.00  0.00    +0.000 A 
ATOM      6  C   UNL     1      -9.417   5.159 133.232  0.00  0.00    +0.000 C 
ATOM      7  C   UNL     1      -7.968   4.675 133.442  0.00  0.00    +0.000 C 
ATOM      8  O   UNL     1      -6.947   5.578 132.919  0.00  0.00    +0.000 OA
ATOM      9  C   UNL     1      -7.018   5.793 131.481  0.00  0.00    +0.000 C 
ATOM     10  C   UNL     1     -10.659   6.567 131.396  0.00  0.00    +0.000 A 
ATOM     11  C   UNL     1     -12.021   6.652 131.726  0.00  0.00    +0.000 A 
ATOM     12  C   UNL     1     -12.876   7.382 130.896  0.00  0.00    +0.000 A 
ATOM     13  C   UNL     1     -12.393   8.010 129.746  0.00  0.00    +0.000 A 
ATOM     14  H   UNL     1      -8.258   7.383 129.449  0.00  0.00    +0.000 HD
ENDROOT
BRANCH   1  16
ATOM     15  C   UNL     1     -11.050   7.652 126.911  0.00  0.00    +0.000 C 
ATOM     16  C   UNL     1     -10.534   8.493 128.076  0.00  0.00    +0.000 C 
ENDBRANCH   1  16
BRANCH   9  17
ATOM     17  C   UNL     1      -6.047   6.929 131.041  0.00  0.00    +0.000 C 
ATOM     18  C   UNL     1      -4.678   6.844 131.699  0.00  0.00    +0.000 C 
ENDBRANCH   9  17
BRANCH   9  19
ATOM     19  C   UNL     1      -6.655   4.490 130.764  0.00  0.00    +0.000 C 
BRANCH  19  20
ATOM     20  C   UNL     1      -6.354   4.616 129.288  0.00  0.00    +0.000 C 
ATOM     21  O   UNL     1      -5.199   4.524 128.867  0.00  0.00    +0.000 OA
BRANCH  20  22
ATOM     22  O   UNL     1      -7.369   4.848 128.435  0.00  0.00    +0.000 OA
ATOM     23  H   UNL     1      -8.082   4.174 128.408  0.00  0.00    +0.000 HD
ENDBRANCH  20  22
ENDBRANCH  19  20
ENDBRANCH   9  19
TORSDOF 5
ENDMDL
MODEL 5
REMARK VINA RESULT:      -6.8      2.905      6.171
REMARK  Name = Etodolac
REMARK  7 active torsions:
REMARK  status: ('A' for Active; 'I' for Inactive)
REMARK    1  A    between atoms: C_1  and  C_2
REMARK    2  A    between atoms: C_2  and  C_3
REMARK    3  A    between atoms: C_11  and  C_12
REMARK    4  A    between atoms: C_11  and  C_14
REMARK    5  A    between atoms: C_12  and  C_13
REMARK    6  A    between atoms: C_14  and  C_15
REMARK    7  A    between atoms: C_15  and  O_16
REMARK                            x       y       z     vdW  Elec       q    Type
REMARK                         _______ _______ _______ _____ _____    ______ ____
ROOT
ATOM      1  C   UNL     1      -6.277   3.403 123.183  0.00  0.00    +0.000 A 
ATOM      2  C   UNL     1      -6.421   2.193 123.880  0.00  0.00    +0.000 A 
ATOM      3  N   UNL     1      -6.786   0.955 123.403  0.00  0.00    +0.000 N 
ATOM      4  C   UNL     1      -6.853   0.054 124.425  0.00  0.00    +0.000 A 
ATOM      5  C   UNL     1      -6.512   0.716 125.580  0.00  0.00    +0.000 A 
ATOM      6  C   UNL     1      -6.417   0.007 126.872  0.00  0.00    +0.000 C 
ATOM      7  C   UNL     1      -6.823  -1.472 126.714  0.00  0.00    +0.000 C 
ATOM      8  O   UNL     1      -6.496  -2.053 125.415  0.00  0.00    +0.000 OA
ATOM      9  C   UNL     1      -7.154  -1.409 124.288  0.00  0.00    +0.000 C 
ATOM     10  C   UNL     1      -6.233   2.067 125.253  0.00  0.00    +0.000 A 
ATOM     11  C   UNL     1      -5.843   3.197 125.990  0.00  0.00    +0.000 A 
ATOM     12  C   UNL     1      -5.657   4.410 125.323  0.00  0.00    +0.000 A 
ATOM     13  C   UNL     1      -5.866   4.509 123.946  0.00  0.00    +0.000 A 
ATOM     14  H   UNL     1      -6.938   0.753 122.425  0.00  0.00    +0.000 HD
ENDROOT
BRANCH   1  16
ATOM     15  C   UNL     1      -5.360   3.782 120.908  0.00  0.00    +0.000 C 
ATOM     16  C   UNL     1      -6.626   3.529 121.724  0.00  0.00    +0.000 C 
ENDBRANCH   1  16
BRANCH   9  17
ATOM     17  C   UNL     1      -6.586  -1.939 122.938  0.00  0.00    +0.000 C 
ATOM     18  C   UNL     1      -5.355  -2.816 123.101  0.00  0.00    +0.000 C 
ENDBRANCH   9  17
BRANCH   9  19
ATOM     19  C   UNL     1      -8.657  -1.685 124.366  0.00  0.00    +0.000 C 
BRANCH  19  20
ATOM     20  C   UNL     1      -9.074  -3.119 124.132  0.00  0.00    +0.000 C 
ATOM     21  O   UNL     1      -9.991  -3.394 123.356  0.00  0.00    +0.000 OA
BRANCH  20  22
ATOM     22  O   UNL     1      -8.435  -4.098 124.799  0.00  0.00    +0.000 OA
ATOM     23  H   UNL     1      -7.506  -3.917 125.061  0.00  0.00    +0.000 HD
ENDBRANCH  20  22
ENDBRANCH  19  20
ENDBRANCH   9  19
TORSDOF 5
ENDMDL
MODEL 6
REMARK VINA RESULT:      -6.6      1.866      3.158
REMARK  Name = Etodolac
REMARK  7 active torsions:
REMARK  status: ('A' for Active; 'I' for Inactive)
REMARK    1  A    between atoms: C_1  and  C_2
REMARK    2  A    between atoms: C_2  and  C_3
REMARK    3  A    between atoms: C_11  and  C_12
REMARK    4  A    between atoms: C_11  and  C_14
REMARK    5  A    between atoms: C_12  and  C_13
REMARK    6  A    between atoms: C_14  and  C_15
REMARK    7  A    between atoms: C_15  and  O_16
REMARK                            x       y       z     vdW  Elec       q    Type
REMARK                         _______ _______ _______ _____ _____    ______ ____
ROOT
ATOM      1  C   UNL     1      -8.057  -2.533 126.260  0.00  0.00    +0.000 A 
ATOM      2  C   UNL     1      -7.746  -1.302 125.660  0.00  0.00    +0.000 A 
ATOM      3  N   UNL     1      -7.504  -0.084 126.251  0.00  0.00    +0.000 N 
ATOM      4  C   UNL     1      -7.285   0.870 125.300  0.00  0.00    +0.000 A 
ATOM      5  C   UNL     1      -7.374   0.255 124.074  0.00  0.00    +0.000 A 
ATOM      6  C   UNL     1      -7.119   0.998 122.823  0.00  0.00    +0.000 C 
ATOM      7  C   UNL     1      -6.843   2.486 123.118  0.00  0.00    +0.000 C 
ATOM      8  O   UNL     1      -6.173   2.736 124.391  0.00  0.00    +0.000 OA
ATOM      9  C   UNL     1      -6.925   2.302 125.559  0.00  0.00    +0.000 C 
ATOM     10  C   UNL     1      -7.661  -1.117 124.282  0.00  0.00    +0.000 A 
ATOM     11  C   UNL     1      -7.861  -2.220 123.437  0.00  0.00    +0.000 A 
ATOM     12  C   UNL     1      -8.139  -3.467 124.003  0.00  0.00    +0.000 A 
ATOM     13  C   UNL     1      -8.231  -3.620 125.387  0.00  0.00    +0.000 A 
ATOM     14  H   UNL     1      -7.457   0.055 127.251  0.00  0.00    +0.000 HD
ENDROOT
BRANCH   1  16
ATOM     15  C   UNL     1      -9.011  -3.966 128.047  0.00  0.00    +0.000 C 
ATOM     16  C   UNL     1      -8.279  -2.660 127.744  0.00  0.00    +0.000 C 
ENDBRANCH   1  16
BRANCH   9  17
ATOM     17  C   UNL     1      -6.055   2.401 126.847  0.00  0.00    +0.000 C 
ATOM     18  C   UNL     1      -4.587   2.081 126.612  0.00  0.00    +0.000 C 
ENDBRANCH   9  17
BRANCH   9  19
ATOM     19  C   UNL     1      -8.171   3.180 125.703  0.00  0.00    +0.000 C 
BRANCH  19  20
ATOM     20  C   UNL     1      -7.917   4.618 126.097  0.00  0.00    +0.000 C 
ATOM     21  O   UNL     1      -8.358   5.072 127.154  0.00  0.00    +0.000 OA
BRANCH  20  22
ATOM     22  O   UNL     1      -7.213   5.405 125.263  0.00  0.00    +0.000 OA
ATOM     23  H   UNL     1      -7.126   6.348 125.520  0.00  0.00    +0.000 HD
ENDBRANCH  20  22
ENDBRANCH  19  20
ENDBRANCH   9  19
TORSDOF 5
ENDMDL
MODEL 7
REMARK VINA RESULT:      -6.6      3.534      6.424
REMARK  Name = Etodolac
REMARK  7 active torsions:
REMARK  status: ('A' for Active; 'I' for Inactive)
REMARK    1  A    between atoms: C_1  and  C_2
REMARK    2  A    between atoms: C_2  and  C_3
REMARK    3  A    between atoms: C_11  and  C_12
REMARK    4  A    between atoms: C_11  and  C_14
REMARK    5  A    between atoms: C_12  and  C_13
REMARK    6  A    between atoms: C_14  and  C_15
REMARK    7  A    between atoms: C_15  and  O_16
REMARK                            x       y       z     vdW  Elec       q    Type
REMARK                         _______ _______ _______ _____ _____    ______ ____
ROOT
ATOM      1  C   UNL     1      -4.069   3.080 126.673  0.00  0.00    +0.000 A 
ATOM      2  C   UNL     1      -4.911   2.085 126.151  0.00  0.00    +0.000 A 
ATOM      3  N   UNL     1      -4.812   0.717 126.262  0.00  0.00    +0.000 N 
ATOM      4  C   UNL     1      -5.815   0.111 125.564  0.00  0.00    +0.000 A 
ATOM      5  C   UNL     1      -6.583   1.102 125.004  0.00  0.00    +0.000 A 
ATOM      6  C   UNL     1      -7.802   0.785 124.233  0.00  0.00    +0.000 C 
ATOM      7  C   UNL     1      -7.989  -0.740 124.109  0.00  0.00    +0.000 C 
ATOM      8  O   UNL     1      -7.502  -1.504 125.254  0.00  0.00    +0.000 OA
ATOM      9  C   UNL     1      -6.074  -1.365 125.502  0.00  0.00    +0.000 C 
ATOM     10  C   UNL     1      -6.029   2.355 125.367  0.00  0.00    +0.000 A 
ATOM     11  C   UNL     1      -6.365   3.693 125.105  0.00  0.00    +0.000 A 
ATOM     12  C   UNL     1      -5.568   4.709 125.637  0.00  0.00    +0.000 A 
ATOM     13  C   UNL     1      -4.444   4.408 126.409  0.00  0.00    +0.000 A 
ATOM     14  H   UNL     1      -4.112   0.249 126.821  0.00  0.00    +0.000 HD
ENDROOT
BRANCH   1  16
ATOM     15  C   UNL     1      -1.595   3.015 126.487  0.00  0.00    +0.000 C 
ATOM     16  C   UNL     1      -2.791   2.743 127.396  0.00  0.00    +0.000 C 
ENDBRANCH   1  16
BRANCH   9  17
ATOM     17  C   UNL     1      -5.679  -2.026 126.856  0.00  0.00    +0.000 C 
ATOM     18  C   UNL     1      -6.839  -2.145 127.833  0.00  0.00    +0.000 C 
ENDBRANCH   9  17
BRANCH   9  19
ATOM     19  C   UNL     1      -5.303  -2.026 124.356  0.00  0.00    +0.000 C 
BRANCH  19  20
ATOM     20  C   UNL     1      -5.548  -3.506 124.169  0.00  0.00    +0.000 C 
ATOM     21  O   UNL     1      -4.611  -4.284 123.983  0.00  0.00    +0.000 OA
BRANCH  20  22
ATOM     22  O   UNL     1      -6.814  -3.962 124.192  0.00  0.00    +0.000 OA
ATOM     23  H   UNL     1      -7.055  -4.550 124.940  0.00  0.00    +0.000 HD
ENDBRANCH  20  22
ENDBRANCH  19  20
ENDBRANCH   9  19
TORSDOF 5
ENDMDL
MODEL 8
REMARK VINA RESULT:      -6.5      2.805      5.652
REMARK  Name = Etodolac
REMARK  7 active torsions:
REMARK  status: ('A' for Active; 'I' for Inactive)
REMARK    1  A    between atoms: C_1  and  C_2
REMARK    2  A    between atoms: C_2  and  C_3
REMARK    3  A    between atoms: C_11  and  C_12
REMARK    4  A    between atoms: C_11  and  C_14
REMARK    5  A    between atoms: C_12  and  C_13
REMARK    6  A    between atoms: C_14  and  C_15
REMARK    7  A    between atoms: C_15  and  O_16
REMARK                            x       y       z     vdW  Elec       q    Type
REMARK                         _______ _______ _______ _____ _____    ______ ____
ROOT
ATOM      1  C   UNL     1      -6.284   3.835 120.886  0.00  0.00    +0.000 A 
ATOM      2  C   UNL     1      -6.918   3.208 121.971  0.00  0.00    +0.000 A 
ATOM      3  N   UNL     1      -6.365   2.694 123.121  0.00  0.00    +0.000 N 
ATOM      4  C   UNL     1      -7.330   2.125 123.899  0.00  0.00    +0.000 A 
ATOM      5  C   UNL     1      -8.530   2.286 123.248  0.00  0.00    +0.000 A 
ATOM      6  C   UNL     1      -9.799   1.841 123.858  0.00  0.00    +0.000 C 
ATOM      7  C   UNL     1      -9.542   1.141 125.207  0.00  0.00    +0.000 C 
ATOM      8  O   UNL     1      -8.395   1.660 125.948  0.00  0.00    +0.000 OA
ATOM      9  C   UNL     1      -7.122   1.521 125.256  0.00  0.00    +0.000 C 
ATOM     10  C   UNL     1      -8.289   2.971 122.031  0.00  0.00    +0.000 A 
ATOM     11  C   UNL     1      -9.098   3.409 120.971  0.00  0.00    +0.000 A 
ATOM     12  C   UNL     1      -8.505   4.068 119.891  0.00  0.00    +0.000 A 
ATOM     13  C   UNL     1      -7.126   4.280 119.852  0.00  0.00    +0.000 A 
ATOM     14  H   UNL     1      -5.385   2.774 123.356  0.00  0.00    +0.000 HD
ENDROOT
BRANCH   1  16
ATOM     15  C   UNL     1      -4.310   5.175 121.566  0.00  0.00    +0.000 C 
ATOM     16  C   UNL     1      -4.785   3.946 120.795  0.00  0.00    +0.000 C 
ENDBRANCH   1  16
BRANCH   9  17
ATOM     17  C   UNL     1      -5.996   2.290 126.007  0.00  0.00    +0.000 C 
ATOM     18  C   UNL     1      -6.482   3.556 126.695  0.00  0.00    +0.000 C 
ENDBRANCH   9  17
BRANCH   9  19
ATOM     19  C   UNL     1      -6.766   0.035 125.162  0.00  0.00    +0.000 C 
BRANCH  19  20
ATOM     20  C   UNL     1      -6.475  -0.653 126.477  0.00  0.00    +0.000 C 
ATOM     21  O   UNL     1      -5.375  -1.167 126.692  0.00  0.00    +0.000 OA
BRANCH  20  22
ATOM     22  O   UNL     1      -7.444  -0.711 127.408  0.00  0.00    +0.000 OA
ATOM     23  H   UNL     1      -8.074  -1.460 127.340  0.00  0.00    +0.000 HD
ENDBRANCH  20  22
ENDBRANCH  19  20
ENDBRANCH   9  19
TORSDOF 5
ENDMDL
MODEL 9
REMARK VINA RESULT:      -6.4      2.942      4.518
REMARK  Name = Etodolac
REMARK  7 active torsions:
REMARK  status: ('A' for Active; 'I' for Inactive)
REMARK    1  A    between atoms: C_1  and  C_2
REMARK    2  A    between atoms: C_2  and  C_3
REMARK    3  A    between atoms: C_11  and  C_12
REMARK    4  A    between atoms: C_11  and  C_14
REMARK    5  A    between atoms: C_12  and  C_13
REMARK    6  A    between atoms: C_14  and  C_15
REMARK    7  A    between atoms: C_15  and  O_16
REMARK                            x       y       z     vdW  Elec       q    Type
REMARK                         _______ _______ _______ _____ _____    ______ ____
ROOT
ATOM      1  C   UNL     1      -7.076  -1.433 128.410  0.00  0.00    +0.000 A 
ATOM      2  C   UNL     1      -7.595  -1.754 127.145  0.00  0.00    +0.000 A 
ATOM      3  N   UNL     1      -7.414  -1.109 125.943  0.00  0.00    +0.000 N 
ATOM      4  C   UNL     1      -8.137  -1.722 124.962  0.00  0.00    +0.000 A 
ATOM      5  C   UNL     1      -8.786  -2.789 125.536  0.00  0.00    +0.000 A 
ATOM      6  C   UNL     1      -9.607  -3.712 124.727  0.00  0.00    +0.000 C 
ATOM      7  C   UNL     1      -9.668  -3.246 123.259  0.00  0.00    +0.000 C 
ATOM      8  O   UNL     1      -8.463  -2.570 122.789  0.00  0.00    +0.000 OA
ATOM      9  C   UNL     1      -8.142  -1.346 123.510  0.00  0.00    +0.000 C 
ATOM     10  C   UNL     1      -8.453  -2.826 126.913  0.00  0.00    +0.000 A 
ATOM     11  C   UNL     1      -8.797  -3.662 127.987  0.00  0.00    +0.000 A 
ATOM     12  C   UNL     1      -8.271  -3.393 129.253  0.00  0.00    +0.000 A 
ATOM     13  C   UNL     1      -7.424  -2.302 129.458  0.00  0.00    +0.000 A 
ATOM     14  H   UNL     1      -6.795  -0.320 125.818  0.00  0.00    +0.000 HD
ENDROOT
BRANCH   1  16
ATOM     15  C   UNL     1      -7.165   0.912 129.215  0.00  0.00    +0.000 C 
ATOM     16  C   UNL     1      -6.268  -0.185 128.646  0.00  0.00    +0.000 C 
ENDBRANCH   1  16
BRANCH   9  17
ATOM     17  C   UNL     1      -6.738  -0.812 123.100  0.00  0.00    +0.000 C 
ATOM     18  C   UNL     1      -5.827  -1.884 122.523  0.00  0.00    +0.000 C 
ENDBRANCH   9  17
BRANCH   9  19
ATOM     19  C   UNL     1      -9.211  -0.294 123.204  0.00  0.00    +0.000 C 
BRANCH  19  20
ATOM     20  C   UNL     1      -8.885   1.117 123.641  0.00  0.00    +0.000 C 
ATOM     21  O   UNL     1      -8.805   1.406 124.836  0.00  0.00    +0.000 OA
BRANCH  20  22
ATOM     22  O   UNL     1      -8.699   2.061 122.701  0.00  0.00    +0.000 OA
ATOM     23  H   UNL     1      -8.527   1.744 121.788  0.00  0.00    +0.000 HD
ENDBRANCH  20  22
ENDBRANCH  19  20
ENDBRANCH   9  19
TORSDOF 5
ENDMDL
