MODEL 1
REMARK VINA RESULT:      -7.1      0.000      0.000
REMARK  Name = Etofamide
REMARK  11 active torsions:
REMARK  status: ('A' for Active; 'I' for Inactive)
REMARK    1  A    between atoms: C_1  and  C_2
REMARK    2  A    between atoms: C_2  and  O_3
REMARK    3  A    between atoms: O_3  and  C_4
REMARK    4  A    between atoms: C_4  and  C_5
REMARK    5  A    between atoms: C_5  and  N_6
REMARK    6  A    between atoms: N_6  and  C_7
REMARK    7  A    between atoms: C_7  and  C_8
REMARK    8  A    between atoms: C_11  and  O_12
REMARK    9  A    between atoms: O_12  and  C_13
REMARK   10  A    between atoms: C_16  and  N_19
REMARK   11  A    between atoms: C_24  and  C_26
REMARK                            x       y       z     vdW  Elec       q    Type
REMARK                         _______ _______ _______ _____ _____    ______ ____
ROOT
ATOM      1  C   UNL     1      -7.850   6.143 132.235  0.00  0.00    +0.000 A 
ATOM      2  C   UNL     1      -7.291   6.909 131.203  0.00  0.00    +0.000 A 
ATOM      3  C   UNL     1      -5.900   6.934 131.035  0.00  0.00    +0.000 A 
ATOM      4  C   UNL     1      -5.061   6.351 131.982  0.00  0.00    +0.000 A 
ATOM      5  C   UNL     1      -5.626   5.824 133.140  0.00  0.00    +0.000 A 
ATOM      6  C   UNL     1      -7.010   5.719 133.267  0.00  0.00    +0.000 A 
ENDROOT
BRANCH   1   7
ATOM      7  C   UNL     1      -9.296   5.717 132.237  0.00  0.00    +0.000 C 
BRANCH   7   8
ATOM      8  N   UNL     1      -9.957   5.070 131.057  0.00  0.00    +0.000 N 
ATOM      9  C   UNL     1      -9.835   3.668 130.843  0.00  0.00    +0.000 C 
ATOM     10  O   UNL     1     -10.419   3.156 129.880  0.00  0.00    +0.000 OA
BRANCH   9  11
ATOM     11  C   UNL     1      -8.909   2.821 131.753  0.00  0.00    +0.000 C 
ATOM     12 CL   UNL     1      -9.456   1.133 131.887  0.00  0.00    +0.000 Cl
ATOM     13 CL   UNL     1      -7.244   2.765 131.093  0.00  0.00    +0.000 Cl
ENDBRANCH   9  11
BRANCH   8  14
ATOM     14  C   UNL     1     -10.774   5.770 129.992  0.00  0.00    +0.000 C 
BRANCH  14  15
ATOM     15  C   UNL     1     -10.644   7.275 129.881  0.00  0.00    +0.000 C 
BRANCH  15  16
ATOM     16  O   UNL     1      -9.816   7.939 128.927  0.00  0.00    +0.000 OA
BRANCH  16  18
ATOM     17  C   UNL     1     -12.100   8.737 128.498  0.00  0.00    +0.000 C 
ATOM     18  C   UNL     1     -10.722   8.518 127.955  0.00  0.00    +0.000 C 
ENDBRANCH  16  18
ENDBRANCH  15  16
ENDBRANCH  14  15
ENDBRANCH   8  14
ENDBRANCH   7   8
ENDBRANCH   1   7
BRANCH   4  19
ATOM     19  O   UNL     1      -3.726   6.297 131.644  0.00  0.00    +0.000 OA
BRANCH  19  20
ATOM     20  C   UNL     1      -3.387   5.681 130.467  0.00  0.00    +0.000 A 
ATOM     21  C   UNL     1      -3.732   4.338 130.323  0.00  0.00    +0.000 A 
ATOM     22  C   UNL     1      -3.391   3.661 129.151  0.00  0.00    +0.000 A 
ATOM     23  C   UNL     1      -2.779   4.364 128.103  0.00  0.00    +0.000 A 
ATOM     24  C   UNL     1      -2.413   5.707 128.258  0.00  0.00    +0.000 A 
ATOM     25  C   UNL     1      -2.677   6.351 129.466  0.00  0.00    +0.000 A 
BRANCH  23  26
ATOM     26  N   UNL     1      -2.574   3.696 126.812  0.00  0.00    +0.000 N 
ATOM     27  O   UNL     1      -3.420   3.865 125.931  0.00  0.00    +0.000 OA
ATOM     28  O   UNL     1      -1.540   3.014 126.679  0.00  0.00    +0.000 OA
ENDBRANCH  23  26
ENDBRANCH  19  20
ENDBRANCH   4  19
TORSDOF 10
ENDMDL
MODEL 2
REMARK VINA RESULT:      -6.7      2.118      3.147
REMARK  Name = Etofamide
REMARK  11 active torsions:
REMARK  status: ('A' for Active; 'I' for Inactive)
REMARK    1  A    between atoms: C_1  and  C_2
REMARK    2  A    between atoms: C_2  and  O_3
REMARK    3  A    between atoms: O_3  and  C_4
REMARK    4  A    between atoms: C_4  and  C_5
REMARK    5  A    between atoms: C_5  and  N_6
REMARK    6  A    between atoms: N_6  and  C_7
REMARK    7  A    between atoms: C_7  and  C_8
REMARK    8  A    between atoms: C_11  and  O_12
REMARK    9  A    between atoms: O_12  and  C_13
REMARK   10  A    between atoms: C_16  and  N_19
REMARK   11  A    between atoms: C_24  and  C_26
REMARK                            x       y       z     vdW  Elec       q    Type
REMARK                         _______ _______ _______ _____ _____    ______ ____
ROOT
ATOM      1  C   UNL     1      -7.683   6.072 132.425  0.00  0.00    +0.000 A 
ATOM      2  C   UNL     1      -7.228   6.821 131.330  0.00  0.00    +0.000 A 
ATOM      3  C   UNL     1      -5.853   6.904 131.073  0.00  0.00    +0.000 A 
ATOM      4  C   UNL     1      -4.928   6.402 131.987  0.00  0.00    +0.000 A 
ATOM      5  C   UNL     1      -5.394   5.898 133.199  0.00  0.00    +0.000 A 
ATOM      6  C   UNL     1      -6.760   5.732 133.417  0.00  0.00    +0.000 A 
ENDROOT
BRANCH   1   7
ATOM      7  C   UNL     1      -9.103   5.578 132.535  0.00  0.00    +0.000 C 
BRANCH   7   8
ATOM      8  N   UNL     1      -9.756   4.733 131.484  0.00  0.00    +0.000 N 
ATOM      9  C   UNL     1     -10.651   5.318 130.543  0.00  0.00    +0.000 C 
ATOM     10  O   UNL     1     -11.149   4.602 129.665  0.00  0.00    +0.000 OA
BRANCH   9  11
ATOM     11  C   UNL     1     -11.060   6.806 130.681  0.00  0.00    +0.000 C 
ATOM     12 CL   UNL     1     -10.302   7.833 129.441  0.00  0.00    +0.000 Cl
ATOM     13 CL   UNL     1     -12.831   7.002 130.490  0.00  0.00    +0.000 Cl
ENDBRANCH   9  11
BRANCH   8  14
ATOM     14  C   UNL     1      -9.583   3.241 131.298  0.00  0.00    +0.000 C 
BRANCH  14  15
ATOM     15  C   UNL     1      -8.341   2.761 130.575  0.00  0.00    +0.000 C 
BRANCH  15  16
ATOM     16  O   UNL     1      -7.245   3.603 130.221  0.00  0.00    +0.000 OA
BRANCH  16  18
ATOM     17  C   UNL     1      -7.890   2.839 127.976  0.00  0.00    +0.000 C 
ATOM     18  C   UNL     1      -7.473   3.988 128.843  0.00  0.00    +0.000 C 
ENDBRANCH  16  18
ENDBRANCH  15  16
ENDBRANCH  14  15
ENDBRANCH   8  14
ENDBRANCH   7   8
ENDBRANCH   1   7
BRANCH   4  19
ATOM     19  O   UNL     1      -3.616   6.398 131.567  0.00  0.00    +0.000 OA
BRANCH  19  20
ATOM     20  C   UNL     1      -3.322   5.758 130.391  0.00  0.00    +0.000 A 
ATOM     21  C   UNL     1      -3.631   4.401 130.303  0.00  0.00    +0.000 A 
ATOM     22  C   UNL     1      -3.332   3.700 129.134  0.00  0.00    +0.000 A 
ATOM     23  C   UNL     1      -2.800   4.390 128.035  0.00  0.00    +0.000 A 
ATOM     24  C   UNL     1      -2.468   5.748 128.132  0.00  0.00    +0.000 A 
ATOM     25  C   UNL     1      -2.687   6.418 129.334  0.00  0.00    +0.000 A 
BRANCH  23  26
ATOM     26  N   UNL     1      -2.643   3.690 126.754  0.00  0.00    +0.000 N 
ATOM     27  O   UNL     1      -3.511   3.854 125.894  0.00  0.00    +0.000 OA
ATOM     28  O   UNL     1      -1.624   2.989 126.606  0.00  0.00    +0.000 OA
ENDBRANCH  23  26
ENDBRANCH  19  20
ENDBRANCH   4  19
TORSDOF 10
ENDMDL
MODEL 3
REMARK VINA RESULT:      -6.7      6.333      9.158
REMARK  Name = Etofamide
REMARK  11 active torsions:
REMARK  status: ('A' for Active; 'I' for Inactive)
REMARK    1  A    between atoms: C_1  and  C_2
REMARK    2  A    between atoms: C_2  and  O_3
REMARK    3  A    between atoms: O_3  and  C_4
REMARK    4  A    between atoms: C_4  and  C_5
REMARK    5  A    between atoms: C_5  and  N_6
REMARK    6  A    between atoms: N_6  and  C_7
REMARK    7  A    between atoms: C_7  and  C_8
REMARK    8  A    between atoms: C_11  and  O_12
REMARK    9  A    between atoms: O_12  and  C_13
REMARK   10  A    between atoms: C_16  and  N_19
REMARK   11  A    between atoms: C_24  and  C_26
REMARK                            x       y       z     vdW  Elec       q    Type
REMARK                         _______ _______ _______ _____ _____    ______ ____
ROOT
ATOM      1  C   UNL     1      -7.441  -2.721 129.542  0.00  0.00    +0.000 A 
ATOM      2  C   UNL     1      -6.477  -2.188 128.675  0.00  0.00    +0.000 A 
ATOM      3  C   UNL     1      -6.751  -2.105 127.304  0.00  0.00    +0.000 A 
ATOM      4  C   UNL     1      -7.891  -2.702 126.770  0.00  0.00    +0.000 A 
ATOM      5  C   UNL     1      -8.704  -3.459 127.612  0.00  0.00    +0.000 A 
ATOM      6  C   UNL     1      -8.483  -3.468 128.987  0.00  0.00    +0.000 A 
ENDROOT
BRANCH   1   7
ATOM      7  C   UNL     1      -7.424  -2.467 131.029  0.00  0.00    +0.000 C 
BRANCH   7   8
ATOM      8  N   UNL     1      -6.674  -1.329 131.653  0.00  0.00    +0.000 N 
ATOM      9  C   UNL     1      -7.246  -0.026 131.691  0.00  0.00    +0.000 C 
ATOM     10  O   UNL     1      -6.619   0.887 132.243  0.00  0.00    +0.000 OA
BRANCH   9  11
ATOM     11  C   UNL     1      -8.589   0.255 130.970  0.00  0.00    +0.000 C 
ATOM     12 CL   UNL     1      -9.642   1.342 131.906  0.00  0.00    +0.000 Cl
ATOM     13 CL   UNL     1      -8.310   1.053 129.390  0.00  0.00    +0.000 Cl
ENDBRANCH   9  11
BRANCH   8  14
ATOM     14  C   UNL     1      -5.294  -1.397 132.270  0.00  0.00    +0.000 C 
BRANCH  14  15
ATOM     15  C   UNL     1      -4.120  -1.639 131.344  0.00  0.00    +0.000 C 
BRANCH  15  16
ATOM     16  O   UNL     1      -3.224  -2.744 131.460  0.00  0.00    +0.000 OA
BRANCH  16  18
ATOM     17  C   UNL     1      -3.114  -3.655 129.180  0.00  0.00    +0.000 C 
ATOM     18  C   UNL     1      -3.722  -3.752 130.545  0.00  0.00    +0.000 C 
ENDBRANCH  16  18
ENDBRANCH  15  16
ENDBRANCH  14  15
ENDBRANCH   8  14
ENDBRANCH   7   8
ENDBRANCH   1   7
BRANCH   4  19
ATOM     19  O   UNL     1      -8.142  -2.430 125.443  0.00  0.00    +0.000 OA
BRANCH  19  20
ATOM     20  C   UNL     1      -8.269  -1.117 125.071  0.00  0.00    +0.000 A 
ATOM     21  C   UNL     1      -9.264  -0.366 125.694  0.00  0.00    +0.000 A 
ATOM     22  C   UNL     1      -9.445   0.970 125.334  0.00  0.00    +0.000 A 
ATOM     23  C   UNL     1      -8.569   1.560 124.411  0.00  0.00    +0.000 A 
ATOM     24  C   UNL     1      -7.584   0.798 123.769  0.00  0.00    +0.000 A 
ATOM     25  C   UNL     1      -7.469  -0.558 124.069  0.00  0.00    +0.000 A 
BRANCH  23  26
ATOM     26  N   UNL     1      -8.654   3.004 124.160  0.00  0.00    +0.000 N 
ATOM     27  O   UNL     1      -8.533   3.398 122.998  0.00  0.00    +0.000 OA
ATOM     28  O   UNL     1      -8.868   3.743 125.140  0.00  0.00    +0.000 OA
ENDBRANCH  23  26
ENDBRANCH  19  20
ENDBRANCH   4  19
TORSDOF 10
ENDMDL
MODEL 4
REMARK VINA RESULT:      -6.5      3.631      7.508
REMARK  Name = Etofamide
REMARK  11 active torsions:
REMARK  status: ('A' for Active; 'I' for Inactive)
REMARK    1  A    between atoms: C_1  and  C_2
REMARK    2  A    between atoms: C_2  and  O_3
REMARK    3  A    between atoms: O_3  and  C_4
REMARK    4  A    between atoms: C_4  and  C_5
REMARK    5  A    between atoms: C_5  and  N_6
REMARK    6  A    between atoms: N_6  and  C_7
REMARK    7  A    between atoms: C_7  and  C_8
REMARK    8  A    between atoms: C_11  and  O_12
REMARK    9  A    between atoms: O_12  and  C_13
REMARK   10  A    between atoms: C_16  and  N_19
REMARK   11  A    between atoms: C_24  and  C_26
REMARK                            x       y       z     vdW  Elec       q    Type
REMARK                         _______ _______ _______ _____ _____    ______ ____
ROOT
ATOM      1  C   UNL     1      -6.384   4.067 129.983  0.00  0.00    +0.000 A 
ATOM      2  C   UNL     1      -7.560   3.539 130.534  0.00  0.00    +0.000 A 
ATOM      3  C   UNL     1      -8.474   4.395 131.163  0.00  0.00    +0.000 A 
ATOM      4  C   UNL     1      -8.149   5.729 131.401  0.00  0.00    +0.000 A 
ATOM      5  C   UNL     1      -6.867   6.170 131.083  0.00  0.00    +0.000 A 
ATOM      6  C   UNL     1      -5.990   5.348 130.378  0.00  0.00    +0.000 A 
ENDROOT
BRANCH   1   7
ATOM      7  C   UNL     1      -5.573   3.332 128.946  0.00  0.00    +0.000 C 
BRANCH   7   8
ATOM      8  N   UNL     1      -5.502   3.761 127.512  0.00  0.00    +0.000 N 
ATOM      9  C   UNL     1      -4.249   3.828 126.841  0.00  0.00    +0.000 C 
ATOM     10  O   UNL     1      -4.224   4.153 125.648  0.00  0.00    +0.000 OA
BRANCH   9  11
ATOM     11  C   UNL     1      -2.934   3.587 127.626  0.00  0.00    +0.000 C 
ATOM     12 CL   UNL     1      -1.603   3.061 126.568  0.00  0.00    +0.000 Cl
ATOM     13 CL   UNL     1      -2.383   5.092 128.427  0.00  0.00    +0.000 Cl
ENDBRANCH   9  11
BRANCH   8  14
ATOM     14  C   UNL     1      -6.670   4.173 126.641  0.00  0.00    +0.000 C 
BRANCH  14  15
ATOM     15  C   UNL     1      -7.566   3.077 126.101  0.00  0.00    +0.000 C 
BRANCH  15  16
ATOM     16  O   UNL     1      -8.800   3.314 125.423  0.00  0.00    +0.000 OA
BRANCH  16  18
ATOM     17  C   UNL     1      -7.270   2.614 123.631  0.00  0.00    +0.000 C 
ATOM     18  C   UNL     1      -8.678   2.649 124.141  0.00  0.00    +0.000 C 
ENDBRANCH  16  18
ENDBRANCH  15  16
ENDBRANCH  14  15
ENDBRANCH   8  14
ENDBRANCH   7   8
ENDBRANCH   1   7
BRANCH   4  19
ATOM     19  O   UNL     1      -9.173   6.515 131.883  0.00  0.00    +0.000 OA
BRANCH  19  20
ATOM     20  C   UNL     1     -10.143   6.916 131.002  0.00  0.00    +0.000 A 
ATOM     21  C   UNL     1     -11.468   6.636 131.333  0.00  0.00    +0.000 A 
ATOM     22  C   UNL     1     -12.490   7.006 130.458  0.00  0.00    +0.000 A 
ATOM     23  C   UNL     1     -12.174   7.729 129.297  0.00  0.00    +0.000 A 
ATOM     24  C   UNL     1     -10.841   7.989 128.954  0.00  0.00    +0.000 A 
ATOM     25  C   UNL     1      -9.822   7.536 129.790  0.00  0.00    +0.000 A 
BRANCH  23  26
ATOM     26  N   UNL     1     -13.260   8.262 128.466  0.00  0.00    +0.000 N 
ATOM     27  O   UNL     1     -13.473   9.476 128.501  0.00  0.00    +0.000 OA
ATOM     28  O   UNL     1     -13.886   7.454 127.754  0.00  0.00    +0.000 OA
ENDBRANCH  23  26
ENDBRANCH  19  20
ENDBRANCH   4  19
TORSDOF 10
ENDMDL
MODEL 5
REMARK VINA RESULT:      -6.5      6.760      8.895
REMARK  Name = Etofamide
REMARK  11 active torsions:
REMARK  status: ('A' for Active; 'I' for Inactive)
REMARK    1  A    between atoms: C_1  and  C_2
REMARK    2  A    between atoms: C_2  and  O_3
REMARK    3  A    between atoms: O_3  and  C_4
REMARK    4  A    between atoms: C_4  and  C_5
REMARK    5  A    between atoms: C_5  and  N_6
REMARK    6  A    between atoms: N_6  and  C_7
REMARK    7  A    between atoms: C_7  and  C_8
REMARK    8  A    between atoms: C_11  and  O_12
REMARK    9  A    between atoms: O_12  and  C_13
REMARK   10  A    between atoms: C_16  and  N_19
REMARK   11  A    between atoms: C_24  and  C_26
REMARK                            x       y       z     vdW  Elec       q    Type
REMARK                         _______ _______ _______ _____ _____    ______ ____
ROOT
ATOM      1  C   UNL     1      -7.186  -2.703 129.298  0.00  0.00    +0.000 A 
ATOM      2  C   UNL     1      -6.177  -2.301 128.413  0.00  0.00    +0.000 A 
ATOM      3  C   UNL     1      -6.453  -2.215 127.042  0.00  0.00    +0.000 A 
ATOM      4  C   UNL     1      -7.659  -2.689 126.530  0.00  0.00    +0.000 A 
ATOM      5  C   UNL     1      -8.544  -3.330 127.394  0.00  0.00    +0.000 A 
ATOM      6  C   UNL     1      -8.312  -3.337 128.768  0.00  0.00    +0.000 A 
ENDROOT
BRANCH   1   7
ATOM      7  C   UNL     1      -7.125  -2.423 130.779  0.00  0.00    +0.000 C 
BRANCH   7   8
ATOM      8  N   UNL     1      -5.847  -2.111 131.497  0.00  0.00    +0.000 N 
ATOM      9  C   UNL     1      -5.148  -3.133 132.200  0.00  0.00    +0.000 C 
ATOM     10  O   UNL     1      -4.078  -2.854 132.755  0.00  0.00    +0.000 OA
BRANCH   9  11
ATOM     11  C   UNL     1      -5.772  -4.545 132.342  0.00  0.00    +0.000 C 
ATOM     12 CL   UNL     1      -5.541  -5.534 130.881  0.00  0.00    +0.000 Cl
ATOM     13 CL   UNL     1      -5.013  -5.446 133.692  0.00  0.00    +0.000 Cl
ENDBRANCH   9  11
BRANCH   8  14
ATOM     14  C   UNL     1      -5.176  -0.757 131.584  0.00  0.00    +0.000 C 
BRANCH  14  15
ATOM     15  C   UNL     1      -6.049   0.472 131.444  0.00  0.00    +0.000 C 
BRANCH  15  16
ATOM     16  O   UNL     1      -6.251   1.175 130.218  0.00  0.00    +0.000 OA
BRANCH  16  18
ATOM     17  C   UNL     1      -8.040   0.865 128.563  0.00  0.00    +0.000 C 
ATOM     18  C   UNL     1      -7.682   1.160 129.987  0.00  0.00    +0.000 C 
ENDBRANCH  16  18
ENDBRANCH  15  16
ENDBRANCH  14  15
ENDBRANCH   8  14
ENDBRANCH   7   8
ENDBRANCH   1   7
BRANCH   4  19
ATOM     19  O   UNL     1      -7.891  -2.417 125.199  0.00  0.00    +0.000 OA
BRANCH  19  20
ATOM     20  C   UNL     1      -8.063  -1.107 124.834  0.00  0.00    +0.000 A 
ATOM     21  C   UNL     1      -9.195  -0.449 125.313  0.00  0.00    +0.000 A 
ATOM     22  C   UNL     1      -9.424   0.879 124.953  0.00  0.00    +0.000 A 
ATOM     23  C   UNL     1      -8.470   1.557 124.179  0.00  0.00    +0.000 A 
ATOM     24  C   UNL     1      -7.346   0.889 123.679  0.00  0.00    +0.000 A 
ATOM     25  C   UNL     1      -7.171  -0.463 123.971  0.00  0.00    +0.000 A 
BRANCH  23  26
ATOM     26  N   UNL     1      -8.630   2.997 123.942  0.00  0.00    +0.000 N 
ATOM     27  O   UNL     1      -8.623   3.396 122.775  0.00  0.00    +0.000 OA
ATOM     28  O   UNL     1      -8.788   3.727 124.939  0.00  0.00    +0.000 OA
ENDBRANCH  23  26
ENDBRANCH  19  20
ENDBRANCH   4  19
TORSDOF 10
ENDMDL
MODEL 6
REMARK VINA RESULT:      -6.4      7.975     10.267
REMARK  Name = Etofamide
REMARK  11 active torsions:
REMARK  status: ('A' for Active; 'I' for Inactive)
REMARK    1  A    between atoms: C_1  and  C_2
REMARK    2  A    between atoms: C_2  and  O_3
REMARK    3  A    between atoms: O_3  and  C_4
REMARK    4  A    between atoms: C_4  and  C_5
REMARK    5  A    between atoms: C_5  and  N_6
REMARK    6  A    between atoms: N_6  and  C_7
REMARK    7  A    between atoms: C_7  and  C_8
REMARK    8  A    between atoms: C_11  and  O_12
REMARK    9  A    between atoms: O_12  and  C_13
REMARK   10  A    between atoms: C_16  and  N_19
REMARK   11  A    between atoms: C_24  and  C_26
REMARK                            x       y       z     vdW  Elec       q    Type
REMARK                         _______ _______ _______ _____ _____    ______ ____
ROOT
ATOM      1  C   UNL     1      -8.414  -2.099 126.786  0.00  0.00    +0.000 A 
ATOM      2  C   UNL     1      -8.789  -3.365 127.255  0.00  0.00    +0.000 A 
ATOM      3  C   UNL     1      -8.610  -3.683 128.608  0.00  0.00    +0.000 A 
ATOM      4  C   UNL     1      -7.906  -2.825 129.451  0.00  0.00    +0.000 A 
ATOM      5  C   UNL     1      -7.309  -1.693 128.903  0.00  0.00    +0.000 A 
ATOM      6  C   UNL     1      -7.560  -1.330 127.581  0.00  0.00    +0.000 A 
ENDROOT
BRANCH   1   7
ATOM      7  C   UNL     1      -8.941  -1.522 125.496  0.00  0.00    +0.000 C 
BRANCH   7   8
ATOM      8  N   UNL     1      -8.065  -1.231 124.316  0.00  0.00    +0.000 N 
ATOM      9  C   UNL     1      -7.711   0.110 123.994  0.00  0.00    +0.000 C 
ATOM     10  O   UNL     1      -6.959   0.318 123.034  0.00  0.00    +0.000 OA
BRANCH   9  11
ATOM     11  C   UNL     1      -8.338   1.289 124.783  0.00  0.00    +0.000 C 
ATOM     12 CL   UNL     1      -7.285   2.723 124.802  0.00  0.00    +0.000 Cl
ATOM     13 CL   UNL     1      -9.885   1.803 124.038  0.00  0.00    +0.000 Cl
ENDBRANCH   9  11
BRANCH   8  14
ATOM     14  C   UNL     1      -7.488  -2.249 123.355  0.00  0.00    +0.000 C 
BRANCH  14  15
ATOM     15  C   UNL     1      -6.434  -3.199 123.886  0.00  0.00    +0.000 C 
BRANCH  15  16
ATOM     16  O   UNL     1      -5.156  -2.788 124.370  0.00  0.00    +0.000 OA
BRANCH  16  18
ATOM     17  C   UNL     1      -4.379  -4.947 123.488  0.00  0.00    +0.000 C 
ATOM     18  C   UNL     1      -4.183  -3.462 123.534  0.00  0.00    +0.000 C 
ENDBRANCH  16  18
ENDBRANCH  15  16
ENDBRANCH  14  15
ENDBRANCH   8  14
ENDBRANCH   7   8
ENDBRANCH   1   7
BRANCH   4  19
ATOM     19  O   UNL     1      -7.922  -3.158 130.788  0.00  0.00    +0.000 OA
BRANCH  19  20
ATOM     20  C   UNL     1      -6.717  -3.291 131.429  0.00  0.00    +0.000 A 
ATOM     21  C   UNL     1      -5.859  -4.294 130.982  0.00  0.00    +0.000 A 
ATOM     22  C   UNL     1      -4.630  -4.482 131.615  0.00  0.00    +0.000 A 
ATOM     23  C   UNL     1      -4.241  -3.605 132.639  0.00  0.00    +0.000 A 
ATOM     24  C   UNL     1      -5.114  -2.612 133.102  0.00  0.00    +0.000 A 
ATOM     25  C   UNL     1      -6.376  -2.490 132.523  0.00  0.00    +0.000 A 
BRANCH  23  26
ATOM     26  N   UNL     1      -2.883  -3.698 133.188  0.00  0.00    +0.000 N 
ATOM     27  O   UNL     1      -2.263  -2.650 133.379  0.00  0.00    +0.000 OA
ATOM     28  O   UNL     1      -2.450  -4.836 133.451  0.00  0.00    +0.000 OA
ENDBRANCH  23  26
ENDBRANCH  19  20
ENDBRANCH   4  19
TORSDOF 10
ENDMDL
MODEL 7
REMARK VINA RESULT:      -6.4      3.270      7.167
REMARK  Name = Etofamide
REMARK  11 active torsions:
REMARK  status: ('A' for Active; 'I' for Inactive)
REMARK    1  A    between atoms: C_1  and  C_2
REMARK    2  A    between atoms: C_2  and  O_3
REMARK    3  A    between atoms: O_3  and  C_4
REMARK    4  A    between atoms: C_4  and  C_5
REMARK    5  A    between atoms: C_5  and  N_6
REMARK    6  A    between atoms: N_6  and  C_7
REMARK    7  A    between atoms: C_7  and  C_8
REMARK    8  A    between atoms: C_11  and  O_12
REMARK    9  A    between atoms: O_12  and  C_13
REMARK   10  A    between atoms: C_16  and  N_19
REMARK   11  A    between atoms: C_24  and  C_26
REMARK                            x       y       z     vdW  Elec       q    Type
REMARK                         _______ _______ _______ _____ _____    ______ ____
ROOT
ATOM      1  C   UNL     1      -5.850   4.520 130.791  0.00  0.00    +0.000 A 
ATOM      2  C   UNL     1      -6.911   3.925 131.489  0.00  0.00    +0.000 A 
ATOM      3  C   UNL     1      -8.028   4.695 131.837  0.00  0.00    +0.000 A 
ATOM      4  C   UNL     1      -8.022   6.076 131.655  0.00  0.00    +0.000 A 
ATOM      5  C   UNL     1      -6.853   6.685 131.205  0.00  0.00    +0.000 A 
ATOM      6  C   UNL     1      -5.775   5.915 130.774  0.00  0.00    +0.000 A 
ENDROOT
BRANCH   1   7
ATOM      7  C   UNL     1      -4.836   3.716 130.018  0.00  0.00    +0.000 C 
BRANCH   7   8
ATOM      8  N   UNL     1      -5.144   3.059 128.707  0.00  0.00    +0.000 N 
ATOM      9  C   UNL     1      -4.136   2.932 127.709  0.00  0.00    +0.000 C 
ATOM     10  O   UNL     1      -4.410   2.355 126.650  0.00  0.00    +0.000 OA
BRANCH   9  11
ATOM     11  C   UNL     1      -2.749   3.592 127.919  0.00  0.00    +0.000 C 
ATOM     12 CL   UNL     1      -1.539   3.002 126.756  0.00  0.00    +0.000 Cl
ATOM     13 CL   UNL     1      -2.846   5.367 127.696  0.00  0.00    +0.000 Cl
ENDBRANCH   9  11
BRANCH   8  14
ATOM     14  C   UNL     1      -6.482   2.493 128.281  0.00  0.00    +0.000 C 
BRANCH  14  15
ATOM     15  C   UNL     1      -7.471   3.438 127.630  0.00  0.00    +0.000 C 
BRANCH  15  16
ATOM     16  O   UNL     1      -8.505   3.024 126.737  0.00  0.00    +0.000 OA
BRANCH  16  18
ATOM     17  C   UNL     1      -9.411   0.931 125.823  0.00  0.00    +0.000 C 
ATOM     18  C   UNL     1      -8.244   1.628 126.453  0.00  0.00    +0.000 C 
ENDBRANCH  16  18
ENDBRANCH  15  16
ENDBRANCH  14  15
ENDBRANCH   8  14
ENDBRANCH   7   8
ENDBRANCH   1   7
BRANCH   4  19
ATOM     19  O   UNL     1      -9.222   6.714 131.886  0.00  0.00    +0.000 OA
BRANCH  19  20
ATOM     20  C   UNL     1     -10.111   6.802 130.847  0.00  0.00    +0.000 A 
ATOM     21  C   UNL     1      -9.770   7.628 129.777  0.00  0.00    +0.000 A 
ATOM     22  C   UNL     1     -10.651   7.766 128.705  0.00  0.00    +0.000 A 
ATOM     23  C   UNL     1     -11.832   7.008 128.681  0.00  0.00    +0.000 A 
ATOM     24  C   UNL     1     -12.184   6.196 129.767  0.00  0.00    +0.000 A 
ATOM     25  C   UNL     1     -11.339   6.134 130.874  0.00  0.00    +0.000 A 
BRANCH  23  26
ATOM     26  N   UNL     1     -12.674   7.027 127.479  0.00  0.00    +0.000 N 
ATOM     27  O   UNL     1     -12.179   6.638 126.419  0.00  0.00    +0.000 OA
ATOM     28  O   UNL     1     -13.850   7.414 127.610  0.00  0.00    +0.000 OA
ENDBRANCH  23  26
ENDBRANCH  19  20
ENDBRANCH   4  19
TORSDOF 10
ENDMDL
MODEL 8
REMARK VINA RESULT:      -6.3      2.981      7.809
REMARK  Name = Etofamide
REMARK  11 active torsions:
REMARK  status: ('A' for Active; 'I' for Inactive)
REMARK    1  A    between atoms: C_1  and  C_2
REMARK    2  A    between atoms: C_2  and  O_3
REMARK    3  A    between atoms: O_3  and  C_4
REMARK    4  A    between atoms: C_4  and  C_5
REMARK    5  A    between atoms: C_5  and  N_6
REMARK    6  A    between atoms: N_6  and  C_7
REMARK    7  A    between atoms: C_7  and  C_8
REMARK    8  A    between atoms: C_11  and  O_12
REMARK    9  A    between atoms: O_12  and  C_13
REMARK   10  A    between atoms: C_16  and  N_19
REMARK   11  A    between atoms: C_24  and  C_26
REMARK                            x       y       z     vdW  Elec       q    Type
REMARK                         _______ _______ _______ _____ _____    ______ ____
ROOT
ATOM      1  C   UNL     1      -5.869   4.503 131.790  0.00  0.00    +0.000 A 
ATOM      2  C   UNL     1      -6.928   3.600 131.625  0.00  0.00    +0.000 A 
ATOM      3  C   UNL     1      -8.233   3.998 131.945  0.00  0.00    +0.000 A 
ATOM      4  C   UNL     1      -8.467   5.212 132.587  0.00  0.00    +0.000 A 
ATOM      5  C   UNL     1      -7.373   5.979 132.984  0.00  0.00    +0.000 A 
ATOM      6  C   UNL     1      -6.084   5.629 132.588  0.00  0.00    +0.000 A 
ENDROOT
BRANCH   1   7
ATOM      7  C   UNL     1      -4.541   4.331 131.096  0.00  0.00    +0.000 C 
BRANCH   7   8
ATOM      8  N   UNL     1      -4.104   5.191 129.949  0.00  0.00    +0.000 N 
ATOM      9  C   UNL     1      -3.080   6.164 130.127  0.00  0.00    +0.000 C 
ATOM     10  O   UNL     1      -2.716   6.836 129.154  0.00  0.00    +0.000 OA
BRANCH   9  11
ATOM     11  C   UNL     1      -2.502   6.434 131.540  0.00  0.00    +0.000 C 
ATOM     12 CL   UNL     1      -0.727   6.553 131.531  0.00  0.00    +0.000 Cl
ATOM     13 CL   UNL     1      -3.113   7.986 132.193  0.00  0.00    +0.000 Cl
ENDBRANCH   9  11
BRANCH   8  14
ATOM     14  C   UNL     1      -4.664   5.161 128.543  0.00  0.00    +0.000 C 
BRANCH  14  15
ATOM     15  C   UNL     1      -4.364   3.944 127.692  0.00  0.00    +0.000 C 
BRANCH  15  16
ATOM     16  O   UNL     1      -3.352   2.984 127.995  0.00  0.00    +0.000 OA
BRANCH  16  18
ATOM     17  C   UNL     1      -1.764   3.038 126.120  0.00  0.00    +0.000 C 
ATOM     18  C   UNL     1      -2.116   3.543 127.486  0.00  0.00    +0.000 C 
ENDBRANCH  16  18
ENDBRANCH  15  16
ENDBRANCH  14  15
ENDBRANCH   8  14
ENDBRANCH   7   8
ENDBRANCH   1   7
BRANCH   4  19
ATOM     19  O   UNL     1      -9.790   5.574 132.716  0.00  0.00    +0.000 OA
BRANCH  19  20
ATOM     20  C   UNL     1     -10.358   6.300 131.701  0.00  0.00    +0.000 A 
ATOM     21  C   UNL     1     -11.740   6.476 131.733  0.00  0.00    +0.000 A 
ATOM     22  C   UNL     1     -12.367   7.190 130.711  0.00  0.00    +0.000 A 
ATOM     23  C   UNL     1     -11.587   7.791 129.711  0.00  0.00    +0.000 A 
ATOM     24  C   UNL     1     -10.201   7.593 129.668  0.00  0.00    +0.000 A 
ATOM     25  C   UNL     1      -9.594   6.803 130.643  0.00  0.00    +0.000 A 
BRANCH  23  26
ATOM     26  N   UNL     1     -12.230   8.679 128.735  0.00  0.00    +0.000 N 
ATOM     27  O   UNL     1     -13.060   9.491 129.150  0.00  0.00    +0.000 OA
ATOM     28  O   UNL     1     -11.876   8.573 127.546  0.00  0.00    +0.000 OA
ENDBRANCH  23  26
ENDBRANCH  19  20
ENDBRANCH   4  19
TORSDOF 10
ENDMDL
MODEL 9
REMARK VINA RESULT:      -6.3      4.742      5.818
REMARK  Name = Etofamide
REMARK  11 active torsions:
REMARK  status: ('A' for Active; 'I' for Inactive)
REMARK    1  A    between atoms: C_1  and  C_2
REMARK    2  A    between atoms: C_2  and  O_3
REMARK    3  A    between atoms: O_3  and  C_4
REMARK    4  A    between atoms: C_4  and  C_5
REMARK    5  A    between atoms: C_5  and  N_6
REMARK    6  A    between atoms: N_6  and  C_7
REMARK    7  A    between atoms: C_7  and  C_8
REMARK    8  A    between atoms: C_11  and  O_12
REMARK    9  A    between atoms: O_12  and  C_13
REMARK   10  A    between atoms: C_16  and  N_19
REMARK   11  A    between atoms: C_24  and  C_26
REMARK                            x       y       z     vdW  Elec       q    Type
REMARK                         _______ _______ _______ _____ _____    ______ ____
ROOT
ATOM      1  C   UNL     1      -9.129   3.548 129.826  0.00  0.00    +0.000 A 
ATOM      2  C   UNL     1      -8.476   4.570 129.124  0.00  0.00    +0.000 A 
ATOM      3  C   UNL     1      -7.713   4.254 127.993  0.00  0.00    +0.000 A 
ATOM      4  C   UNL     1      -7.452   2.926 127.660  0.00  0.00    +0.000 A 
ATOM      5  C   UNL     1      -7.889   1.925 128.524  0.00  0.00    +0.000 A 
ATOM      6  C   UNL     1      -8.722   2.231 129.599  0.00  0.00    +0.000 A 
ENDROOT
BRANCH   1   7
ATOM      7  C   UNL     1     -10.281   3.814 130.762  0.00  0.00    +0.000 C 
BRANCH   7   8
ATOM      8  N   UNL     1     -10.441   5.102 131.511  0.00  0.00    +0.000 N 
ATOM      9  C   UNL     1      -9.540   5.443 132.559  0.00  0.00    +0.000 C 
ATOM     10  O   UNL     1      -9.676   6.528 133.138  0.00  0.00    +0.000 OA
BRANCH   9  11
ATOM     11  C   UNL     1      -8.468   4.424 133.024  0.00  0.00    +0.000 C 
ATOM     12 CL   UNL     1      -6.854   4.800 132.376  0.00  0.00    +0.000 Cl
ATOM     13 CL   UNL     1      -8.314   4.430 134.809  0.00  0.00    +0.000 Cl
ENDBRANCH   9  11
BRANCH   8  14
ATOM     14  C   UNL     1     -11.519   6.141 131.286  0.00  0.00    +0.000 C 
BRANCH  14  15
ATOM     15  C   UNL     1     -11.429   6.989 130.034  0.00  0.00    +0.000 C 
BRANCH  15  16
ATOM     16  O   UNL     1     -11.431   6.462 128.708  0.00  0.00    +0.000 OA
BRANCH  16  18
ATOM     17  C   UNL     1     -11.102   7.570 126.539  0.00  0.00    +0.000 C 
ATOM     18  C   UNL     1     -10.591   7.350 127.930  0.00  0.00    +0.000 C 
ENDBRANCH  16  18
ENDBRANCH  15  16
ENDBRANCH  14  15
ENDBRANCH   8  14
ENDBRANCH   7   8
ENDBRANCH   1   7
BRANCH   4  19
ATOM     19  O   UNL     1      -6.826   2.726 126.450  0.00  0.00    +0.000 OA
BRANCH  19  20
ATOM     20  C   UNL     1      -7.484   1.987 125.502  0.00  0.00    +0.000 A 
ATOM     21  C   UNL     1      -6.930   0.758 125.146  0.00  0.00    +0.000 A 
ATOM     22  C   UNL     1      -7.553  -0.023 124.171  0.00  0.00    +0.000 A 
ATOM     23  C   UNL     1      -8.772   0.404 123.623  0.00  0.00    +0.000 A 
ATOM     24  C   UNL     1      -9.316   1.649 123.965  0.00  0.00    +0.000 A 
ATOM     25  C   UNL     1      -8.639   2.462 124.873  0.00  0.00    +0.000 A 
BRANCH  23  26
ATOM     26  N   UNL     1      -9.509  -0.493 122.725  0.00  0.00    +0.000 N 
ATOM     27  O   UNL     1      -9.016  -1.595 122.475  0.00  0.00    +0.000 OA
ATOM     28  O   UNL     1     -10.605  -0.093 122.290  0.00  0.00    +0.000 OA
ENDBRANCH  23  26
ENDBRANCH  19  20
ENDBRANCH   4  19
TORSDOF 10
ENDMDL
