MODEL 1
REMARK VINA RESULT:      -6.1      0.000      0.000
REMARK  Name = Etomidate
REMARK  7 active torsions:
REMARK  status: ('A' for Active; 'I' for Inactive)
REMARK    1  A    between atoms: C_1  and  C_2
REMARK    2  A    between atoms: C_2  and  O_3
REMARK    3  A    between atoms: O_3  and  C_4
REMARK    4  A    between atoms: C_4  and  C_6
REMARK    5  A    between atoms: N_10  and  C_11
REMARK    6  A    between atoms: C_11  and  C_12
REMARK    7  A    between atoms: C_11  and  C_13
REMARK                            x       y       z     vdW  Elec       q    Type
REMARK                         _______ _______ _______ _____ _____    ______ ____
ROOT
ATOM      1  C   UNL     1      -8.776   0.231 124.407  0.00  0.00    +0.000 A 
ATOM      2  C   UNL     1      -9.643   0.435 123.349  0.00  0.00    +0.000 A 
ATOM      3  N   UNL     1      -9.853  -0.706 122.627  0.00  0.00    +0.000 NA
ATOM      4  C   UNL     1      -9.147  -1.623 123.238  0.00  0.00    +0.000 A 
ATOM      5  N   UNL     1      -8.392  -1.094 124.268  0.00  0.00    +0.000 N 
ENDROOT
BRANCH   1   6
ATOM      6  C   UNL     1      -8.352   1.219 125.364  0.00  0.00    +0.000 C 
ATOM      7  O   UNL     1      -9.001   1.617 126.331  0.00  0.00    +0.000 OA
BRANCH   6   8
ATOM      8  O   UNL     1      -7.125   1.710 125.031  0.00  0.00    +0.000 OA
BRANCH   8  10
ATOM      9  C   UNL     1      -5.221   0.854 126.220  0.00  0.00    +0.000 C 
ATOM     10  C   UNL     1      -6.279   1.936 126.170  0.00  0.00    +0.000 C 
ENDBRANCH   8  10
ENDBRANCH   6   8
ENDBRANCH   1   6
BRANCH   5  11
ATOM     11  C   UNL     1      -7.410  -1.886 125.032  0.00  0.00    +0.000 C 
ATOM     12  C   UNL     1      -6.871  -3.088 124.269  0.00  0.00    +0.000 C 
BRANCH  11  13
ATOM     13  C   UNL     1      -7.912  -2.318 126.414  0.00  0.00    +0.000 A 
ATOM     14  C   UNL     1      -7.562  -1.656 127.603  0.00  0.00    +0.000 A 
ATOM     15  C   UNL     1      -7.793  -2.238 128.843  0.00  0.00    +0.000 A 
ATOM     16  C   UNL     1      -8.542  -3.402 128.930  0.00  0.00    +0.000 A 
ATOM     17  C   UNL     1      -9.010  -4.015 127.774  0.00  0.00    +0.000 A 
ATOM     18  C   UNL     1      -8.677  -3.492 126.527  0.00  0.00    +0.000 A 
ENDBRANCH  11  13
ENDBRANCH   5  11
TORSDOF 5
ENDMDL
MODEL 2
REMARK VINA RESULT:      -6.1      2.976      4.078
REMARK  Name = Etomidate
REMARK  7 active torsions:
REMARK  status: ('A' for Active; 'I' for Inactive)
REMARK    1  A    between atoms: C_1  and  C_2
REMARK    2  A    between atoms: C_2  and  O_3
REMARK    3  A    between atoms: O_3  and  C_4
REMARK    4  A    between atoms: C_4  and  C_6
REMARK    5  A    between atoms: N_10  and  C_11
REMARK    6  A    between atoms: C_11  and  C_12
REMARK    7  A    between atoms: C_11  and  C_13
REMARK                            x       y       z     vdW  Elec       q    Type
REMARK                         _______ _______ _______ _____ _____    ______ ____
ROOT
ATOM      1  C   UNL     1      -8.341   2.438 123.577  0.00  0.00    +0.000 A 
ATOM      2  C   UNL     1      -8.591   3.098 124.766  0.00  0.00    +0.000 A 
ATOM      3  N   UNL     1      -8.907   2.235 125.778  0.00  0.00    +0.000 NA
ATOM      4  C   UNL     1      -8.833   1.045 125.239  0.00  0.00    +0.000 A 
ATOM      5  N   UNL     1      -8.591   1.107 123.879  0.00  0.00    +0.000 N 
ENDROOT
BRANCH   1   6
ATOM      6  C   UNL     1      -7.974   3.046 122.325  0.00  0.00    +0.000 C 
ATOM      7  O   UNL     1      -8.728   3.654 121.568  0.00  0.00    +0.000 OA
BRANCH   6   8
ATOM      8  O   UNL     1      -6.659   2.817 122.051  0.00  0.00    +0.000 OA
BRANCH   8  10
ATOM      9  C   UNL     1      -5.406   4.241 120.577  0.00  0.00    +0.000 C 
ATOM     10  C   UNL     1      -5.875   4.020 122.000  0.00  0.00    +0.000 C 
ENDBRANCH   8  10
ENDBRANCH   6   8
ENDBRANCH   1   6
BRANCH   5  11
ATOM     11  C   UNL     1      -8.590  -0.083 123.008  0.00  0.00    +0.000 C 
ATOM     12  C   UNL     1      -9.986  -0.555 122.622  0.00  0.00    +0.000 C 
BRANCH  11  13
ATOM     13  C   UNL     1      -7.772  -1.252 123.567  0.00  0.00    +0.000 A 
ATOM     14  C   UNL     1      -6.368  -1.265 123.598  0.00  0.00    +0.000 A 
ATOM     15  C   UNL     1      -5.665  -2.440 123.837  0.00  0.00    +0.000 A 
ATOM     16  C   UNL     1      -6.346  -3.582 124.231  0.00  0.00    +0.000 A 
ATOM     17  C   UNL     1      -7.732  -3.566 124.330  0.00  0.00    +0.000 A 
ATOM     18  C   UNL     1      -8.440  -2.419 123.978  0.00  0.00    +0.000 A 
ENDBRANCH  11  13
ENDBRANCH   5  11
TORSDOF 5
ENDMDL
MODEL 3
REMARK VINA RESULT:      -6.0      3.262      6.335
REMARK  Name = Etomidate
REMARK  7 active torsions:
REMARK  status: ('A' for Active; 'I' for Inactive)
REMARK    1  A    between atoms: C_1  and  C_2
REMARK    2  A    between atoms: C_2  and  O_3
REMARK    3  A    between atoms: O_3  and  C_4
REMARK    4  A    between atoms: C_4  and  C_6
REMARK    5  A    between atoms: N_10  and  C_11
REMARK    6  A    between atoms: C_11  and  C_12
REMARK    7  A    between atoms: C_11  and  C_13
REMARK                            x       y       z     vdW  Elec       q    Type
REMARK                         _______ _______ _______ _____ _____    ______ ____
ROOT
ATOM      1  C   UNL     1      -7.868  -0.393 123.700  0.00  0.00    +0.000 A 
ATOM      2  C   UNL     1      -8.924  -1.252 123.458  0.00  0.00    +0.000 A 
ATOM      3  N   UNL     1     -10.008  -0.603 122.938  0.00  0.00    +0.000 NA
ATOM      4  C   UNL     1      -9.631   0.646 122.830  0.00  0.00    +0.000 A 
ATOM      5  N   UNL     1      -8.376   0.855 123.370  0.00  0.00    +0.000 N 
ENDROOT
BRANCH   1   6
ATOM      6  C   UNL     1      -6.581  -0.753 124.236  0.00  0.00    +0.000 C 
ATOM      7  O   UNL     1      -6.002  -0.194 125.166  0.00  0.00    +0.000 OA
BRANCH   6   8
ATOM      8  O   UNL     1      -6.046  -1.791 123.533  0.00  0.00    +0.000 OA
BRANCH   8  10
ATOM      9  C   UNL     1      -4.732  -3.802 123.487  0.00  0.00    +0.000 C 
ATOM     10  C   UNL     1      -5.182  -2.623 124.325  0.00  0.00    +0.000 C 
ENDBRANCH   8  10
ENDBRANCH   6   8
ENDBRANCH   1   6
BRANCH   5  11
ATOM     11  C   UNL     1      -7.769   2.193 123.497  0.00  0.00    +0.000 C 
ATOM     12  C   UNL     1      -8.618   3.172 124.297  0.00  0.00    +0.000 C 
BRANCH  11  13
ATOM     13  C   UNL     1      -7.367   2.815 122.155  0.00  0.00    +0.000 A 
ATOM     14  C   UNL     1      -6.032   2.970 121.746  0.00  0.00    +0.000 A 
ATOM     15  C   UNL     1      -5.700   3.787 120.673  0.00  0.00    +0.000 A 
ATOM     16  C   UNL     1      -6.702   4.318 119.874  0.00  0.00    +0.000 A 
ATOM     17  C   UNL     1      -8.036   4.079 120.182  0.00  0.00    +0.000 A 
ATOM     18  C   UNL     1      -8.366   3.354 121.325  0.00  0.00    +0.000 A 
ENDBRANCH  11  13
ENDBRANCH   5  11
TORSDOF 5
ENDMDL
MODEL 4
REMARK VINA RESULT:      -5.9      1.869      3.091
REMARK  Name = Etomidate
REMARK  7 active torsions:
REMARK  status: ('A' for Active; 'I' for Inactive)
REMARK    1  A    between atoms: C_1  and  C_2
REMARK    2  A    between atoms: C_2  and  O_3
REMARK    3  A    between atoms: O_3  and  C_4
REMARK    4  A    between atoms: C_4  and  C_6
REMARK    5  A    between atoms: N_10  and  C_11
REMARK    6  A    between atoms: C_11  and  C_12
REMARK    7  A    between atoms: C_11  and  C_13
REMARK                            x       y       z     vdW  Elec       q    Type
REMARK                         _______ _______ _______ _____ _____    ______ ____
ROOT
ATOM      1  C   UNL     1      -7.378  -1.402 123.461  0.00  0.00    +0.000 A 
ATOM      2  C   UNL     1      -6.626  -1.953 122.439  0.00  0.00    +0.000 A 
ATOM      3  N   UNL     1      -5.450  -2.481 122.892  0.00  0.00    +0.000 NA
ATOM      4  C   UNL     1      -5.472  -2.287 124.187  0.00  0.00    +0.000 A 
ATOM      5  N   UNL     1      -6.572  -1.548 124.580  0.00  0.00    +0.000 N 
ENDROOT
BRANCH   1   6
ATOM      6  C   UNL     1      -8.667  -0.774 123.327  0.00  0.00    +0.000 C 
ATOM      7  O   UNL     1      -9.710  -1.328 122.984  0.00  0.00    +0.000 OA
BRANCH   6   8
ATOM      8  O   UNL     1      -8.576   0.559 123.590  0.00  0.00    +0.000 OA
BRANCH   8  10
ATOM      9  C   UNL     1      -9.691   0.762 125.709  0.00  0.00    +0.000 C 
ATOM     10  C   UNL     1      -9.748   1.090 124.231  0.00  0.00    +0.000 C 
ENDBRANCH   8  10
ENDBRANCH   6   8
ENDBRANCH   1   6
BRANCH   5  11
ATOM     11  C   UNL     1      -6.770  -1.077 125.963  0.00  0.00    +0.000 C 
ATOM     12  C   UNL     1      -5.514  -0.486 126.591  0.00  0.00    +0.000 C 
BRANCH  11  13
ATOM     13  C   UNL     1      -7.377  -2.135 126.891  0.00  0.00    +0.000 A 
ATOM     14  C   UNL     1      -8.399  -3.013 126.494  0.00  0.00    +0.000 A 
ATOM     15  C   UNL     1      -9.117  -3.750 127.428  0.00  0.00    +0.000 A 
ATOM     16  C   UNL     1      -8.709  -3.767 128.754  0.00  0.00    +0.000 A 
ATOM     17  C   UNL     1      -7.619  -3.002 129.155  0.00  0.00    +0.000 A 
ATOM     18  C   UNL     1      -6.975  -2.176 128.238  0.00  0.00    +0.000 A 
ENDBRANCH  11  13
ENDBRANCH   5  11
TORSDOF 5
ENDMDL
MODEL 5
REMARK VINA RESULT:      -5.8      3.412      4.981
REMARK  Name = Etomidate
REMARK  7 active torsions:
REMARK  status: ('A' for Active; 'I' for Inactive)
REMARK    1  A    between atoms: C_1  and  C_2
REMARK    2  A    between atoms: C_2  and  O_3
REMARK    3  A    between atoms: O_3  and  C_4
REMARK    4  A    between atoms: C_4  and  C_6
REMARK    5  A    between atoms: N_10  and  C_11
REMARK    6  A    between atoms: C_11  and  C_12
REMARK    7  A    between atoms: C_11  and  C_13
REMARK                            x       y       z     vdW  Elec       q    Type
REMARK                         _______ _______ _______ _____ _____    ______ ____
ROOT
ATOM      1  C   UNL     1      -6.682   3.033 123.447  0.00  0.00    +0.000 A 
ATOM      2  C   UNL     1      -5.744   3.903 123.971  0.00  0.00    +0.000 A 
ATOM      3  N   UNL     1      -5.253   3.471 125.171  0.00  0.00    +0.000 NA
ATOM      4  C   UNL     1      -5.858   2.330 125.389  0.00  0.00    +0.000 A 
ATOM      5  N   UNL     1      -6.811   2.058 124.425  0.00  0.00    +0.000 N 
ENDROOT
BRANCH   1   6
ATOM      6  C   UNL     1      -7.383   3.186 122.199  0.00  0.00    +0.000 C 
ATOM      7  O   UNL     1      -8.597   3.323 122.062  0.00  0.00    +0.000 OA
BRANCH   6   8
ATOM      8  O   UNL     1      -6.514   3.110 121.152  0.00  0.00    +0.000 OA
BRANCH   8  10
ATOM      9  C   UNL     1      -5.539   4.943 119.942  0.00  0.00    +0.000 C 
ATOM     10  C   UNL     1      -6.774   4.087 120.130  0.00  0.00    +0.000 C 
ENDBRANCH   8  10
ENDBRANCH   6   8
ENDBRANCH   1   6
BRANCH   5  11
ATOM     11  C   UNL     1      -7.725   0.903 124.503  0.00  0.00    +0.000 C 
ATOM     12  C   UNL     1      -8.508   0.834 125.808  0.00  0.00    +0.000 C 
BRANCH  11  13
ATOM     13  C   UNL     1      -7.043  -0.440 124.223  0.00  0.00    +0.000 A 
ATOM     14  C   UNL     1      -6.491  -1.249 125.230  0.00  0.00    +0.000 A 
ATOM     15  C   UNL     1      -5.637  -2.300 124.920  0.00  0.00    +0.000 A 
ATOM     16  C   UNL     1      -5.463  -2.680 123.598  0.00  0.00    +0.000 A 
ATOM     17  C   UNL     1      -6.098  -1.973 122.582  0.00  0.00    +0.000 A 
ATOM     18  C   UNL     1      -6.860  -0.850 122.891  0.00  0.00    +0.000 A 
ENDBRANCH  11  13
ENDBRANCH   5  11
TORSDOF 5
ENDMDL
MODEL 6
REMARK VINA RESULT:      -5.8      2.346      3.995
REMARK  Name = Etomidate
REMARK  7 active torsions:
REMARK  status: ('A' for Active; 'I' for Inactive)
REMARK    1  A    between atoms: C_1  and  C_2
REMARK    2  A    between atoms: C_2  and  O_3
REMARK    3  A    between atoms: O_3  and  C_4
REMARK    4  A    between atoms: C_4  and  C_6
REMARK    5  A    between atoms: N_10  and  C_11
REMARK    6  A    between atoms: C_11  and  C_12
REMARK    7  A    between atoms: C_11  and  C_13
REMARK                            x       y       z     vdW  Elec       q    Type
REMARK                         _______ _______ _______ _____ _____    ______ ____
ROOT
ATOM      1  C   UNL     1      -9.436   0.685 124.527  0.00  0.00    +0.000 A 
ATOM      2  C   UNL     1      -9.472   1.660 125.508  0.00  0.00    +0.000 A 
ATOM      3  N   UNL     1      -8.997   1.204 126.706  0.00  0.00    +0.000 NA
ATOM      4  C   UNL     1      -8.644  -0.035 126.476  0.00  0.00    +0.000 A 
ATOM      5  N   UNL     1      -8.977  -0.440 125.197  0.00  0.00    +0.000 N 
ENDROOT
BRANCH   1   6
ATOM      6  C   UNL     1      -9.853   0.837 123.158  0.00  0.00    +0.000 C 
ATOM      7  O   UNL     1     -10.959   0.552 122.702  0.00  0.00    +0.000 OA
BRANCH   6   8
ATOM      8  O   UNL     1      -8.825   1.305 122.396  0.00  0.00    +0.000 OA
BRANCH   8  10
ATOM      9  C   UNL     1      -7.457   3.272 122.579  0.00  0.00    +0.000 C 
ATOM     10  C   UNL     1      -8.835   2.735 122.251  0.00  0.00    +0.000 C 
ENDBRANCH   8  10
ENDBRANCH   6   8
ENDBRANCH   1   6
BRANCH   5  11
ATOM     11  C   UNL     1      -8.809  -1.827 124.724  0.00  0.00    +0.000 C 
ATOM     12  C   UNL     1      -9.213  -2.874 125.754  0.00  0.00    +0.000 C 
BRANCH  11  13
ATOM     13  C   UNL     1      -7.405  -2.126 124.188  0.00  0.00    +0.000 A 
ATOM     14  C   UNL     1      -6.956  -1.702 122.926  0.00  0.00    +0.000 A 
ATOM     15  C   UNL     1      -5.802  -2.230 122.360  0.00  0.00    +0.000 A 
ATOM     16  C   UNL     1      -4.976  -3.050 123.115  0.00  0.00    +0.000 A 
ATOM     17  C   UNL     1      -5.334  -3.389 124.415  0.00  0.00    +0.000 A 
ATOM     18  C   UNL     1      -6.548  -2.951 124.938  0.00  0.00    +0.000 A 
ENDBRANCH  11  13
ENDBRANCH   5  11
TORSDOF 5
ENDMDL
MODEL 7
REMARK VINA RESULT:      -5.8      7.348      8.983
REMARK  Name = Etomidate
REMARK  7 active torsions:
REMARK  status: ('A' for Active; 'I' for Inactive)
REMARK    1  A    between atoms: C_1  and  C_2
REMARK    2  A    between atoms: C_2  and  O_3
REMARK    3  A    between atoms: O_3  and  C_4
REMARK    4  A    between atoms: C_4  and  C_6
REMARK    5  A    between atoms: N_10  and  C_11
REMARK    6  A    between atoms: C_11  and  C_12
REMARK    7  A    between atoms: C_11  and  C_13
REMARK                            x       y       z     vdW  Elec       q    Type
REMARK                         _______ _______ _______ _____ _____    ______ ____
ROOT
ATOM      1  C   UNL     1      -9.724   5.661 131.192  0.00  0.00    +0.000 A 
ATOM      2  C   UNL     1      -8.976   6.712 130.692  0.00  0.00    +0.000 A 
ATOM      3  N   UNL     1      -7.761   6.819 131.309  0.00  0.00    +0.000 NA
ATOM      4  C   UNL     1      -7.734   5.834 132.170  0.00  0.00    +0.000 A 
ATOM      5  N   UNL     1      -8.937   5.155 132.216  0.00  0.00    +0.000 N 
ENDROOT
BRANCH   1   6
ATOM      6  C   UNL     1     -11.039   5.269 130.758  0.00  0.00    +0.000 C 
ATOM      7  O   UNL     1     -11.315   4.273 130.092  0.00  0.00    +0.000 OA
BRANCH   6   8
ATOM      8  O   UNL     1     -11.964   6.191 131.149  0.00  0.00    +0.000 OA
BRANCH   8  10
ATOM      9  C   UNL     1     -12.629   8.308 130.228  0.00  0.00    +0.000 C 
ATOM     10  C   UNL     1     -12.650   6.805 130.045  0.00  0.00    +0.000 C 
ENDBRANCH   8  10
ENDBRANCH   6   8
ENDBRANCH   1   6
BRANCH   5  11
ATOM     11  C   UNL     1      -9.220   4.086 133.193  0.00  0.00    +0.000 C 
ATOM     12  C   UNL     1      -8.618   4.344 134.568  0.00  0.00    +0.000 C 
BRANCH  11  13
ATOM     13  C   UNL     1      -8.834   2.687 132.701  0.00  0.00    +0.000 A 
ATOM     14  C   UNL     1      -9.704   1.858 131.975  0.00  0.00    +0.000 A 
ATOM     15  C   UNL     1      -9.431   0.507 131.799  0.00  0.00    +0.000 A 
ATOM     16  C   UNL     1      -8.200  -0.003 132.184  0.00  0.00    +0.000 A 
ATOM     17  C   UNL     1      -7.265   0.825 132.795  0.00  0.00    +0.000 A 
ATOM     18  C   UNL     1      -7.588   2.151 133.072  0.00  0.00    +0.000 A 
ENDBRANCH  11  13
ENDBRANCH   5  11
TORSDOF 5
ENDMDL
MODEL 8
REMARK VINA RESULT:      -5.7      2.838      5.897
REMARK  Name = Etomidate
REMARK  7 active torsions:
REMARK  status: ('A' for Active; 'I' for Inactive)
REMARK    1  A    between atoms: C_1  and  C_2
REMARK    2  A    between atoms: C_2  and  O_3
REMARK    3  A    between atoms: O_3  and  C_4
REMARK    4  A    between atoms: C_4  and  C_6
REMARK    5  A    between atoms: N_10  and  C_11
REMARK    6  A    between atoms: C_11  and  C_12
REMARK    7  A    between atoms: C_11  and  C_13
REMARK                            x       y       z     vdW  Elec       q    Type
REMARK                         _______ _______ _______ _____ _____    ______ ____
ROOT
ATOM      1  C   UNL     1      -8.474  -0.406 123.183  0.00  0.00    +0.000 A 
ATOM      2  C   UNL     1      -9.680  -0.693 122.571  0.00  0.00    +0.000 A 
ATOM      3  N   UNL     1     -10.513   0.389 122.539  0.00  0.00    +0.000 NA
ATOM      4  C   UNL     1      -9.830   1.354 123.102  0.00  0.00    +0.000 A 
ATOM      5  N   UNL     1      -8.622   0.908 123.604  0.00  0.00    +0.000 N 
ENDROOT
BRANCH   1   6
ATOM      6  C   UNL     1      -7.376  -1.317 123.374  0.00  0.00    +0.000 C 
ATOM      7  O   UNL     1      -6.571  -1.671 122.514  0.00  0.00    +0.000 OA
BRANCH   6   8
ATOM      8  O   UNL     1      -7.366  -1.791 124.651  0.00  0.00    +0.000 OA
BRANCH   8  10
ATOM      9  C   UNL     1      -9.115  -3.150 125.583  0.00  0.00    +0.000 C 
ATOM     10  C   UNL     1      -7.846  -3.142 124.756  0.00  0.00    +0.000 C 
ENDBRANCH   8  10
ENDBRANCH   6   8
ENDBRANCH   1   6
BRANCH   5  11
ATOM     11  C   UNL     1      -7.719   1.759 124.400  0.00  0.00    +0.000 C 
ATOM     12  C   UNL     1      -8.449   2.671 125.379  0.00  0.00    +0.000 C 
BRANCH  11  13
ATOM     13  C   UNL     1      -6.736   2.572 123.552  0.00  0.00    +0.000 A 
ATOM     14  C   UNL     1      -5.922   3.589 124.078  0.00  0.00    +0.000 A 
ATOM     15  C   UNL     1      -5.266   4.488 123.246  0.00  0.00    +0.000 A 
ATOM     16  C   UNL     1      -5.261   4.279 121.875  0.00  0.00    +0.000 A 
ATOM     17  C   UNL     1      -5.957   3.206 121.332  0.00  0.00    +0.000 A 
ATOM     18  C   UNL     1      -6.707   2.375 122.160  0.00  0.00    +0.000 A 
ENDBRANCH  11  13
ENDBRANCH   5  11
TORSDOF 5
ENDMDL
MODEL 9
REMARK VINA RESULT:      -5.6      7.129      8.739
REMARK  Name = Etomidate
REMARK  7 active torsions:
REMARK  status: ('A' for Active; 'I' for Inactive)
REMARK    1  A    between atoms: C_1  and  C_2
REMARK    2  A    between atoms: C_2  and  O_3
REMARK    3  A    between atoms: O_3  and  C_4
REMARK    4  A    between atoms: C_4  and  C_6
REMARK    5  A    between atoms: N_10  and  C_11
REMARK    6  A    between atoms: C_11  and  C_12
REMARK    7  A    between atoms: C_11  and  C_13
REMARK                            x       y       z     vdW  Elec       q    Type
REMARK                         _______ _______ _______ _____ _____    ______ ____
ROOT
ATOM      1  C   UNL     1     -10.847   6.576 129.916  0.00  0.00    +0.000 A 
ATOM      2  C   UNL     1     -12.192   6.808 130.140  0.00  0.00    +0.000 A 
ATOM      3  N   UNL     1     -12.517   6.719 131.464  0.00  0.00    +0.000 NA
ATOM      4  C   UNL     1     -11.386   6.458 132.070  0.00  0.00    +0.000 A 
ATOM      5  N   UNL     1     -10.353   6.261 131.174  0.00  0.00    +0.000 N 
ENDROOT
BRANCH   1   6
ATOM      6  C   UNL     1     -10.177   6.603 128.643  0.00  0.00    +0.000 C 
ATOM      7  O   UNL     1      -9.446   5.724 128.190  0.00  0.00    +0.000 OA
BRANCH   6   8
ATOM      8  O   UNL     1     -10.422   7.780 128.000  0.00  0.00    +0.000 OA
BRANCH   8  10
ATOM      9  C   UNL     1     -12.160   7.194 126.448  0.00  0.00    +0.000 C 
ATOM     10  C   UNL     1     -10.712   7.610 126.603  0.00  0.00    +0.000 C 
ENDBRANCH   8  10
ENDBRANCH   6   8
ENDBRANCH   1   6
BRANCH   5  11
ATOM     11  C   UNL     1      -9.005   5.825 131.585  0.00  0.00    +0.000 C 
ATOM     12  C   UNL     1      -7.902   6.793 131.177  0.00  0.00    +0.000 C 
BRANCH  11  13
ATOM     13  C   UNL     1      -8.655   4.404 131.133  0.00  0.00    +0.000 A 
ATOM     14  C   UNL     1      -9.551   3.325 131.219  0.00  0.00    +0.000 A 
ATOM     15  C   UNL     1      -9.113   2.014 131.076  0.00  0.00    +0.000 A 
ATOM     16  C   UNL     1      -7.813   1.763 130.663  0.00  0.00    +0.000 A 
ATOM     17  C   UNL     1      -6.935   2.819 130.449  0.00  0.00    +0.000 A 
ATOM     18  C   UNL     1      -7.345   4.125 130.705  0.00  0.00    +0.000 A 
ENDBRANCH  11  13
ENDBRANCH   5  11
TORSDOF 5
ENDMDL
