MODEL 1
REMARK VINA RESULT:      -8.1      0.000      0.000
REMARK  Name = Etonogestrel
REMARK  4 active torsions:
REMARK  status: ('A' for Active; 'I' for Inactive)
REMARK    1  A    between atoms: C_5  and  O_6
REMARK    2  A    between atoms: C_5  and  C_7
REMARK    3  A    between atoms: C_9  and  C_10
REMARK    4  A    between atoms: C_10  and  C_11
REMARK                            x       y       z     vdW  Elec       q    Type
REMARK                         _______ _______ _______ _____ _____    ______ ____
ROOT
ATOM      1  C   UNL     1      -8.394  -2.269 123.485  0.00  0.00    +0.000 C 
ATOM      2  C   UNL     1      -7.897  -2.372 122.165  0.00  0.00    +0.000 C 
ATOM      3  C   UNL     1      -7.007  -1.708 123.152  0.00  0.00    +0.000 C 
ATOM      4  C   UNL     1      -7.574  -1.883 125.154  0.00  0.00    +0.000 C 
ATOM      5  C   UNL     1      -6.741  -2.633 124.384  0.00  0.00    +0.000 C 
ATOM      6  C   UNL     1      -5.499  -1.263 124.670  0.00  0.00    +0.000 C 
ATOM      7  C   UNL     1      -6.364   0.091 124.922  0.00  0.00    +0.000 C 
ATOM      8  C   UNL     1      -6.168   0.755 126.076  0.00  0.00    +0.000 C 
ATOM      9  C   UNL     1      -7.661   0.423 123.986  0.00  0.00    +0.000 C 
ATOM     10  C   UNL     1      -8.226   1.761 124.208  0.00  0.00    +0.000 C 
ATOM     11  C   UNL     1      -7.085   2.578 124.245  0.00  0.00    +0.000 C 
ATOM     12  C   UNL     1      -5.820   3.092 124.545  0.00  0.00    +0.000 C 
ATOM     13  C   UNL     1      -6.200   3.969 123.220  0.00  0.00    +0.000 C 
ATOM     14  O   UNL     1      -5.339   4.710 122.851  0.00  0.00    +0.000 OA
ATOM     15  C   UNL     1      -7.871   3.492 122.377  0.00  0.00    +0.000 C 
ATOM     16  C   UNL     1      -8.716   2.401 122.877  0.00  0.00    +0.000 C 
ATOM     17  C   UNL     1     -10.027   1.480 122.656  0.00  0.00    +0.000 C 
ATOM     18  C   UNL     1      -9.794  -0.078 122.662  0.00  0.00    +0.000 C 
ATOM     19  C   UNL     1      -8.893  -0.561 123.793  0.00  0.00    +0.000 C 
ENDROOT
BRANCH   4  20
ATOM     20  O   UNL     1      -6.814  -2.110 126.405  0.00  0.00    +0.000 OA
ATOM     21  H   UNL     1      -6.192  -1.435 126.706  0.00  0.00    +0.000 HD
ENDBRANCH   4  20
BRANCH   4  22
ATOM     22  C   UNL     1      -8.793  -2.773 125.703  0.00  0.00    +0.000 C 
ATOM     23  C   UNL     1      -9.672  -3.360 126.223  0.00  0.00    +0.000 C 
ENDBRANCH   4  22
BRANCH   5  24
ATOM     24  C   UNL     1      -6.327  -4.022 124.606  0.00  0.00    +0.000 C 
ATOM     25  C   UNL     1      -5.053  -4.075 123.815  0.00  0.00    +0.000 C 
ENDBRANCH   5  24
TORSDOF 3
ENDMDL
MODEL 2
REMARK VINA RESULT:      -7.9      1.881      3.828
REMARK  Name = Etonogestrel
REMARK  4 active torsions:
REMARK  status: ('A' for Active; 'I' for Inactive)
REMARK    1  A    between atoms: C_5  and  O_6
REMARK    2  A    between atoms: C_5  and  C_7
REMARK    3  A    between atoms: C_9  and  C_10
REMARK    4  A    between atoms: C_10  and  C_11
REMARK                            x       y       z     vdW  Elec       q    Type
REMARK                         _______ _______ _______ _____ _____    ______ ____
ROOT
ATOM      1  C   UNL     1      -6.755  -2.093 125.736  0.00  0.00    +0.000 C 
ATOM      2  C   UNL     1      -7.840  -2.171 126.639  0.00  0.00    +0.000 C 
ATOM      3  C   UNL     1      -8.033  -1.294 125.455  0.00  0.00    +0.000 C 
ATOM      4  C   UNL     1      -6.593  -1.462 123.951  0.00  0.00    +0.000 C 
ATOM      5  C   UNL     1      -7.794  -2.079 124.125  0.00  0.00    +0.000 C 
ATOM      6  C   UNL     1      -8.530  -0.482 123.488  0.00  0.00    +0.000 C 
ATOM      7  C   UNL     1      -7.469   0.692 123.867  0.00  0.00    +0.000 C 
ATOM      8  C   UNL     1      -6.981   1.444 122.864  0.00  0.00    +0.000 C 
ATOM      9  C   UNL     1      -6.759   0.714 125.338  0.00  0.00    +0.000 C 
ATOM     10  C   UNL     1      -5.975   1.928 125.600  0.00  0.00    +0.000 C 
ATOM     11  C   UNL     1      -6.824   2.951 125.148  0.00  0.00    +0.000 C 
ATOM     12  C   UNL     1      -7.695   3.715 124.367  0.00  0.00    +0.000 C 
ATOM     13  C   UNL     1      -7.887   4.427 125.825  0.00  0.00    +0.000 C 
ATOM     14  O   UNL     1      -8.704   5.298 125.847  0.00  0.00    +0.000 OA
ATOM     15  C   UNL     1      -6.926   3.590 127.275  0.00  0.00    +0.000 C 
ATOM     16  C   UNL     1      -6.109   2.385 127.081  0.00  0.00    +0.000 C 
ATOM     17  C   UNL     1      -5.218   1.218 127.758  0.00  0.00    +0.000 C 
ATOM     18  C   UNL     1      -5.638  -0.263 127.421  0.00  0.00    +0.000 C 
ATOM     19  C   UNL     1      -5.931  -0.499 125.944  0.00  0.00    +0.000 C 
ENDROOT
BRANCH   4  20
ATOM     20  O   UNL     1      -6.672  -1.468 122.471  0.00  0.00    +0.000 OA
ATOM     21  H   UNL     1      -7.191  -2.154 122.032  0.00  0.00    +0.000 HD
ENDBRANCH   4  20
BRANCH   4  22
ATOM     22  C   UNL     1      -5.403  -2.539 123.918  0.00  0.00    +0.000 C 
ATOM     23  C   UNL     1      -4.540  -3.327 123.758  0.00  0.00    +0.000 C 
ENDBRANCH   4  22
BRANCH   5  24
ATOM     24  C   UNL     1      -8.239  -3.348 123.539  0.00  0.00    +0.000 C 
ATOM     25  C   UNL     1      -9.719  -3.273 123.779  0.00  0.00    +0.000 C 
ENDBRANCH   5  24
TORSDOF 3
ENDMDL
MODEL 3
REMARK VINA RESULT:      -7.7      3.957      6.097
REMARK  Name = Etonogestrel
REMARK  4 active torsions:
REMARK  status: ('A' for Active; 'I' for Inactive)
REMARK    1  A    between atoms: C_5  and  O_6
REMARK    2  A    between atoms: C_5  and  C_7
REMARK    3  A    between atoms: C_9  and  C_10
REMARK    4  A    between atoms: C_10  and  C_11
REMARK                            x       y       z     vdW  Elec       q    Type
REMARK                         _______ _______ _______ _____ _____    ______ ____
ROOT
ATOM      1  C   UNL     1      -7.117  -2.930 130.392  0.00  0.00    +0.000 C 
ATOM      2  C   UNL     1      -6.512  -4.206 130.322  0.00  0.00    +0.000 C 
ATOM      3  C   UNL     1      -5.812  -3.109 129.606  0.00  0.00    +0.000 C 
ATOM      4  C   UNL     1      -6.494  -1.176 130.010  0.00  0.00    +0.000 C 
ATOM      5  C   UNL     1      -5.498  -1.917 130.568  0.00  0.00    +0.000 C 
ATOM      6  C   UNL     1      -4.510  -1.444 129.052  0.00  0.00    +0.000 C 
ATOM      7  C   UNL     1      -5.591  -1.185 127.865  0.00  0.00    +0.000 C 
ATOM      8  C   UNL     1      -5.589   0.020 127.265  0.00  0.00    +0.000 C 
ATOM      9  C   UNL     1      -6.851  -2.205 127.664  0.00  0.00    +0.000 C 
ATOM     10  C   UNL     1      -7.631  -1.951 126.445  0.00  0.00    +0.000 C 
ATOM     11  C   UNL     1      -6.638  -1.768 125.471  0.00  0.00    +0.000 C 
ATOM     12  C   UNL     1      -5.494  -1.330 124.797  0.00  0.00    +0.000 C 
ATOM     13  C   UNL     1      -5.906  -2.627 123.892  0.00  0.00    +0.000 C 
ATOM     14  O   UNL     1      -5.145  -2.875 123.006  0.00  0.00    +0.000 OA
ATOM     15  C   UNL     1      -7.414  -3.636 124.552  0.00  0.00    +0.000 C 
ATOM     16  C   UNL     1      -8.114  -3.278 125.791  0.00  0.00    +0.000 C 
ATOM     17  C   UNL     1      -9.246  -3.665 126.880  0.00  0.00    +0.000 C 
ATOM     18  C   UNL     1      -8.774  -3.735 128.381  0.00  0.00    +0.000 C 
ATOM     19  C   UNL     1      -7.897  -2.562 128.805  0.00  0.00    +0.000 C 
ENDROOT
BRANCH   4  20
ATOM     20  O   UNL     1      -5.803   0.119 130.211  0.00  0.00    +0.000 OA
ATOM     21  H   UNL     1      -5.033   0.154 130.793  0.00  0.00    +0.000 HD
ENDBRANCH   4  20
BRANCH   4  22
ATOM     22  C   UNL     1      -7.597  -0.789 131.111  0.00  0.00    +0.000 C 
ATOM     23  C   UNL     1      -8.400  -0.378 131.869  0.00  0.00    +0.000 C 
ENDBRANCH   4  22
BRANCH   5  24
ATOM     24  C   UNL     1      -4.891  -1.745 131.892  0.00  0.00    +0.000 C 
ATOM     25  C   UNL     1      -3.748  -2.714 131.814  0.00  0.00    +0.000 C 
ENDBRANCH   5  24
TORSDOF 3
ENDMDL
MODEL 4
REMARK VINA RESULT:      -7.7      3.024      5.334
REMARK  Name = Etonogestrel
REMARK  4 active torsions:
REMARK  status: ('A' for Active; 'I' for Inactive)
REMARK    1  A    between atoms: C_5  and  O_6
REMARK    2  A    between atoms: C_5  and  C_7
REMARK    3  A    between atoms: C_9  and  C_10
REMARK    4  A    between atoms: C_10  and  C_11
REMARK                            x       y       z     vdW  Elec       q    Type
REMARK                         _______ _______ _______ _____ _____    ______ ____
ROOT
ATOM      1  C   UNL     1      -8.110  -2.927 125.717  0.00  0.00    +0.000 C 
ATOM      2  C   UNL     1      -9.518  -2.994 125.825  0.00  0.00    +0.000 C 
ATOM      3  C   UNL     1      -8.925  -1.632 125.811  0.00  0.00    +0.000 C 
ATOM      4  C   UNL     1      -6.906  -1.521 125.287  0.00  0.00    +0.000 C 
ATOM      5  C   UNL     1      -8.040  -1.414 124.542  0.00  0.00    +0.000 C 
ATOM      6  C   UNL     1      -8.140   0.323 125.229  0.00  0.00    +0.000 C 
ATOM      7  C   UNL     1      -7.388   0.287 126.670  0.00  0.00    +0.000 C 
ATOM      8  C   UNL     1      -6.352   1.125 126.859  0.00  0.00    +0.000 C 
ATOM      9  C   UNL     1      -7.644  -0.955 127.700  0.00  0.00    +0.000 C 
ATOM     10  C   UNL     1      -7.047  -0.758 129.028  0.00  0.00    +0.000 C 
ATOM     11  C   UNL     1      -7.395   0.567 129.333  0.00  0.00    +0.000 C 
ATOM     12  C   UNL     1      -7.596   1.948 129.247  0.00  0.00    +0.000 C 
ATOM     13  C   UNL     1      -8.522   1.583 130.543  0.00  0.00    +0.000 C 
ATOM     14  O   UNL     1      -9.127   2.508 130.996  0.00  0.00    +0.000 OA
ATOM     15  C   UNL     1      -8.635  -0.299 130.961  0.00  0.00    +0.000 C 
ATOM     16  C   UNL     1      -7.961  -1.322 130.153  0.00  0.00    +0.000 C 
ATOM     17  C   UNL     1      -7.720  -2.896 129.871  0.00  0.00    +0.000 C 
ATOM     18  C   UNL     1      -7.999  -3.392 128.401  0.00  0.00    +0.000 C 
ATOM     19  C   UNL     1      -7.418  -2.482 127.324  0.00  0.00    +0.000 C 
ENDROOT
BRANCH   4  20
ATOM     20  O   UNL     1      -6.128  -0.575 124.453  0.00  0.00    +0.000 OA
ATOM     21  H   UNL     1      -6.487   0.305 124.281  0.00  0.00    +0.000 HD
ENDBRANCH   4  20
BRANCH   4  22
ATOM     22  C   UNL     1      -6.007  -2.750 124.777  0.00  0.00    +0.000 C 
ATOM     23  C   UNL     1      -5.287  -3.563 124.321  0.00  0.00    +0.000 C 
ENDBRANCH   4  22
BRANCH   5  24
ATOM     24  C   UNL     1      -8.180  -1.612 123.095  0.00  0.00    +0.000 C 
ATOM     25  C   UNL     1      -9.533  -1.011 122.850  0.00  0.00    +0.000 C 
ENDBRANCH   5  24
TORSDOF 3
ENDMDL
MODEL 5
REMARK VINA RESULT:      -7.5      1.872      2.220
REMARK  Name = Etonogestrel
REMARK  4 active torsions:
REMARK  status: ('A' for Active; 'I' for Inactive)
REMARK    1  A    between atoms: C_5  and  O_6
REMARK    2  A    between atoms: C_5  and  C_7
REMARK    3  A    between atoms: C_9  and  C_10
REMARK    4  A    between atoms: C_10  and  C_11
REMARK                            x       y       z     vdW  Elec       q    Type
REMARK                         _______ _______ _______ _____ _____    ______ ____
ROOT
ATOM      1  C   UNL     1      -7.586  -1.527 123.189  0.00  0.00    +0.000 C 
ATOM      2  C   UNL     1      -6.488  -0.945 122.515  0.00  0.00    +0.000 C 
ATOM      3  C   UNL     1      -6.402  -0.984 123.998  0.00  0.00    +0.000 C 
ATOM      4  C   UNL     1      -7.834  -2.160 124.963  0.00  0.00    +0.000 C 
ATOM      5  C   UNL     1      -6.573  -2.441 124.536  0.00  0.00    +0.000 C 
ATOM      6  C   UNL     1      -6.017  -1.538 126.077  0.00  0.00    +0.000 C 
ATOM      7  C   UNL     1      -7.191  -0.468 126.426  0.00  0.00    +0.000 C 
ATOM      8  C   UNL     1      -7.768  -0.543 127.640  0.00  0.00    +0.000 C 
ATOM      9  C   UNL     1      -7.882   0.412 125.236  0.00  0.00    +0.000 C 
ATOM     10  C   UNL     1      -8.787   1.461 125.723  0.00  0.00    +0.000 C 
ATOM     11  C   UNL     1      -8.056   2.041 126.771  0.00  0.00    +0.000 C 
ATOM     12  C   UNL     1      -7.280   2.215 127.920  0.00  0.00    +0.000 C 
ATOM     13  C   UNL     1      -7.147   3.692 127.234  0.00  0.00    +0.000 C 
ATOM     14  O   UNL     1      -6.426   4.446 127.816  0.00  0.00    +0.000 OA
ATOM     15  C   UNL     1      -7.997   3.870 125.510  0.00  0.00    +0.000 C 
ATOM     16  C   UNL     1      -8.684   2.749 124.856  0.00  0.00    +0.000 C 
ATOM     17  C   UNL     1      -9.440   2.194 123.538  0.00  0.00    +0.000 C 
ATOM     18  C   UNL     1      -8.870   0.863 122.917  0.00  0.00    +0.000 C 
ATOM     19  C   UNL     1      -8.570  -0.218 123.950  0.00  0.00    +0.000 C 
ENDROOT
BRANCH   4  20
ATOM     20  O   UNL     1      -7.772  -3.080 126.123  0.00  0.00    +0.000 OA
ATOM     21  H   UNL     1      -8.263  -2.857 126.925  0.00  0.00    +0.000 HD
ENDBRANCH   4  20
BRANCH   4  22
ATOM     22  C   UNL     1      -8.904  -3.109 124.234  0.00  0.00    +0.000 C 
ATOM     23  C   UNL     1      -9.762  -3.692 123.674  0.00  0.00    +0.000 C 
ENDBRANCH   4  22
BRANCH   5  24
ATOM     24  C   UNL     1      -6.003  -3.761 124.243  0.00  0.00    +0.000 C 
ATOM     25  C   UNL     1      -4.652  -3.381 123.713  0.00  0.00    +0.000 C 
ENDBRANCH   5  24
TORSDOF 3
ENDMDL
MODEL 6
REMARK VINA RESULT:      -7.2      3.363      5.991
REMARK  Name = Etonogestrel
REMARK  4 active torsions:
REMARK  status: ('A' for Active; 'I' for Inactive)
REMARK    1  A    between atoms: C_5  and  O_6
REMARK    2  A    between atoms: C_5  and  C_7
REMARK    3  A    between atoms: C_9  and  C_10
REMARK    4  A    between atoms: C_10  and  C_11
REMARK                            x       y       z     vdW  Elec       q    Type
REMARK                         _______ _______ _______ _____ _____    ______ ____
ROOT
ATOM      1  C   UNL     1      -6.824  -1.398 129.978  0.00  0.00    +0.000 C 
ATOM      2  C   UNL     1      -5.583  -2.015 129.699  0.00  0.00    +0.000 C 
ATOM      3  C   UNL     1      -6.012  -0.949 128.757  0.00  0.00    +0.000 C 
ATOM      4  C   UNL     1      -7.644   0.203 129.366  0.00  0.00    +0.000 C 
ATOM      5  C   UNL     1      -6.304   0.387 129.513  0.00  0.00    +0.000 C 
ATOM      6  C   UNL     1      -6.344   0.951 127.730  0.00  0.00    +0.000 C 
ATOM      7  C   UNL     1      -7.604   0.188 127.040  0.00  0.00    +0.000 C 
ATOM      8  C   UNL     1      -8.560   0.945 126.469  0.00  0.00    +0.000 C 
ATOM      9  C   UNL     1      -7.875  -1.394 127.344  0.00  0.00    +0.000 C 
ATOM     10  C   UNL     1      -8.929  -1.987 126.511  0.00  0.00    +0.000 C 
ATOM     11  C   UNL     1      -8.625  -1.500 125.230  0.00  0.00    +0.000 C 
ATOM     12  C   UNL     1      -8.297  -0.654 124.166  0.00  0.00    +0.000 C 
ATOM     13  C   UNL     1      -7.989  -2.114 123.502  0.00  0.00    +0.000 C 
ATOM     14  O   UNL     1      -7.540  -2.071 122.396  0.00  0.00    +0.000 OA
ATOM     15  C   UNL     1      -8.201  -3.616 124.698  0.00  0.00    +0.000 C 
ATOM     16  C   UNL     1      -8.581  -3.448 126.105  0.00  0.00    +0.000 C 
ATOM     17  C   UNL     1      -8.816  -4.143 127.547  0.00  0.00    +0.000 C 
ATOM     18  C   UNL     1      -8.021  -3.524 128.758  0.00  0.00    +0.000 C 
ATOM     19  C   UNL     1      -8.056  -2.000 128.802  0.00  0.00    +0.000 C 
ENDROOT
BRANCH   4  20
ATOM     20  O   UNL     1      -7.953   1.649 129.274  0.00  0.00    +0.000 OA
ATOM     21  H   UNL     1      -8.833   1.924 128.986  0.00  0.00    +0.000 HD
ENDBRANCH   4  20
BRANCH   4  22
ATOM     22  C   UNL     1      -8.365   0.114 130.798  0.00  0.00    +0.000 C 
ATOM     23  C   UNL     1      -8.901   0.184 131.845  0.00  0.00    +0.000 C 
ENDBRANCH   4  22
BRANCH   5  24
ATOM     24  C   UNL     1      -5.622   1.225 130.505  0.00  0.00    +0.000 C 
ATOM     25  C   UNL     1      -4.206   1.159 130.014  0.00  0.00    +0.000 C 
ENDBRANCH   5  24
TORSDOF 3
ENDMDL
MODEL 7
REMARK VINA RESULT:      -7.1      3.007      6.087
REMARK  Name = Etonogestrel
REMARK  4 active torsions:
REMARK  status: ('A' for Active; 'I' for Inactive)
REMARK    1  A    between atoms: C_5  and  O_6
REMARK    2  A    between atoms: C_5  and  C_7
REMARK    3  A    between atoms: C_9  and  C_10
REMARK    4  A    between atoms: C_10  and  C_11
REMARK                            x       y       z     vdW  Elec       q    Type
REMARK                         _______ _______ _______ _____ _____    ______ ____
ROOT
ATOM      1  C   UNL     1      -7.159   0.524 125.559  0.00  0.00    +0.000 C 
ATOM      2  C   UNL     1      -5.748   0.541 125.466  0.00  0.00    +0.000 C 
ATOM      3  C   UNL     1      -6.376  -0.790 125.672  0.00  0.00    +0.000 C 
ATOM      4  C   UNL     1      -8.450  -0.865 125.442  0.00  0.00    +0.000 C 
ATOM      5  C   UNL     1      -7.436  -1.091 124.564  0.00  0.00    +0.000 C 
ATOM      6  C   UNL     1      -7.289  -2.757 125.404  0.00  0.00    +0.000 C 
ATOM      7  C   UNL     1      -7.831  -2.549 126.923  0.00  0.00    +0.000 C 
ATOM      8  C   UNL     1      -8.853  -3.321 127.336  0.00  0.00    +0.000 C 
ATOM      9  C   UNL     1      -7.398  -1.226 127.777  0.00  0.00    +0.000 C 
ATOM     10  C   UNL     1      -7.808  -1.268 129.187  0.00  0.00    +0.000 C 
ATOM     11  C   UNL     1      -7.459  -2.571 129.574  0.00  0.00    +0.000 C 
ATOM     12  C   UNL     1      -7.311  -3.961 129.603  0.00  0.00    +0.000 C 
ATOM     13  C   UNL     1      -6.203  -3.513 130.716  0.00  0.00    +0.000 C 
ATOM     14  O   UNL     1      -5.567  -4.414 131.174  0.00  0.00    +0.000 OA
ATOM     15  C   UNL     1      -5.979  -1.606 130.922  0.00  0.00    +0.000 C 
ATOM     16  C   UNL     1      -6.730  -0.637 130.114  0.00  0.00    +0.000 C 
ATOM     17  C   UNL     1      -6.964   0.911 129.709  0.00  0.00    +0.000 C 
ATOM     18  C   UNL     1      -6.879   1.250 128.172  0.00  0.00    +0.000 C 
ATOM     19  C   UNL     1      -7.631   0.266 127.283  0.00  0.00    +0.000 C 
ENDROOT
BRANCH   4  20
ATOM     20  O   UNL     1      -9.364  -1.853 124.823  0.00  0.00    +0.000 OA
ATOM     21  H   UNL     1      -9.029  -2.430 124.124  0.00  0.00    +0.000 HD
ENDBRANCH   4  20
BRANCH   4  22
ATOM     22  C   UNL     1      -9.376   0.346 124.938  0.00  0.00    +0.000 C 
ATOM     23  C   UNL     1     -10.150   1.141 124.541  0.00  0.00    +0.000 C 
ENDBRANCH   4  22
BRANCH   5  24
ATOM     24  C   UNL     1      -7.494  -1.040 123.099  0.00  0.00    +0.000 C 
ATOM     25  C   UNL     1      -6.259  -1.809 122.733  0.00  0.00    +0.000 C 
ENDBRANCH   5  24
TORSDOF 3
ENDMDL
MODEL 8
REMARK VINA RESULT:      -7.0      6.097      9.266
REMARK  Name = Etonogestrel
REMARK  4 active torsions:
REMARK  status: ('A' for Active; 'I' for Inactive)
REMARK    1  A    between atoms: C_5  and  O_6
REMARK    2  A    between atoms: C_5  and  C_7
REMARK    3  A    between atoms: C_9  and  C_10
REMARK    4  A    between atoms: C_10  and  C_11
REMARK                            x       y       z     vdW  Elec       q    Type
REMARK                         _______ _______ _______ _____ _____    ______ ____
ROOT
ATOM      1  C   UNL     1      -2.346   5.677 129.774  0.00  0.00    +0.000 C 
ATOM      2  C   UNL     1      -2.173   6.707 128.821  0.00  0.00    +0.000 C 
ATOM      3  C   UNL     1      -3.553   6.518 129.339  0.00  0.00    +0.000 C 
ATOM      4  C   UNL     1      -3.740   5.261 130.996  0.00  0.00    +0.000 C 
ATOM      5  C   UNL     1      -3.587   6.609 130.899  0.00  0.00    +0.000 C 
ATOM      6  C   UNL     1      -5.411   6.628 130.483  0.00  0.00    +0.000 C 
ATOM      7  C   UNL     1      -5.739   5.184 129.809  0.00  0.00    +0.000 C 
ATOM      8  C   UNL     1      -6.691   4.425 130.384  0.00  0.00    +0.000 C 
ATOM      9  C   UNL     1      -4.715   4.537 128.713  0.00  0.00    +0.000 C 
ATOM     10  C   UNL     1      -5.233   3.329 128.058  0.00  0.00    +0.000 C 
ATOM     11  C   UNL     1      -6.555   3.685 127.747  0.00  0.00    +0.000 C 
ATOM     12  C   UNL     1      -7.865   4.164 127.838  0.00  0.00    +0.000 C 
ATOM     13  C   UNL     1      -7.689   4.061 126.217  0.00  0.00    +0.000 C 
ATOM     14  O   UNL     1      -8.626   4.453 125.590  0.00  0.00    +0.000 OA
ATOM     15  C   UNL     1      -5.930   3.534 125.620  0.00  0.00    +0.000 C 
ATOM     16  C   UNL     1      -4.829   3.276 126.557  0.00  0.00    +0.000 C 
ATOM     17  C   UNL     1      -3.260   2.942 126.759  0.00  0.00    +0.000 C 
ATOM     18  C   UNL     1      -2.451   3.925 127.687  0.00  0.00    +0.000 C 
ATOM     19  C   UNL     1      -3.171   4.279 128.984  0.00  0.00    +0.000 C 
ENDROOT
BRANCH   4  20
ATOM     20  O   UNL     1      -4.563   5.324 132.227  0.00  0.00    +0.000 OA
ATOM     21  H   UNL     1      -5.341   4.757 132.301  0.00  0.00    +0.000 HD
ENDBRANCH   4  20
BRANCH   4  22
ATOM     22  C   UNL     1      -2.520   4.611 131.815  0.00  0.00    +0.000 C 
ATOM     23  C   UNL     1      -1.713   4.121 132.519  0.00  0.00    +0.000 C 
ENDBRANCH   4  22
BRANCH   5  24
ATOM     24  C   UNL     1      -3.086   7.528 131.926  0.00  0.00    +0.000 C 
ATOM     25  C   UNL     1      -3.219   8.848 131.224  0.00  0.00    +0.000 C 
ENDBRANCH   5  24
TORSDOF 3
ENDMDL
MODEL 9
REMARK VINA RESULT:      -6.9      2.626      3.298
REMARK  Name = Etonogestrel
REMARK  4 active torsions:
REMARK  status: ('A' for Active; 'I' for Inactive)
REMARK    1  A    between atoms: C_5  and  O_6
REMARK    2  A    between atoms: C_5  and  C_7
REMARK    3  A    between atoms: C_9  and  C_10
REMARK    4  A    between atoms: C_10  and  C_11
REMARK                            x       y       z     vdW  Elec       q    Type
REMARK                         _______ _______ _______ _____ _____    ______ ____
ROOT
ATOM      1  C   UNL     1      -6.860  -2.422 126.516  0.00  0.00    +0.000 C 
ATOM      2  C   UNL     1      -5.618  -2.257 125.860  0.00  0.00    +0.000 C 
ATOM      3  C   UNL     1      -5.920  -1.289 126.945  0.00  0.00    +0.000 C 
ATOM      4  C   UNL     1      -7.565  -1.749 128.147  0.00  0.00    +0.000 C 
ATOM      5  C   UNL     1      -6.240  -2.024 128.287  0.00  0.00    +0.000 C 
ATOM      6  C   UNL     1      -6.092  -0.250 128.860  0.00  0.00    +0.000 C 
ATOM      7  C   UNL     1      -7.305   0.563 128.144  0.00  0.00    +0.000 C 
ATOM      8  C   UNL     1      -8.177   1.215 128.935  0.00  0.00    +0.000 C 
ATOM      9  C   UNL     1      -7.655   0.299 126.570  0.00  0.00    +0.000 C 
ATOM     10  C   UNL     1      -8.643   1.234 126.017  0.00  0.00    +0.000 C 
ATOM     11  C   UNL     1      -8.203   2.476 126.500  0.00  0.00    +0.000 C 
ATOM     12  C   UNL     1      -7.748   3.496 127.341  0.00  0.00    +0.000 C 
ATOM     13  C   UNL     1      -7.426   4.141 125.875  0.00  0.00    +0.000 C 
ATOM     14  O   UNL     1      -6.872   5.198 125.909  0.00  0.00    +0.000 OA
ATOM     15  C   UNL     1      -7.799   2.983 124.375  0.00  0.00    +0.000 C 
ATOM     16  C   UNL     1      -8.306   1.617 124.547  0.00  0.00    +0.000 C 
ATOM     17  C   UNL     1      -8.700   0.210 123.853  0.00  0.00    +0.000 C 
ATOM     18  C   UNL     1      -8.003  -1.076 124.439  0.00  0.00    +0.000 C 
ATOM     19  C   UNL     1      -7.993  -1.130 125.963  0.00  0.00    +0.000 C 
ENDROOT
BRANCH   4  20
ATOM     20  O   UNL     1      -7.816  -1.641 129.603  0.00  0.00    +0.000 OA
ATOM     21  H   UNL     1      -7.064  -1.613 130.208  0.00  0.00    +0.000 HD
ENDBRANCH   4  20
BRANCH   4  22
ATOM     22  C   UNL     1      -8.421  -3.106 128.074  0.00  0.00    +0.000 C 
ATOM     23  C   UNL     1      -9.124  -4.051 128.123  0.00  0.00    +0.000 C 
ENDBRANCH   4  22
BRANCH   5  24
ATOM     24  C   UNL     1      -5.628  -3.084 129.095  0.00  0.00    +0.000 C 
ATOM     25  C   UNL     1      -4.173  -2.735 128.976  0.00  0.00    +0.000 C 
ENDBRANCH   5  24
TORSDOF 3
ENDMDL
