MODEL 1
REMARK VINA RESULT:      -9.4      0.000      0.000
REMARK  Name = Etoposide
REMARK  11 active torsions:
REMARK  status: ('A' for Active; 'I' for Inactive)
REMARK    1  A    between atoms: C_9  and  C_10
REMARK    2  A    between atoms: C_12  and  O_13
REMARK    3  A    between atoms: O_13  and  C_14
REMARK    4  A    between atoms: C_15  and  O_16
REMARK    5  A    between atoms: C_17  and  O_18
REMARK    6  A    between atoms: O_18  and  C_19
REMARK    7  A    between atoms: C_30  and  O_31
REMARK    8  A    between atoms: O_31  and  C_32
REMARK    9  A    between atoms: C_38  and  C_39
REMARK   10  A    between atoms: C_43  and  O_44
REMARK   11  A    between atoms: C_45  and  O_46
REMARK                            x       y       z     vdW  Elec       q    Type
REMARK                         _______ _______ _______ _____ _____    ______ ____
ROOT
ATOM      1  C   UNL     1      -4.337   3.467 128.142  0.00  0.00    +0.000 C 
ATOM      2  C   UNL     1      -3.249   3.141 127.155  0.00  0.00    +0.000 C 
ATOM      3  O   UNL     1      -2.254   4.151 127.361  0.00  0.00    +0.000 OA
ATOM      4  C   UNL     1      -2.813   5.259 127.939  0.00  0.00    +0.000 C 
ATOM      5  O   UNL     1      -2.275   6.344 127.975  0.00  0.00    +0.000 OA
ATOM      6  C   UNL     1      -4.251   4.978 128.285  0.00  0.00    +0.000 C 
ATOM      7  C   UNL     1      -5.037   5.476 129.484  0.00  0.00    +0.000 C 
ATOM      8  C   UNL     1      -6.423   4.770 129.563  0.00  0.00    +0.000 A 
ATOM      9  C   UNL     1      -7.404   5.341 130.424  0.00  0.00    +0.000 A 
ATOM     10  C   UNL     1      -8.671   4.793 130.443  0.00  0.00    +0.000 A 
ATOM     11  C   UNL     1      -8.958   3.640 129.760  0.00  0.00    +0.000 A 
ATOM     12  O   UNL     1     -10.279   3.318 129.840  0.00  0.00    +0.000 OA
ATOM     13  C   UNL     1     -10.812   4.499 130.477  0.00  0.00    +0.000 C 
ATOM     14  O   UNL     1      -9.784   5.400 130.941  0.00  0.00    +0.000 OA
ATOM     15  C   UNL     1      -8.007   2.983 128.999  0.00  0.00    +0.000 A 
ATOM     16  C   UNL     1      -6.725   3.559 128.854  0.00  0.00    +0.000 A 
ATOM     17  C   UNL     1      -5.750   2.973 127.810  0.00  0.00    +0.000 C 
ENDROOT
BRANCH   7  18
ATOM     18  C   UNL     1      -4.278   5.295 130.761  0.00  0.00    +0.000 A 
ATOM     19  C   UNL     1      -3.910   4.038 131.217  0.00  0.00    +0.000 A 
ATOM     20  C   UNL     1      -3.285   3.909 132.445  0.00  0.00    +0.000 A 
ATOM     21  C   UNL     1      -2.952   5.074 133.170  0.00  0.00    +0.000 A 
ATOM     22  C   UNL     1      -3.249   6.347 132.694  0.00  0.00    +0.000 A 
ATOM     23  C   UNL     1      -3.933   6.417 131.512  0.00  0.00    +0.000 A 
BRANCH  20  24
ATOM     24  O   UNL     1      -2.963   2.698 133.005  0.00  0.00    +0.000 OA
ATOM     25  C   UNL     1      -3.696   1.565 132.521  0.00  0.00    +0.000 C 
ENDBRANCH  20  24
BRANCH  21  26
ATOM     26  O   UNL     1      -2.321   4.957 134.377  0.00  0.00    +0.000 OA
ATOM     27  H   UNL     1      -3.001   5.180 135.037  0.00  0.00    +0.000 HD
ENDBRANCH  21  26
BRANCH  22  28
ATOM     28  O   UNL     1      -2.893   7.473 133.386  0.00  0.00    +0.000 OA
ATOM     29  C   UNL     1      -2.470   8.600 132.603  0.00  0.00    +0.000 C 
ENDBRANCH  22  28
ENDBRANCH   7  18
BRANCH  17  30
ATOM     30  O   UNL     1      -6.137   3.176 126.402  0.00  0.00    +0.000 OA
BRANCH  30  31
ATOM     31  C   UNL     1      -7.254   2.381 126.003  0.00  0.00    +0.000 C 
ATOM     32  O   UNL     1      -6.725   1.135 125.633  0.00  0.00    +0.000 OA
ATOM     33  C   UNL     1      -7.604   0.049 125.566  0.00  0.00    +0.000 C 
ATOM     34  C   UNL     1      -6.838  -1.205 125.206  0.00  0.00    +0.000 C 
ATOM     35  O   UNL     1      -7.684  -2.294 124.981  0.00  0.00    +0.000 OA
ATOM     36  C   UNL     1      -8.554  -1.976 123.928  0.00  0.00    +0.000 C 
ATOM     37  C   UNL     1      -9.375  -3.222 123.761  0.00  0.00    +0.000 C 
ATOM     38  O   UNL     1      -9.378  -0.848 124.257  0.00  0.00    +0.000 OA
ATOM     39  C   UNL     1      -8.560   0.309 124.442  0.00  0.00    +0.000 C 
ATOM     40  C   UNL     1      -9.308   1.604 124.792  0.00  0.00    +0.000 C 
ATOM     41  C   UNL     1      -8.299   2.811 124.964  0.00  0.00    +0.000 C 
BRANCH  40  42
ATOM     42  O   UNL     1     -10.258   1.896 123.773  0.00  0.00    +0.000 OA
ATOM     43  H   UNL     1     -10.508   2.830 123.875  0.00  0.00    +0.000 HD
ENDBRANCH  40  42
BRANCH  41  44
ATOM     44  O   UNL     1      -9.009   3.978 125.410  0.00  0.00    +0.000 OA
ATOM     45  H   UNL     1      -9.856   3.705 125.807  0.00  0.00    +0.000 HD
ENDBRANCH  41  44
ENDBRANCH  30  31
ENDBRANCH  17  30
TORSDOF 8
ENDMDL
MODEL 2
REMARK VINA RESULT:      -9.3      3.819      8.598
REMARK  Name = Etoposide
REMARK  11 active torsions:
REMARK  status: ('A' for Active; 'I' for Inactive)
REMARK    1  A    between atoms: C_9  and  C_10
REMARK    2  A    between atoms: C_12  and  O_13
REMARK    3  A    between atoms: O_13  and  C_14
REMARK    4  A    between atoms: C_15  and  O_16
REMARK    5  A    between atoms: C_17  and  O_18
REMARK    6  A    between atoms: O_18  and  C_19
REMARK    7  A    between atoms: C_30  and  O_31
REMARK    8  A    between atoms: O_31  and  C_32
REMARK    9  A    between atoms: C_38  and  C_39
REMARK   10  A    between atoms: C_43  and  O_44
REMARK   11  A    between atoms: C_45  and  O_46
REMARK                            x       y       z     vdW  Elec       q    Type
REMARK                         _______ _______ _______ _____ _____    ______ ____
ROOT
ATOM      1  C   UNL     1      -8.030   2.957 126.548  0.00  0.00    +0.000 C 
ATOM      2  C   UNL     1      -8.249   4.265 125.838  0.00  0.00    +0.000 C 
ATOM      3  O   UNL     1      -7.332   4.243 124.738  0.00  0.00    +0.000 OA
ATOM      4  C   UNL     1      -6.302   3.378 124.995  0.00  0.00    +0.000 C 
ATOM      5  O   UNL     1      -5.263   3.366 124.373  0.00  0.00    +0.000 OA
ATOM      6  C   UNL     1      -6.565   2.648 126.285  0.00  0.00    +0.000 C 
ATOM      7  C   UNL     1      -6.222   1.210 126.629  0.00  0.00    +0.000 C 
ATOM      8  C   UNL     1      -6.865   0.803 127.988  0.00  0.00    +0.000 A 
ATOM      9  C   UNL     1      -6.389  -0.386 128.612  0.00  0.00    +0.000 A 
ATOM     10  C   UNL     1      -6.872  -0.721 129.860  0.00  0.00    +0.000 A 
ATOM     11  C   UNL     1      -7.891  -0.012 130.443  0.00  0.00    +0.000 A 
ATOM     12  O   UNL     1      -8.158  -0.451 131.704  0.00  0.00    +0.000 OA
ATOM     13  C   UNL     1      -7.066  -1.373 131.912  0.00  0.00    +0.000 C 
ATOM     14  O   UNL     1      -6.298  -1.613 130.714  0.00  0.00    +0.000 OA
ATOM     15  C   UNL     1      -8.466   1.085 129.826  0.00  0.00    +0.000 A 
ATOM     16  C   UNL     1      -7.936   1.539 128.598  0.00  0.00    +0.000 A 
ATOM     17  C   UNL     1      -8.399   2.901 128.036  0.00  0.00    +0.000 C 
ENDROOT
BRANCH   7  18
ATOM     18  C   UNL     1      -6.634   0.265 125.545  0.00  0.00    +0.000 A 
ATOM     19  C   UNL     1      -5.757  -0.674 125.025  0.00  0.00    +0.000 A 
ATOM     20  C   UNL     1      -6.151  -1.470 123.964  0.00  0.00    +0.000 A 
ATOM     21  C   UNL     1      -7.477  -1.371 123.489  0.00  0.00    +0.000 A 
ATOM     22  C   UNL     1      -8.394  -0.484 124.045  0.00  0.00    +0.000 A 
ATOM     23  C   UNL     1      -7.932   0.332 125.042  0.00  0.00    +0.000 A 
BRANCH  20  24
ATOM     24  O   UNL     1      -5.318  -2.365 123.339  0.00  0.00    +0.000 OA
ATOM     25  C   UNL     1      -5.079  -3.595 124.035  0.00  0.00    +0.000 C 
ENDBRANCH  20  24
BRANCH  21  26
ATOM     26  O   UNL     1      -7.880  -2.163 122.450  0.00  0.00    +0.000 OA
ATOM     27  H   UNL     1      -7.277  -2.926 122.469  0.00  0.00    +0.000 HD
ENDBRANCH  21  26
BRANCH  22  28
ATOM     28  O   UNL     1      -9.687  -0.417 123.603  0.00  0.00    +0.000 OA
ATOM     29  C   UNL     1     -10.047   0.750 122.847  0.00  0.00    +0.000 C 
ENDBRANCH  22  28
ENDBRANCH   7  18
BRANCH  17  30
ATOM     30  O   UNL     1      -7.962   4.082 128.803  0.00  0.00    +0.000 OA
BRANCH  30  31
ATOM     31  C   UNL     1      -9.038   4.771 129.439  0.00  0.00    +0.000 C 
ATOM     32  O   UNL     1      -9.355   5.848 128.597  0.00  0.00    +0.000 OA
ATOM     33  C   UNL     1     -10.600   6.462 128.767  0.00  0.00    +0.000 C 
ATOM     34  C   UNL     1     -10.773   7.556 127.737  0.00  0.00    +0.000 C 
ATOM     35  O   UNL     1     -11.935   8.303 127.949  0.00  0.00    +0.000 OA
ATOM     36  C   UNL     1     -11.867   8.886 129.223  0.00  0.00    +0.000 C 
ATOM     37  C   UNL     1     -13.137   9.680 129.315  0.00  0.00    +0.000 C 
ATOM     38  O   UNL     1     -11.801   7.885 130.249  0.00  0.00    +0.000 OA
ATOM     39  C   UNL     1     -10.596   7.129 130.108  0.00  0.00    +0.000 C 
ATOM     40  C   UNL     1     -10.381   6.020 131.150  0.00  0.00    +0.000 C 
ATOM     41  C   UNL     1      -9.016   5.262 130.894  0.00  0.00    +0.000 C 
BRANCH  40  42
ATOM     42  O   UNL     1     -10.395   6.584 132.457  0.00  0.00    +0.000 OA
ATOM     43  H   UNL     1     -10.542   7.539 132.353  0.00  0.00    +0.000 HD
ENDBRANCH  40  42
BRANCH  41  44
ATOM     44  O   UNL     1      -8.898   4.154 131.802  0.00  0.00    +0.000 OA
ATOM     45  H   UNL     1      -9.721   4.074 132.317  0.00  0.00    +0.000 HD
ENDBRANCH  41  44
ENDBRANCH  30  31
ENDBRANCH  17  30
TORSDOF 8
ENDMDL
MODEL 3
REMARK VINA RESULT:      -9.3      3.718      8.797
REMARK  Name = Etoposide
REMARK  11 active torsions:
REMARK  status: ('A' for Active; 'I' for Inactive)
REMARK    1  A    between atoms: C_9  and  C_10
REMARK    2  A    between atoms: C_12  and  O_13
REMARK    3  A    between atoms: O_13  and  C_14
REMARK    4  A    between atoms: C_15  and  O_16
REMARK    5  A    between atoms: C_17  and  O_18
REMARK    6  A    between atoms: O_18  and  C_19
REMARK    7  A    between atoms: C_30  and  O_31
REMARK    8  A    between atoms: O_31  and  C_32
REMARK    9  A    between atoms: C_38  and  C_39
REMARK   10  A    between atoms: C_43  and  O_44
REMARK   11  A    between atoms: C_45  and  O_46
REMARK                            x       y       z     vdW  Elec       q    Type
REMARK                         _______ _______ _______ _____ _____    ______ ____
ROOT
ATOM      1  C   UNL     1      -7.993   2.901 126.419  0.00  0.00    +0.000 C 
ATOM      2  C   UNL     1      -8.225   4.248 125.791  0.00  0.00    +0.000 C 
ATOM      3  O   UNL     1      -7.386   4.259 124.629  0.00  0.00    +0.000 OA
ATOM      4  C   UNL     1      -6.364   3.358 124.773  0.00  0.00    +0.000 C 
ATOM      5  O   UNL     1      -5.370   3.352 124.080  0.00  0.00    +0.000 OA
ATOM      6  C   UNL     1      -6.559   2.570 126.040  0.00  0.00    +0.000 C 
ATOM      7  C   UNL     1      -6.233   1.108 126.290  0.00  0.00    +0.000 C 
ATOM      8  C   UNL     1      -6.794   0.649 127.669  0.00  0.00    +0.000 A 
ATOM      9  C   UNL     1      -6.309  -0.581 128.199  0.00  0.00    +0.000 A 
ATOM     10  C   UNL     1      -6.715  -0.967 129.460  0.00  0.00    +0.000 A 
ATOM     11  C   UNL     1      -7.672  -0.264 130.146  0.00  0.00    +0.000 A 
ATOM     12  O   UNL     1      -7.865  -0.759 131.400  0.00  0.00    +0.000 OA
ATOM     13  C   UNL     1      -6.787  -1.716 131.487  0.00  0.00    +0.000 C 
ATOM     14  O   UNL     1      -6.109  -1.914 130.228  0.00  0.00    +0.000 OA
ATOM     15  C   UNL     1      -8.258   0.877 129.625  0.00  0.00    +0.000 A 
ATOM     16  C   UNL     1      -7.800   1.379 128.386  0.00  0.00    +0.000 A 
ATOM     17  C   UNL     1      -8.262   2.778 127.924  0.00  0.00    +0.000 C 
ENDROOT
BRANCH   7  18
ATOM     18  C   UNL     1      -6.744   0.230 125.192  0.00  0.00    +0.000 A 
ATOM     19  C   UNL     1      -8.040   0.343 124.712  0.00  0.00    +0.000 A 
ATOM     20  C   UNL     1      -8.499  -0.546 123.756  0.00  0.00    +0.000 A 
ATOM     21  C   UNL     1      -7.605  -1.499 123.221  0.00  0.00    +0.000 A 
ATOM     22  C   UNL     1      -6.281  -1.582 123.640  0.00  0.00    +0.000 A 
ATOM     23  C   UNL     1      -5.898  -0.729 124.639  0.00  0.00    +0.000 A 
BRANCH  20  24
ATOM     24  O   UNL     1      -9.791  -0.554 123.289  0.00  0.00    +0.000 OA
ATOM     25  C   UNL     1     -10.186   0.583 122.511  0.00  0.00    +0.000 C 
ENDBRANCH  20  24
BRANCH  21  26
ATOM     26  O   UNL     1      -8.046  -2.373 122.267  0.00  0.00    +0.000 OA
ATOM     27  H   UNL     1      -9.011  -2.405 122.384  0.00  0.00    +0.000 HD
ENDBRANCH  21  26
BRANCH  22  28
ATOM     28  O   UNL     1      -5.411  -2.485 123.093  0.00  0.00    +0.000 OA
ATOM     29  C   UNL     1      -4.987  -3.564 123.941  0.00  0.00    +0.000 C 
ENDBRANCH  22  28
ENDBRANCH   7  18
BRANCH  17  30
ATOM     30  O   UNL     1      -7.742   3.908 128.716  0.00  0.00    +0.000 OA
BRANCH  30  31
ATOM     31  C   UNL     1      -8.761   4.629 129.408  0.00  0.00    +0.000 C 
ATOM     32  O   UNL     1      -9.170   5.648 128.535  0.00  0.00    +0.000 OA
ATOM     33  C   UNL     1     -10.401   6.264 128.785  0.00  0.00    +0.000 C 
ATOM     34  C   UNL     1     -10.685   7.290 127.710  0.00  0.00    +0.000 C 
ATOM     35  O   UNL     1     -11.831   8.040 127.986  0.00  0.00    +0.000 OA
ATOM     36  C   UNL     1     -11.649   8.703 129.208  0.00  0.00    +0.000 C 
ATOM     37  C   UNL     1     -12.915   9.493 129.372  0.00  0.00    +0.000 C 
ATOM     38  O   UNL     1     -11.473   7.770 130.284  0.00  0.00    +0.000 OA
ATOM     39  C   UNL     1     -10.278   7.014 130.075  0.00  0.00    +0.000 C 
ATOM     40  C   UNL     1      -9.951   5.974 131.159  0.00  0.00    +0.000 C 
ATOM     41  C   UNL     1      -8.607   5.211 130.821  0.00  0.00    +0.000 C 
BRANCH  40  42
ATOM     42  O   UNL     1      -9.848   6.620 132.423  0.00  0.00    +0.000 OA
ATOM     43  H   UNL     1     -10.144   7.537 132.300  0.00  0.00    +0.000 HD
ENDBRANCH  40  42
BRANCH  41  44
ATOM     44  O   UNL     1      -8.389   4.164 131.780  0.00  0.00    +0.000 OA
ATOM     45  H   UNL     1      -9.230   3.699 131.943  0.00  0.00    +0.000 HD
ENDBRANCH  41  44
ENDBRANCH  30  31
ENDBRANCH  17  30
TORSDOF 8
ENDMDL
MODEL 4
REMARK VINA RESULT:      -9.2      3.657      7.598
REMARK  Name = Etoposide
REMARK  11 active torsions:
REMARK  status: ('A' for Active; 'I' for Inactive)
REMARK    1  A    between atoms: C_9  and  C_10
REMARK    2  A    between atoms: C_12  and  O_13
REMARK    3  A    between atoms: O_13  and  C_14
REMARK    4  A    between atoms: C_15  and  O_16
REMARK    5  A    between atoms: C_17  and  O_18
REMARK    6  A    between atoms: O_18  and  C_19
REMARK    7  A    between atoms: C_30  and  O_31
REMARK    8  A    between atoms: O_31  and  C_32
REMARK    9  A    between atoms: C_38  and  C_39
REMARK   10  A    between atoms: C_43  and  O_44
REMARK   11  A    between atoms: C_45  and  O_46
REMARK                            x       y       z     vdW  Elec       q    Type
REMARK                         _______ _______ _______ _____ _____    ______ ____
ROOT
ATOM      1  C   UNL     1      -7.822   1.332 131.037  0.00  0.00    +0.000 C 
ATOM      2  C   UNL     1      -9.101   0.698 131.512  0.00  0.00    +0.000 C 
ATOM      3  O   UNL     1      -8.915  -0.707 131.298  0.00  0.00    +0.000 OA
ATOM      4  C   UNL     1      -7.962  -0.918 130.337  0.00  0.00    +0.000 C 
ATOM      5  O   UNL     1      -7.802  -1.978 129.771  0.00  0.00    +0.000 OA
ATOM      6  C   UNL     1      -7.343   0.395 129.940  0.00  0.00    +0.000 C 
ATOM      7  C   UNL     1      -5.900   0.668 129.557  0.00  0.00    +0.000 C 
ATOM      8  C   UNL     1      -5.647   2.200 129.430  0.00  0.00    +0.000 A 
ATOM      9  C   UNL     1      -4.453   2.617 128.773  0.00  0.00    +0.000 A 
ATOM     10  C   UNL     1      -4.248   3.965 128.562  0.00  0.00    +0.000 A 
ATOM     11  C   UNL     1      -5.095   4.905 129.089  0.00  0.00    +0.000 A 
ATOM     12  O   UNL     1      -4.764   6.166 128.693  0.00  0.00    +0.000 OA
ATOM     13  C   UNL     1      -3.745   5.887 127.709  0.00  0.00    +0.000 C 
ATOM     14  O   UNL     1      -3.352   4.498 127.685  0.00  0.00    +0.000 OA
ATOM     15  C   UNL     1      -6.208   4.554 129.832  0.00  0.00    +0.000 A 
ATOM     16  C   UNL     1      -6.528   3.187 129.985  0.00  0.00    +0.000 A 
ATOM     17  C   UNL     1      -7.895   2.797 130.588  0.00  0.00    +0.000 C 
ENDROOT
BRANCH   7  18
ATOM     18  C   UNL     1      -4.941   0.052 130.526  0.00  0.00    +0.000 A 
ATOM     19  C   UNL     1      -4.629   0.664 131.730  0.00  0.00    +0.000 A 
ATOM     20  C   UNL     1      -3.673   0.103 132.559  0.00  0.00    +0.000 A 
ATOM     21  C   UNL     1      -3.096  -1.135 132.199  0.00  0.00    +0.000 A 
ATOM     22  C   UNL     1      -3.448  -1.799 131.028  0.00  0.00    +0.000 A 
ATOM     23  C   UNL     1      -4.343  -1.166 130.209  0.00  0.00    +0.000 A 
BRANCH  20  24
ATOM     24  O   UNL     1      -3.248   0.687 133.726  0.00  0.00    +0.000 OA
ATOM     25  C   UNL     1      -3.285   2.119 133.764  0.00  0.00    +0.000 C 
ENDBRANCH  20  24
BRANCH  21  26
ATOM     26  O   UNL     1      -2.160  -1.703 133.017  0.00  0.00    +0.000 OA
ATOM     27  H   UNL     1      -2.645  -2.381 133.519  0.00  0.00    +0.000 HD
ENDBRANCH  21  26
BRANCH  22  28
ATOM     28  O   UNL     1      -2.911  -3.014 130.703  0.00  0.00    +0.000 OA
ATOM     29  C   UNL     1      -3.175  -3.499 129.377  0.00  0.00    +0.000 C 
ENDBRANCH  22  28
ENDBRANCH   7  18
BRANCH  17  30
ATOM     30  O   UNL     1      -9.067   3.105 129.748  0.00  0.00    +0.000 OA
BRANCH  30  31
ATOM     31  C   UNL     1      -9.917   4.104 130.310  0.00  0.00    +0.000 C 
ATOM     32  O   UNL     1     -10.113   5.055 129.297  0.00  0.00    +0.000 OA
ATOM     33  C   UNL     1     -11.193   5.934 129.430  0.00  0.00    +0.000 C 
ATOM     34  C   UNL     1     -11.266   6.838 128.220  0.00  0.00    +0.000 C 
ATOM     35  O   UNL     1     -12.235   7.834 128.363  0.00  0.00    +0.000 OA
ATOM     36  C   UNL     1     -11.920   8.609 129.489  0.00  0.00    +0.000 C 
ATOM     37  C   UNL     1     -12.999   9.652 129.513  0.00  0.00    +0.000 C 
ATOM     38  O   UNL     1     -11.934   7.816 130.685  0.00  0.00    +0.000 OA
ATOM     39  C   UNL     1     -10.918   6.814 130.610  0.00  0.00    +0.000 C 
ATOM     40  C   UNL     1     -10.805   5.888 131.832  0.00  0.00    +0.000 C 
ATOM     41  C   UNL     1      -9.644   4.831 131.635  0.00  0.00    +0.000 C 
BRANCH  40  42
ATOM     42  O   UNL     1     -10.570   6.667 133.000  0.00  0.00    +0.000 OA
ATOM     43  H   UNL     1      -9.611   6.808 133.060  0.00  0.00    +0.000 HD
ENDBRANCH  40  42
BRANCH  41  44
ATOM     44  O   UNL     1      -9.641   3.903 132.732  0.00  0.00    +0.000 OA
ATOM     45  H   UNL     1     -10.556   3.619 132.913  0.00  0.00    +0.000 HD
ENDBRANCH  41  44
ENDBRANCH  30  31
ENDBRANCH  17  30
TORSDOF 8
ENDMDL
MODEL 5
REMARK VINA RESULT:      -9.2      1.624      2.657
REMARK  Name = Etoposide
REMARK  11 active torsions:
REMARK  status: ('A' for Active; 'I' for Inactive)
REMARK    1  A    between atoms: C_9  and  C_10
REMARK    2  A    between atoms: C_12  and  O_13
REMARK    3  A    between atoms: O_13  and  C_14
REMARK    4  A    between atoms: C_15  and  O_16
REMARK    5  A    between atoms: C_17  and  O_18
REMARK    6  A    between atoms: O_18  and  C_19
REMARK    7  A    between atoms: C_30  and  O_31
REMARK    8  A    between atoms: O_31  and  C_32
REMARK    9  A    between atoms: C_38  and  C_39
REMARK   10  A    between atoms: C_43  and  O_44
REMARK   11  A    between atoms: C_45  and  O_46
REMARK                            x       y       z     vdW  Elec       q    Type
REMARK                         _______ _______ _______ _____ _____    ______ ____
ROOT
ATOM      1  C   UNL     1      -4.969   4.346 129.403  0.00  0.00    +0.000 C 
ATOM      2  C   UNL     1      -3.842   3.995 128.470  0.00  0.00    +0.000 C 
ATOM      3  O   UNL     1      -2.724   4.754 128.945  0.00  0.00    +0.000 OA
ATOM      4  C   UNL     1      -3.155   5.834 129.669  0.00  0.00    +0.000 C 
ATOM      5  O   UNL     1      -2.452   6.779 129.952  0.00  0.00    +0.000 OA
ATOM      6  C   UNL     1      -4.650   5.769 129.831  0.00  0.00    +0.000 C 
ATOM      7  C   UNL     1      -5.478   6.196 131.030  0.00  0.00    +0.000 C 
ATOM      8  C   UNL     1      -6.962   5.755 130.857  0.00  0.00    +0.000 A 
ATOM      9  C   UNL     1      -7.928   6.345 131.721  0.00  0.00    +0.000 A 
ATOM     10  C   UNL     1      -9.262   6.046 131.529  0.00  0.00    +0.000 A 
ATOM     11  C   UNL     1      -9.655   5.097 130.622  0.00  0.00    +0.000 A 
ATOM     12  O   UNL     1     -11.011   5.016 130.526  0.00  0.00    +0.000 OA
ATOM     13  C   UNL     1     -11.411   6.151 131.324  0.00  0.00    +0.000 C 
ATOM     14  O   UNL     1     -10.309   6.756 132.033  0.00  0.00    +0.000 OA
ATOM     15  C   UNL     1      -8.744   4.412 129.836  0.00  0.00    +0.000 A 
ATOM     16  C   UNL     1      -7.376   4.758 129.912  0.00  0.00    +0.000 A 
ATOM     17  C   UNL     1      -6.396   4.185 128.865  0.00  0.00    +0.000 C 
ENDROOT
BRANCH   7  18
ATOM     18  C   UNL     1      -4.915   5.667 132.311  0.00  0.00    +0.000 A 
ATOM     19  C   UNL     1      -4.173   6.467 133.165  0.00  0.00    +0.000 A 
ATOM     20  C   UNL     1      -3.597   5.916 134.297  0.00  0.00    +0.000 A 
ATOM     21  C   UNL     1      -3.855   4.562 134.607  0.00  0.00    +0.000 A 
ATOM     22  C   UNL     1      -4.656   3.762 133.798  0.00  0.00    +0.000 A 
ATOM     23  C   UNL     1      -5.139   4.335 132.653  0.00  0.00    +0.000 A 
BRANCH  20  24
ATOM     24  O   UNL     1      -2.782   6.619 135.150  0.00  0.00    +0.000 OA
ATOM     25  C   UNL     1      -1.475   6.935 134.653  0.00  0.00    +0.000 C 
ENDBRANCH  20  24
BRANCH  21  26
ATOM     26  O   UNL     1      -3.302   4.013 135.729  0.00  0.00    +0.000 OA
ATOM     27  H   UNL     1      -2.356   3.921 135.523  0.00  0.00    +0.000 HD
ENDBRANCH  21  26
BRANCH  22  28
ATOM     28  O   UNL     1      -4.929   2.461 134.122  0.00  0.00    +0.000 OA
ATOM     29  C   UNL     1      -6.316   2.093 134.182  0.00  0.00    +0.000 C 
ENDBRANCH  22  28
ENDBRANCH   7  18
BRANCH  17  30
ATOM     30  O   UNL     1      -6.575   4.689 127.491  0.00  0.00    +0.000 OA
BRANCH  30  31
ATOM     31  C   UNL     1      -7.280   3.780 126.644  0.00  0.00    +0.000 C 
ATOM     32  O   UNL     1      -6.396   2.718 126.403  0.00  0.00    +0.000 OA
ATOM     33  C   UNL     1      -6.937   1.517 125.929  0.00  0.00    +0.000 C 
ATOM     34  C   UNL     1      -5.839   0.486 125.785  0.00  0.00    +0.000 C 
ATOM     35  O   UNL     1      -6.294  -0.687 125.177  0.00  0.00    +0.000 OA
ATOM     36  C   UNL     1      -6.788  -0.370 123.904  0.00  0.00    +0.000 C 
ATOM     37  C   UNL     1      -7.206  -1.700 123.347  0.00  0.00    +0.000 C 
ATOM     38  O   UNL     1      -7.900   0.533 123.988  0.00  0.00    +0.000 OA
ATOM     39  C   UNL     1      -7.472   1.774 124.554  0.00  0.00    +0.000 C 
ATOM     40  C   UNL     1      -8.559   2.850 124.698  0.00  0.00    +0.000 C 
ATOM     41  C   UNL     1      -7.963   4.174 125.326  0.00  0.00    +0.000 C 
BRANCH  40  42
ATOM     42  O   UNL     1      -9.132   3.122 123.424  0.00  0.00    +0.000 OA
ATOM     43  H   UNL     1      -8.554   2.713 122.758  0.00  0.00    +0.000 HD
ENDBRANCH  40  42
BRANCH  41  44
ATOM     44  O   UNL     1      -9.020   5.117 125.564  0.00  0.00    +0.000 OA
ATOM     45  H   UNL     1      -8.665   6.022 125.486  0.00  0.00    +0.000 HD
ENDBRANCH  41  44
ENDBRANCH  30  31
ENDBRANCH  17  30
TORSDOF 8
ENDMDL
MODEL 6
REMARK VINA RESULT:      -9.2      3.961      7.282
REMARK  Name = Etoposide
REMARK  11 active torsions:
REMARK  status: ('A' for Active; 'I' for Inactive)
REMARK    1  A    between atoms: C_9  and  C_10
REMARK    2  A    between atoms: C_12  and  O_13
REMARK    3  A    between atoms: O_13  and  C_14
REMARK    4  A    between atoms: C_15  and  O_16
REMARK    5  A    between atoms: C_17  and  O_18
REMARK    6  A    between atoms: O_18  and  C_19
REMARK    7  A    between atoms: C_30  and  O_31
REMARK    8  A    between atoms: O_31  and  C_32
REMARK    9  A    between atoms: C_38  and  C_39
REMARK   10  A    between atoms: C_43  and  O_44
REMARK   11  A    between atoms: C_45  and  O_46
REMARK                            x       y       z     vdW  Elec       q    Type
REMARK                         _______ _______ _______ _____ _____    ______ ____
ROOT
ATOM      1  C   UNL     1      -6.859   0.705 129.553  0.00  0.00    +0.000 C 
ATOM      2  C   UNL     1      -6.819   1.975 130.357  0.00  0.00    +0.000 C 
ATOM      3  O   UNL     1      -7.177   1.578 131.687  0.00  0.00    +0.000 OA
ATOM      4  C   UNL     1      -7.886   0.406 131.657  0.00  0.00    +0.000 C 
ATOM      5  O   UNL     1      -8.539  -0.009 132.590  0.00  0.00    +0.000 OA
ATOM      6  C   UNL     1      -7.921  -0.129 130.251  0.00  0.00    +0.000 C 
ATOM      7  C   UNL     1      -7.884  -1.579 129.803  0.00  0.00    +0.000 C 
ATOM      8  C   UNL     1      -7.722  -1.671 128.256  0.00  0.00    +0.000 A 
ATOM      9  C   UNL     1      -7.989  -2.928 127.641  0.00  0.00    +0.000 A 
ATOM     10  C   UNL     1      -7.946  -3.016 126.265  0.00  0.00    +0.000 A 
ATOM     11  C   UNL     1      -7.521  -1.963 125.497  0.00  0.00    +0.000 A 
ATOM     12  O   UNL     1      -7.636  -2.226 124.165  0.00  0.00    +0.000 OA
ATOM     13  C   UNL     1      -8.360  -3.475 124.193  0.00  0.00    +0.000 C 
ATOM     14  O   UNL     1      -8.482  -4.024 125.522  0.00  0.00    +0.000 OA
ATOM     15  C   UNL     1      -7.142  -0.754 126.055  0.00  0.00    +0.000 A 
ATOM     16  C   UNL     1      -7.272  -0.572 127.450  0.00  0.00    +0.000 A 
ATOM     17  C   UNL     1      -7.097   0.843 128.044  0.00  0.00    +0.000 C 
ENDROOT
BRANCH   7  18
ATOM     18  C   UNL     1      -6.802  -2.347 130.495  0.00  0.00    +0.000 A 
ATOM     19  C   UNL     1      -7.068  -3.148 131.594  0.00  0.00    +0.000 A 
ATOM     20  C   UNL     1      -6.026  -3.773 132.257  0.00  0.00    +0.000 A 
ATOM     21  C   UNL     1      -4.716  -3.652 131.743  0.00  0.00    +0.000 A 
ATOM     22  C   UNL     1      -4.441  -2.909 130.600  0.00  0.00    +0.000 A 
ATOM     23  C   UNL     1      -5.494  -2.251 130.025  0.00  0.00    +0.000 A 
BRANCH  20  24
ATOM     24  O   UNL     1      -6.194  -4.516 133.400  0.00  0.00    +0.000 OA
ATOM     25  C   UNL     1      -7.221  -4.071 134.295  0.00  0.00    +0.000 C 
ENDBRANCH  20  24
BRANCH  21  26
ATOM     26  O   UNL     1      -3.683  -4.276 132.383  0.00  0.00    +0.000 OA
ATOM     27  H   UNL     1      -3.356  -3.623 133.027  0.00  0.00    +0.000 HD
ENDBRANCH  21  26
BRANCH  22  28
ATOM     28  O   UNL     1      -3.175  -2.824 130.088  0.00  0.00    +0.000 OA
ATOM     29  C   UNL     1      -2.861  -3.710 129.002  0.00  0.00    +0.000 C 
ENDBRANCH  22  28
ENDBRANCH   7  18
BRANCH  17  30
ATOM     30  O   UNL     1      -8.154   1.809 127.693  0.00  0.00    +0.000 OA
BRANCH  30  31
ATOM     31  C   UNL     1      -7.705   2.843 126.817  0.00  0.00    +0.000 C 
ATOM     32  O   UNL     1      -7.402   2.211 125.602  0.00  0.00    +0.000 OA
ATOM     33  C   UNL     1      -7.307   3.012 124.458  0.00  0.00    +0.000 C 
ATOM     34  C   UNL     1      -7.030   2.143 123.251  0.00  0.00    +0.000 C 
ATOM     35  O   UNL     1      -6.780   2.900 122.103  0.00  0.00    +0.000 OA
ATOM     36  C   UNL     1      -5.664   3.717 122.339  0.00  0.00    +0.000 C 
ATOM     37  C   UNL     1      -5.478   4.442 121.038  0.00  0.00    +0.000 C 
ATOM     38  O   UNL     1      -5.910   4.632 123.416  0.00  0.00    +0.000 OA
ATOM     39  C   UNL     1      -6.117   3.905 124.629  0.00  0.00    +0.000 C 
ATOM     40  C   UNL     1      -6.383   4.758 125.880  0.00  0.00    +0.000 C 
ATOM     41  C   UNL     1      -6.588   3.843 127.154  0.00  0.00    +0.000 C 
BRANCH  40  42
ATOM     42  O   UNL     1      -5.297   5.655 126.085  0.00  0.00    +0.000 OA
ATOM     43  H   UNL     1      -4.545   5.313 125.573  0.00  0.00    +0.000 HD
ENDBRANCH  40  42
BRANCH  41  44
ATOM     44  O   UNL     1      -6.957   4.655 128.281  0.00  0.00    +0.000 OA
ATOM     45  H   UNL     1      -7.922   4.789 128.276  0.00  0.00    +0.000 HD
ENDBRANCH  41  44
ENDBRANCH  30  31
ENDBRANCH  17  30
TORSDOF 8
ENDMDL
MODEL 7
REMARK VINA RESULT:      -9.1      3.928      7.239
REMARK  Name = Etoposide
REMARK  11 active torsions:
REMARK  status: ('A' for Active; 'I' for Inactive)
REMARK    1  A    between atoms: C_9  and  C_10
REMARK    2  A    between atoms: C_12  and  O_13
REMARK    3  A    between atoms: O_13  and  C_14
REMARK    4  A    between atoms: C_15  and  O_16
REMARK    5  A    between atoms: C_17  and  O_18
REMARK    6  A    between atoms: O_18  and  C_19
REMARK    7  A    between atoms: C_30  and  O_31
REMARK    8  A    between atoms: O_31  and  C_32
REMARK    9  A    between atoms: C_38  and  C_39
REMARK   10  A    between atoms: C_43  and  O_44
REMARK   11  A    between atoms: C_45  and  O_46
REMARK                            x       y       z     vdW  Elec       q    Type
REMARK                         _______ _______ _______ _____ _____    ______ ____
ROOT
ATOM      1  C   UNL     1      -6.658   0.791 129.564  0.00  0.00    +0.000 C 
ATOM      2  C   UNL     1      -6.535   2.106 130.286  0.00  0.00    +0.000 C 
ATOM      3  O   UNL     1      -6.940   1.823 131.631  0.00  0.00    +0.000 OA
ATOM      4  C   UNL     1      -7.733   0.707 131.664  0.00  0.00    +0.000 C 
ATOM      5  O   UNL     1      -8.427   0.403 132.609  0.00  0.00    +0.000 OA
ATOM      6  C   UNL     1      -7.788   0.085 130.295  0.00  0.00    +0.000 C 
ATOM      7  C   UNL     1      -7.853  -1.390 129.941  0.00  0.00    +0.000 C 
ATOM      8  C   UNL     1      -7.677  -1.594 128.407  0.00  0.00    +0.000 A 
ATOM      9  C   UNL     1      -8.028  -2.866 127.869  0.00  0.00    +0.000 A 
ATOM     10  C   UNL     1      -7.973  -3.046 126.502  0.00  0.00    +0.000 A 
ATOM     11  C   UNL     1      -7.461  -2.079 125.676  0.00  0.00    +0.000 A 
ATOM     12  O   UNL     1      -7.577  -2.420 124.362  0.00  0.00    +0.000 OA
ATOM     13  C   UNL     1      -8.392  -3.608 124.457  0.00  0.00    +0.000 C 
ATOM     14  O   UNL     1      -8.573  -4.059 125.816  0.00  0.00    +0.000 OA
ATOM     15  C   UNL     1      -7.001  -0.868 126.163  0.00  0.00    +0.000 A 
ATOM     16  C   UNL     1      -7.136  -0.586 127.541  0.00  0.00    +0.000 A 
ATOM     17  C   UNL     1      -6.865   0.848 128.045  0.00  0.00    +0.000 C 
ENDROOT
BRANCH   7  18
ATOM     18  C   UNL     1      -6.841  -2.188 130.701  0.00  0.00    +0.000 A 
ATOM     19  C   UNL     1      -5.514  -2.247 130.304  0.00  0.00    +0.000 A 
ATOM     20  C   UNL     1      -4.629  -3.066 130.984  0.00  0.00    +0.000 A 
ATOM     21  C   UNL     1      -5.079  -3.758 132.130  0.00  0.00    +0.000 A 
ATOM     22  C   UNL     1      -6.389  -3.655 132.584  0.00  0.00    +0.000 A 
ATOM     23  C   UNL     1      -7.242  -2.892 131.834  0.00  0.00    +0.000 A 
BRANCH  20  24
ATOM     24  O   UNL     1      -3.321  -3.245 130.606  0.00  0.00    +0.000 OA
ATOM     25  C   UNL     1      -3.104  -3.592 129.232  0.00  0.00    +0.000 C 
ENDBRANCH  20  24
BRANCH  21  26
ATOM     26  O   UNL     1      -4.209  -4.559 132.816  0.00  0.00    +0.000 OA
ATOM     27  H   UNL     1      -3.457  -4.687 132.211  0.00  0.00    +0.000 HD
ENDBRANCH  21  26
BRANCH  22  28
ATOM     28  O   UNL     1      -6.809  -4.301 133.715  0.00  0.00    +0.000 OA
ATOM     29  C   UNL     1      -7.893  -3.695 134.436  0.00  0.00    +0.000 C 
ENDBRANCH  22  28
ENDBRANCH   7  18
BRANCH  17  30
ATOM     30  O   UNL     1      -7.842   1.864 127.614  0.00  0.00    +0.000 OA
BRANCH  30  31
ATOM     31  C   UNL     1      -7.354   2.710 126.573  0.00  0.00    +0.000 C 
ATOM     32  O   UNL     1      -7.917   2.221 125.386  0.00  0.00    +0.000 OA
ATOM     33  C   UNL     1      -7.924   3.068 124.272  0.00  0.00    +0.000 C 
ATOM     34  C   UNL     1      -8.619   2.383 123.116  0.00  0.00    +0.000 C 
ATOM     35  O   UNL     1      -8.528   3.122 121.933  0.00  0.00    +0.000 OA
ATOM     36  C   UNL     1      -7.174   3.291 121.612  0.00  0.00    +0.000 C 
ATOM     37  C   UNL     1      -7.210   4.057 120.322  0.00  0.00    +0.000 C 
ATOM     38  O   UNL     1      -6.486   4.025 122.636  0.00  0.00    +0.000 OA
ATOM     39  C   UNL     1      -6.502   3.281 123.856  0.00  0.00    +0.000 C 
ATOM     40  C   UNL     1      -5.790   3.942 125.047  0.00  0.00    +0.000 C 
ATOM     41  C   UNL     1      -5.869   3.022 126.333  0.00  0.00    +0.000 C 
BRANCH  40  42
ATOM     42  O   UNL     1      -4.432   4.199 124.707  0.00  0.00    +0.000 OA
ATOM     43  H   UNL     1      -4.291   5.156 124.803  0.00  0.00    +0.000 HD
ENDBRANCH  40  42
BRANCH  41  44
ATOM     44  O   UNL     1      -5.306   3.714 127.459  0.00  0.00    +0.000 OA
ATOM     45  H   UNL     1      -4.387   3.416 127.591  0.00  0.00    +0.000 HD
ENDBRANCH  41  44
ENDBRANCH  30  31
ENDBRANCH  17  30
TORSDOF 8
ENDMDL
MODEL 8
REMARK VINA RESULT:      -8.9      2.153      2.607
REMARK  Name = Etoposide
REMARK  11 active torsions:
REMARK  status: ('A' for Active; 'I' for Inactive)
REMARK    1  A    between atoms: C_9  and  C_10
REMARK    2  A    between atoms: C_12  and  O_13
REMARK    3  A    between atoms: O_13  and  C_14
REMARK    4  A    between atoms: C_15  and  O_16
REMARK    5  A    between atoms: C_17  and  O_18
REMARK    6  A    between atoms: O_18  and  C_19
REMARK    7  A    between atoms: C_30  and  O_31
REMARK    8  A    between atoms: O_31  and  C_32
REMARK    9  A    between atoms: C_38  and  C_39
REMARK   10  A    between atoms: C_43  and  O_44
REMARK   11  A    between atoms: C_45  and  O_46
REMARK                            x       y       z     vdW  Elec       q    Type
REMARK                         _______ _______ _______ _____ _____    ______ ____
ROOT
ATOM      1  C   UNL     1      -5.413   4.156 130.007  0.00  0.00    +0.000 C 
ATOM      2  C   UNL     1      -4.152   3.783 129.276  0.00  0.00    +0.000 C 
ATOM      3  O   UNL     1      -3.099   4.407 130.021  0.00  0.00    +0.000 OA
ATOM      4  C   UNL     1      -3.589   5.461 130.745  0.00  0.00    +0.000 C 
ATOM      5  O   UNL     1      -2.892   6.319 131.241  0.00  0.00    +0.000 OA
ATOM      6  C   UNL     1      -5.088   5.511 130.615  0.00  0.00    +0.000 C 
ATOM      7  C   UNL     1      -6.103   5.913 131.669  0.00  0.00    +0.000 C 
ATOM      8  C   UNL     1      -7.551   5.614 131.179  0.00  0.00    +0.000 A 
ATOM      9  C   UNL     1      -8.625   6.216 131.895  0.00  0.00    +0.000 A 
ATOM     10  C   UNL     1      -9.913   6.046 131.428  0.00  0.00    +0.000 A 
ATOM     11  C   UNL     1     -10.184   5.204 130.380  0.00  0.00    +0.000 A 
ATOM     12  O   UNL     1     -11.498   5.245 130.022  0.00  0.00    +0.000 OA
ATOM     13  C   UNL     1     -11.968   6.347 130.829  0.00  0.00    +0.000 C 
ATOM     14  O   UNL     1     -10.988   6.801 131.786  0.00  0.00    +0.000 OA
ATOM     15  C   UNL     1      -9.186   4.507 129.722  0.00  0.00    +0.000 A 
ATOM     16  C   UNL     1      -7.839   4.729 130.086  0.00  0.00    +0.000 A 
ATOM     17  C   UNL     1      -6.715   4.156 129.196  0.00  0.00    +0.000 C 
ENDROOT
BRANCH   7  18
ATOM     18  C   UNL     1      -5.839   5.243 132.980  0.00  0.00    +0.000 A 
ATOM     19  C   UNL     1      -6.058   3.886 133.161  0.00  0.00    +0.000 A 
ATOM     20  C   UNL     1      -5.883   3.322 134.413  0.00  0.00    +0.000 A 
ATOM     21  C   UNL     1      -5.397   4.128 135.465  0.00  0.00    +0.000 A 
ATOM     22  C   UNL     1      -5.104   5.477 135.285  0.00  0.00    +0.000 A 
ATOM     23  C   UNL     1      -5.364   6.002 134.048  0.00  0.00    +0.000 A 
BRANCH  20  24
ATOM     24  O   UNL     1      -6.157   2.006 134.694  0.00  0.00    +0.000 OA
ATOM     25  C   UNL     1      -5.265   1.041 134.122  0.00  0.00    +0.000 C 
ENDBRANCH  20  24
BRANCH  21  26
ATOM     26  O   UNL     1      -5.208   3.578 136.702  0.00  0.00    +0.000 OA
ATOM     27  H   UNL     1      -4.781   4.278 137.225  0.00  0.00    +0.000 HD
ENDBRANCH  21  26
BRANCH  22  28
ATOM     28  O   UNL     1      -4.601   6.243 136.300  0.00  0.00    +0.000 OA
ATOM     29  C   UNL     1      -3.407   6.988 136.010  0.00  0.00    +0.000 C 
ENDBRANCH  22  28
ENDBRANCH   7  18
BRANCH  17  30
ATOM     30  O   UNL     1      -6.587   4.776 127.865  0.00  0.00    +0.000 OA
BRANCH  30  31
ATOM     31  C   UNL     1      -7.218   4.024 126.829  0.00  0.00    +0.000 C 
ATOM     32  O   UNL     1      -6.491   2.828 126.726  0.00  0.00    +0.000 OA
ATOM     33  C   UNL     1      -7.100   1.751 126.071  0.00  0.00    +0.000 C 
ATOM     34  C   UNL     1      -6.184   0.548 126.113  0.00  0.00    +0.000 C 
ATOM     35  O   UNL     1      -6.675  -0.515 125.349  0.00  0.00    +0.000 OA
ATOM     36  C   UNL     1      -6.804  -0.089 124.019  0.00  0.00    +0.000 C 
ATOM     37  C   UNL     1      -7.297  -1.313 123.303  0.00  0.00    +0.000 C 
ATOM     38  O   UNL     1      -7.741   0.993 123.909  0.00  0.00    +0.000 OA
ATOM     39  C   UNL     1      -7.255   2.127 124.630  0.00  0.00    +0.000 C 
ATOM     40  C   UNL     1      -8.153   3.374 124.594  0.00  0.00    +0.000 C 
ATOM     41  C   UNL     1      -7.506   4.559 125.419  0.00  0.00    +0.000 C 
BRANCH  40  42
ATOM     42  O   UNL     1      -8.365   3.769 123.244  0.00  0.00    +0.000 OA
ATOM     43  H   UNL     1      -8.759   3.010 122.783  0.00  0.00    +0.000 HD
ENDBRANCH  40  42
BRANCH  41  44
ATOM     44  O   UNL     1      -8.419   5.668 125.473  0.00  0.00    +0.000 OA
ATOM     45  H   UNL     1      -8.747   5.856 124.574  0.00  0.00    +0.000 HD
ENDBRANCH  41  44
ENDBRANCH  30  31
ENDBRANCH  17  30
TORSDOF 8
ENDMDL
MODEL 9
REMARK VINA RESULT:      -8.9      3.665      7.222
REMARK  Name = Etoposide
REMARK  11 active torsions:
REMARK  status: ('A' for Active; 'I' for Inactive)
REMARK    1  A    between atoms: C_9  and  C_10
REMARK    2  A    between atoms: C_12  and  O_13
REMARK    3  A    between atoms: O_13  and  C_14
REMARK    4  A    between atoms: C_15  and  O_16
REMARK    5  A    between atoms: C_17  and  O_18
REMARK    6  A    between atoms: O_18  and  C_19
REMARK    7  A    between atoms: C_30  and  O_31
REMARK    8  A    between atoms: O_31  and  C_32
REMARK    9  A    between atoms: C_38  and  C_39
REMARK   10  A    between atoms: C_43  and  O_44
REMARK   11  A    between atoms: C_45  and  O_46
REMARK                            x       y       z     vdW  Elec       q    Type
REMARK                         _______ _______ _______ _____ _____    ______ ____
ROOT
ATOM      1  C   UNL     1      -7.750   1.671 131.136  0.00  0.00    +0.000 C 
ATOM      2  C   UNL     1      -9.051   1.030 131.537  0.00  0.00    +0.000 C 
ATOM      3  O   UNL     1      -8.826  -0.377 131.391  0.00  0.00    +0.000 OA
ATOM      4  C   UNL     1      -7.799  -0.605 130.513  0.00  0.00    +0.000 C 
ATOM      5  O   UNL     1      -7.577  -1.681 130.002  0.00  0.00    +0.000 OA
ATOM      6  C   UNL     1      -7.173   0.704 130.116  0.00  0.00    +0.000 C 
ATOM      7  C   UNL     1      -5.709   0.992 129.833  0.00  0.00    +0.000 C 
ATOM      8  C   UNL     1      -5.473   2.523 129.667  0.00  0.00    +0.000 A 
ATOM      9  C   UNL     1      -4.240   2.938 129.088  0.00  0.00    +0.000 A 
ATOM     10  C   UNL     1      -4.041   4.282 128.842  0.00  0.00    +0.000 A 
ATOM     11  C   UNL     1      -4.942   5.224 129.267  0.00  0.00    +0.000 A 
ATOM     12  O   UNL     1      -4.603   6.476 128.850  0.00  0.00    +0.000 OA
ATOM     13  C   UNL     1      -3.507   6.181 127.957  0.00  0.00    +0.000 C 
ATOM     14  O   UNL     1      -3.091   4.800 128.016  0.00  0.00    +0.000 OA
ATOM     15  C   UNL     1      -6.103   4.879 129.937  0.00  0.00    +0.000 A 
ATOM     16  C   UNL     1      -6.411   3.511 130.117  0.00  0.00    +0.000 A 
ATOM     17  C   UNL     1      -7.813   3.117 130.628  0.00  0.00    +0.000 C 
ENDROOT
BRANCH   7  18
ATOM     18  C   UNL     1      -4.817   0.430 130.894  0.00  0.00    +0.000 A 
ATOM     19  C   UNL     1      -4.228  -0.818 130.764  0.00  0.00    +0.000 A 
ATOM     20  C   UNL     1      -3.480  -1.337 131.807  0.00  0.00    +0.000 A 
ATOM     21  C   UNL     1      -3.257  -0.541 132.952  0.00  0.00    +0.000 A 
ATOM     22  C   UNL     1      -3.782   0.742 133.070  0.00  0.00    +0.000 A 
ATOM     23  C   UNL     1      -4.575   1.178 132.044  0.00  0.00    +0.000 A 
BRANCH  20  24
ATOM     24  O   UNL     1      -2.932  -2.596 131.791  0.00  0.00    +0.000 OA
ATOM     25  C   UNL     1      -3.860  -3.687 131.856  0.00  0.00    +0.000 C 
ENDBRANCH  20  24
BRANCH  21  26
ATOM     26  O   UNL     1      -2.508  -1.040 133.981  0.00  0.00    +0.000 OA
ATOM     27  H   UNL     1      -2.687  -0.445 134.731  0.00  0.00    +0.000 HD
ENDBRANCH  21  26
BRANCH  22  28
ATOM     28  O   UNL     1      -3.533   1.520 134.168  0.00  0.00    +0.000 OA
ATOM     29  C   UNL     1      -3.297   2.916 133.925  0.00  0.00    +0.000 C 
ENDBRANCH  22  28
ENDBRANCH   7  18
BRANCH  17  30
ATOM     30  O   UNL     1      -8.922   3.371 129.690  0.00  0.00    +0.000 OA
BRANCH  30  31
ATOM     31  C   UNL     1      -9.871   4.317 130.182  0.00  0.00    +0.000 C 
ATOM     32  O   UNL     1      -9.992   5.294 129.182  0.00  0.00    +0.000 OA
ATOM     33  C   UNL     1     -11.117   6.126 129.218  0.00  0.00    +0.000 C 
ATOM     34  C   UNL     1     -11.092   7.067 128.034  0.00  0.00    +0.000 C 
ATOM     35  O   UNL     1     -12.112   8.020 128.096  0.00  0.00    +0.000 OA
ATOM     36  C   UNL     1     -11.958   8.767 129.273  0.00  0.00    +0.000 C 
ATOM     37  C   UNL     1     -13.076   9.766 129.205  0.00  0.00    +0.000 C 
ATOM     38  O   UNL     1     -12.072   7.934 130.436  0.00  0.00    +0.000 OA
ATOM     39  C   UNL     1     -11.012   6.975 130.447  0.00  0.00    +0.000 C 
ATOM     40  C   UNL     1     -10.998   6.013 131.646  0.00  0.00    +0.000 C 
ATOM     41  C   UNL     1      -9.779   5.009 131.550  0.00  0.00    +0.000 C 
BRANCH  40  42
ATOM     42  O   UNL     1     -10.928   6.761 132.856  0.00  0.00    +0.000 OA
ATOM     43  H   UNL     1     -10.019   6.679 133.189  0.00  0.00    +0.000 HD
ENDBRANCH  40  42
BRANCH  41  44
ATOM     44  O   UNL     1      -9.859   4.045 132.613  0.00  0.00    +0.000 OA
ATOM     45  H   UNL     1     -10.536   4.331 133.253  0.00  0.00    +0.000 HD
ENDBRANCH  41  44
ENDBRANCH  30  31
ENDBRANCH  17  30
TORSDOF 8
ENDMDL
