MODEL 1
REMARK VINA RESULT:      -7.3      0.000      0.000
REMARK  Name = Etoricoxib
REMARK  5 active torsions:
REMARK  status: ('A' for Active; 'I' for Inactive)
REMARK    1  A    between atoms: C_1  and  C_2
REMARK    2  A    between atoms: C_5  and  C_8
REMARK    3  A    between atoms: C_9  and  C_15
REMARK    4  A    between atoms: C_18  and  S_21
REMARK    5  A    between atoms: S_21  and  C_22
REMARK                            x       y       z     vdW  Elec       q    Type
REMARK                         _______ _______ _______ _____ _____    ______ ____
ROOT
ATOM      1  C   UNL     1      -7.897   4.184 132.663  0.00  0.00    +0.000 A 
ATOM      2  C   UNL     1      -8.478   5.418 133.049  0.00  0.00    +0.000 A 
ATOM      3  C   UNL     1      -8.166   5.909 134.326  0.00  0.00    +0.000 A 
ATOM      4  C   UNL     1      -7.342   5.168 135.168  0.00  0.00    +0.000 A 
ATOM      5 CL   UNL     1      -6.935   5.755 136.729  0.00  0.00    +0.000 Cl
ATOM      6  C   UNL     1      -6.858   3.950 134.719  0.00  0.00    +0.000 A 
ATOM      7  N   UNL     1      -7.118   3.440 133.492  0.00  0.00    +0.000 NA
ENDROOT
BRANCH   1  12
ATOM      8  C   UNL     1      -8.282   1.767 127.472  0.00  0.00    +0.000 C 
ATOM      9  C   UNL     1      -8.215   2.394 128.831  0.00  0.00    +0.000 A 
ATOM     10  N   UNL     1      -7.071   3.034 129.168  0.00  0.00    +0.000 NA
ATOM     11  C   UNL     1      -7.025   3.639 130.383  0.00  0.00    +0.000 A 
ATOM     12  C   UNL     1      -8.064   3.630 131.309  0.00  0.00    +0.000 A 
ATOM     13  C   UNL     1      -9.231   2.954 130.923  0.00  0.00    +0.000 A 
ATOM     14  C   UNL     1      -9.308   2.320 129.686  0.00  0.00    +0.000 A 
ENDBRANCH   1  12
BRANCH   2  15
ATOM     15  C   UNL     1      -9.347   6.172 132.122  0.00  0.00    +0.000 A 
ATOM     16  C   UNL     1     -10.748   6.112 132.254  0.00  0.00    +0.000 A 
ATOM     17  C   UNL     1     -11.591   6.541 131.228  0.00  0.00    +0.000 A 
ATOM     18  C   UNL     1     -11.041   7.161 130.109  0.00  0.00    +0.000 A 
ATOM     19  C   UNL     1      -9.655   7.302 129.988  0.00  0.00    +0.000 A 
ATOM     20  C   UNL     1      -8.813   6.803 130.988  0.00  0.00    +0.000 A 
BRANCH  18  21
ATOM     21  S   UNL     1     -12.121   7.950 128.936  0.00  0.00    +0.000 S 
ATOM     22  C   UNL     1     -11.167   8.212 127.466  0.00  0.00    +0.000 C 
ATOM     23  O   UNL     1     -13.158   6.979 128.625  0.00  0.00    +0.000 OA
ATOM     24  O   UNL     1     -12.462   9.253 129.468  0.00  0.00    +0.000 OA
ENDBRANCH  18  21
ENDBRANCH   2  15
TORSDOF 3
ENDMDL
MODEL 2
REMARK VINA RESULT:      -7.3      4.741      5.484
REMARK  Name = Etoricoxib
REMARK  5 active torsions:
REMARK  status: ('A' for Active; 'I' for Inactive)
REMARK    1  A    between atoms: C_1  and  C_2
REMARK    2  A    between atoms: C_5  and  C_8
REMARK    3  A    between atoms: C_9  and  C_15
REMARK    4  A    between atoms: C_18  and  S_21
REMARK    5  A    between atoms: S_21  and  C_22
REMARK                            x       y       z     vdW  Elec       q    Type
REMARK                         _______ _______ _______ _____ _____    ______ ____
ROOT
ATOM      1  C   UNL     1      -2.380   6.273 131.310  0.00  0.00    +0.000 A 
ATOM      2  C   UNL     1      -3.376   6.805 132.168  0.00  0.00    +0.000 A 
ATOM      3  C   UNL     1      -2.949   7.629 133.220  0.00  0.00    +0.000 A 
ATOM      4  C   UNL     1      -1.591   7.865 133.407  0.00  0.00    +0.000 A 
ATOM      5 CL   UNL     1      -1.046   8.880 134.679  0.00  0.00    +0.000 Cl
ATOM      6  C   UNL     1      -0.689   7.263 132.544  0.00  0.00    +0.000 A 
ATOM      7  N   UNL     1      -1.050   6.472 131.505  0.00  0.00    +0.000 NA
ENDROOT
BRANCH   1  12
ATOM      8  C   UNL     1      -3.328   3.186 126.566  0.00  0.00    +0.000 C 
ATOM      9  C   UNL     1      -3.100   3.970 127.822  0.00  0.00    +0.000 A 
ATOM     10  N   UNL     1      -2.558   5.204 127.698  0.00  0.00    +0.000 NA
ATOM     11  C   UNL     1      -2.390   5.932 128.833  0.00  0.00    +0.000 A 
ATOM     12  C   UNL     1      -2.719   5.490 130.110  0.00  0.00    +0.000 A 
ATOM     13  C   UNL     1      -3.276   4.205 130.196  0.00  0.00    +0.000 A 
ATOM     14  C   UNL     1      -3.456   3.431 129.052  0.00  0.00    +0.000 A 
ENDBRANCH   1  12
BRANCH   2  15
ATOM     15  C   UNL     1      -4.809   6.531 131.932  0.00  0.00    +0.000 A 
ATOM     16  C   UNL     1      -5.495   7.187 130.892  0.00  0.00    +0.000 A 
ATOM     17  C   UNL     1      -6.889   7.198 130.839  0.00  0.00    +0.000 A 
ATOM     18  C   UNL     1      -7.612   6.438 131.756  0.00  0.00    +0.000 A 
ATOM     19  C   UNL     1      -6.950   5.715 132.753  0.00  0.00    +0.000 A 
ATOM     20  C   UNL     1      -5.554   5.769 132.844  0.00  0.00    +0.000 A 
BRANCH  18  21
ATOM     21  S   UNL     1      -9.364   6.232 131.522  0.00  0.00    +0.000 S 
ATOM     22  C   UNL     1      -9.616   4.543 131.051  0.00  0.00    +0.000 C 
ATOM     23  O   UNL     1      -9.971   6.424 132.830  0.00  0.00    +0.000 OA
ATOM     24  O   UNL     1      -9.752   7.057 130.397  0.00  0.00    +0.000 OA
ENDBRANCH  18  21
ENDBRANCH   2  15
TORSDOF 3
ENDMDL
MODEL 3
REMARK VINA RESULT:      -7.1      6.680      8.819
REMARK  Name = Etoricoxib
REMARK  5 active torsions:
REMARK  status: ('A' for Active; 'I' for Inactive)
REMARK    1  A    between atoms: C_1  and  C_2
REMARK    2  A    between atoms: C_5  and  C_8
REMARK    3  A    between atoms: C_9  and  C_15
REMARK    4  A    between atoms: C_18  and  S_21
REMARK    5  A    between atoms: S_21  and  C_22
REMARK                            x       y       z     vdW  Elec       q    Type
REMARK                         _______ _______ _______ _____ _____    ______ ____
ROOT
ATOM      1  C   UNL     1      -6.434  -1.915 132.002  0.00  0.00    +0.000 A 
ATOM      2  C   UNL     1      -6.358  -2.957 131.044  0.00  0.00    +0.000 A 
ATOM      3  C   UNL     1      -5.728  -4.149 131.433  0.00  0.00    +0.000 A 
ATOM      4  C   UNL     1      -5.178  -4.256 132.707  0.00  0.00    +0.000 A 
ATOM      5 CL   UNL     1      -4.413  -5.708 133.209  0.00  0.00    +0.000 Cl
ATOM      6  C   UNL     1      -5.261  -3.167 133.558  0.00  0.00    +0.000 A 
ATOM      7  N   UNL     1      -5.872  -2.001 133.237  0.00  0.00    +0.000 NA
ENDROOT
BRANCH   1  12
ATOM      8  C   UNL     1      -9.258   2.887 130.623  0.00  0.00    +0.000 C 
ATOM      9  C   UNL     1      -8.547   1.623 131.002  0.00  0.00    +0.000 A 
ATOM     10  N   UNL     1      -7.226   1.541 130.719  0.00  0.00    +0.000 NA
ATOM     11  C   UNL     1      -6.572   0.413 131.100  0.00  0.00    +0.000 A 
ATOM     12  C   UNL     1      -7.170  -0.666 131.744  0.00  0.00    +0.000 A 
ATOM     13  C   UNL     1      -8.540  -0.542 132.018  0.00  0.00    +0.000 A 
ATOM     14  C   UNL     1      -9.240   0.599 131.635  0.00  0.00    +0.000 A 
ENDBRANCH   1  12
BRANCH   2  15
ATOM     15  C   UNL     1      -6.958  -2.802 129.702  0.00  0.00    +0.000 A 
ATOM     16  C   UNL     1      -8.220  -3.359 129.420  0.00  0.00    +0.000 A 
ATOM     17  C   UNL     1      -8.669  -3.508 128.108  0.00  0.00    +0.000 A 
ATOM     18  C   UNL     1      -7.912  -2.977 127.065  0.00  0.00    +0.000 A 
ATOM     19  C   UNL     1      -6.690  -2.350 127.326  0.00  0.00    +0.000 A 
ATOM     20  C   UNL     1      -6.213  -2.270 128.639  0.00  0.00    +0.000 A 
BRANCH  18  21
ATOM     21  S   UNL     1      -8.609  -2.923 125.429  0.00  0.00    +0.000 S 
ATOM     22  C   UNL     1      -7.772  -1.621 124.566  0.00  0.00    +0.000 C 
ATOM     23  O   UNL     1      -8.248  -4.180 124.794  0.00  0.00    +0.000 OA
ATOM     24  O   UNL     1      -9.997  -2.531 125.560  0.00  0.00    +0.000 OA
ENDBRANCH  18  21
ENDBRANCH   2  15
TORSDOF 3
ENDMDL
MODEL 4
REMARK VINA RESULT:      -7.0      4.498      5.936
REMARK  Name = Etoricoxib
REMARK  5 active torsions:
REMARK  status: ('A' for Active; 'I' for Inactive)
REMARK    1  A    between atoms: C_1  and  C_2
REMARK    2  A    between atoms: C_5  and  C_8
REMARK    3  A    between atoms: C_9  and  C_15
REMARK    4  A    between atoms: C_18  and  S_21
REMARK    5  A    between atoms: S_21  and  C_22
REMARK                            x       y       z     vdW  Elec       q    Type
REMARK                         _______ _______ _______ _____ _____    ______ ____
ROOT
ATOM      1  C   UNL     1     -10.338   4.194 130.876  0.00  0.00    +0.000 A 
ATOM      2  C   UNL     1      -9.918   5.222 131.757  0.00  0.00    +0.000 A 
ATOM      3  C   UNL     1     -10.686   6.396 131.793  0.00  0.00    +0.000 A 
ATOM      4  C   UNL     1     -11.790   6.526 130.956  0.00  0.00    +0.000 A 
ATOM      5 CL   UNL     1     -12.752   7.947 130.992  0.00  0.00    +0.000 Cl
ATOM      6  C   UNL     1     -12.096   5.484 130.095  0.00  0.00    +0.000 A 
ATOM      7  N   UNL     1     -11.396   4.326 130.033  0.00  0.00    +0.000 NA
ENDROOT
BRANCH   1  12
ATOM      8  C   UNL     1      -7.440  -0.759 130.826  0.00  0.00    +0.000 C 
ATOM      9  C   UNL     1      -8.219   0.520 130.860  0.00  0.00    +0.000 A 
ATOM     10  N   UNL     1      -7.912   1.463 129.938  0.00  0.00    +0.000 NA
ATOM     11  C   UNL     1      -8.647   2.606 129.942  0.00  0.00    +0.000 A 
ATOM     12  C   UNL     1      -9.677   2.879 130.836  0.00  0.00    +0.000 A 
ATOM     13  C   UNL     1      -9.962   1.877 131.777  0.00  0.00    +0.000 A 
ATOM     14  C   UNL     1      -9.225   0.697 131.802  0.00  0.00    +0.000 A 
ENDBRANCH   1  12
BRANCH   2  15
ATOM     15  C   UNL     1      -8.740   5.042 132.629  0.00  0.00    +0.000 A 
ATOM     16  C   UNL     1      -8.886   4.482 133.914  0.00  0.00    +0.000 A 
ATOM     17  C   UNL     1      -7.875   4.588 134.869  0.00  0.00    +0.000 A 
ATOM     18  C   UNL     1      -6.649   5.140 134.505  0.00  0.00    +0.000 A 
ATOM     19  C   UNL     1      -6.452   5.634 133.212  0.00  0.00    +0.000 A 
ATOM     20  C   UNL     1      -7.497   5.591 132.282  0.00  0.00    +0.000 A 
BRANCH  18  21
ATOM     21  S   UNL     1      -5.278   5.025 135.633  0.00  0.00    +0.000 S 
ATOM     22  C   UNL     1      -3.870   4.548 134.670  0.00  0.00    +0.000 C 
ATOM     23  O   UNL     1      -5.044   6.374 136.123  0.00  0.00    +0.000 OA
ATOM     24  O   UNL     1      -5.560   3.942 136.552  0.00  0.00    +0.000 OA
ENDBRANCH  18  21
ENDBRANCH   2  15
TORSDOF 3
ENDMDL
MODEL 5
REMARK VINA RESULT:      -6.9      6.717      7.949
REMARK  Name = Etoricoxib
REMARK  5 active torsions:
REMARK  status: ('A' for Active; 'I' for Inactive)
REMARK    1  A    between atoms: C_1  and  C_2
REMARK    2  A    between atoms: C_5  and  C_8
REMARK    3  A    between atoms: C_9  and  C_15
REMARK    4  A    between atoms: C_18  and  S_21
REMARK    5  A    between atoms: S_21  and  C_22
REMARK                            x       y       z     vdW  Elec       q    Type
REMARK                         _______ _______ _______ _____ _____    ______ ____
ROOT
ATOM      1  C   UNL     1      -6.464  -2.205 128.116  0.00  0.00    +0.000 A 
ATOM      2  C   UNL     1      -6.082  -0.868 128.394  0.00  0.00    +0.000 A 
ATOM      3  C   UNL     1      -5.274  -0.648 129.519  0.00  0.00    +0.000 A 
ATOM      4  C   UNL     1      -4.909  -1.719 130.329  0.00  0.00    +0.000 A 
ATOM      5 CL   UNL     1      -3.910  -1.475 131.703  0.00  0.00    +0.000 Cl
ATOM      6  C   UNL     1      -5.369  -2.984 130.002  0.00  0.00    +0.000 A 
ATOM      7  N   UNL     1      -6.139  -3.252 128.920  0.00  0.00    +0.000 NA
ENDROOT
BRANCH   1  12
ATOM      8  C   UNL     1      -9.579  -3.292 123.420  0.00  0.00    +0.000 C 
ATOM      9  C   UNL     1      -8.737  -3.013 124.628  0.00  0.00    +0.000 A 
ATOM     10  N   UNL     1      -9.361  -2.981 125.830  0.00  0.00    +0.000 NA
ATOM     11  C   UNL     1      -8.591  -2.770 126.929  0.00  0.00    +0.000 A 
ATOM     12  C   UNL     1      -7.216  -2.568 126.903  0.00  0.00    +0.000 A 
ATOM     13  C   UNL     1      -6.608  -2.608 125.638  0.00  0.00    +0.000 A 
ATOM     14  C   UNL     1      -7.369  -2.816 124.492  0.00  0.00    +0.000 A 
ENDBRANCH   1  12
BRANCH   2  15
ATOM     15  C   UNL     1      -6.490   0.240 127.506  0.00  0.00    +0.000 A 
ATOM     16  C   UNL     1      -7.815   0.718 127.530  0.00  0.00    +0.000 A 
ATOM     17  C   UNL     1      -8.313   1.525 126.506  0.00  0.00    +0.000 A 
ATOM     18  C   UNL     1      -7.447   1.974 125.512  0.00  0.00    +0.000 A 
ATOM     19  C   UNL     1      -6.106   1.576 125.508  0.00  0.00    +0.000 A 
ATOM     20  C   UNL     1      -5.634   0.706 126.498  0.00  0.00    +0.000 A 
BRANCH  18  21
ATOM     21  S   UNL     1      -8.009   3.217 124.369  0.00  0.00    +0.000 S 
ATOM     22  C   UNL     1      -9.075   2.397 123.215  0.00  0.00    +0.000 C 
ATOM     23  O   UNL     1      -8.821   4.141 125.145  0.00  0.00    +0.000 OA
ATOM     24  O   UNL     1      -6.853   3.685 123.633  0.00  0.00    +0.000 OA
ENDBRANCH  18  21
ENDBRANCH   2  15
TORSDOF 3
ENDMDL
MODEL 6
REMARK VINA RESULT:      -6.9      5.417      7.241
REMARK  Name = Etoricoxib
REMARK  5 active torsions:
REMARK  status: ('A' for Active; 'I' for Inactive)
REMARK    1  A    between atoms: C_1  and  C_2
REMARK    2  A    between atoms: C_5  and  C_8
REMARK    3  A    between atoms: C_9  and  C_15
REMARK    4  A    between atoms: C_18  and  S_21
REMARK    5  A    between atoms: S_21  and  C_22
REMARK                            x       y       z     vdW  Elec       q    Type
REMARK                         _______ _______ _______ _____ _____    ______ ____
ROOT
ATOM      1  C   UNL     1      -6.708  -3.142 130.145  0.00  0.00    +0.000 A 
ATOM      2  C   UNL     1      -6.705  -2.060 131.061  0.00  0.00    +0.000 A 
ATOM      3  C   UNL     1      -5.928  -2.199 132.221  0.00  0.00    +0.000 A 
ATOM      4  C   UNL     1      -5.228  -3.381 132.448  0.00  0.00    +0.000 A 
ATOM      5 CL   UNL     1      -4.261  -3.568 133.854  0.00  0.00    +0.000 Cl
ATOM      6  C   UNL     1      -5.330  -4.400 131.516  0.00  0.00    +0.000 A 
ATOM      7  N   UNL     1      -6.054  -4.311 130.374  0.00  0.00    +0.000 NA
ENDROOT
BRANCH   1  12
ATOM      8  C   UNL     1      -9.123  -3.071 124.939  0.00  0.00    +0.000 C 
ATOM      9  C   UNL     1      -8.523  -3.099 126.312  0.00  0.00    +0.000 A 
ATOM     10  N   UNL     1      -7.300  -2.540 126.469  0.00  0.00    +0.000 NA
ATOM     11  C   UNL     1      -6.773  -2.527 127.722  0.00  0.00    +0.000 A 
ATOM     12  C   UNL     1      -7.395  -3.063 128.844  0.00  0.00    +0.000 A 
ATOM     13  C   UNL     1      -8.660  -3.635 128.638  0.00  0.00    +0.000 A 
ATOM     14  C   UNL     1      -9.225  -3.668 127.366  0.00  0.00    +0.000 A 
ENDBRANCH   1  12
BRANCH   2  15
ATOM     15  C   UNL     1      -7.460  -0.822 130.780  0.00  0.00    +0.000 A 
ATOM     16  C   UNL     1      -6.921   0.160 129.927  0.00  0.00    +0.000 A 
ATOM     17  C   UNL     1      -7.444   1.453 129.890  0.00  0.00    +0.000 A 
ATOM     18  C   UNL     1      -8.602   1.740 130.610  0.00  0.00    +0.000 A 
ATOM     19  C   UNL     1      -9.202   0.759 131.406  0.00  0.00    +0.000 A 
ATOM     20  C   UNL     1      -8.627  -0.514 131.495  0.00  0.00    +0.000 A 
BRANCH  18  21
ATOM     21  S   UNL     1      -9.422   3.298 130.349  0.00  0.00    +0.000 S 
ATOM     22  C   UNL     1      -8.724   4.437 131.513  0.00  0.00    +0.000 C 
ATOM     23  O   UNL     1      -9.041   3.736 129.016  0.00  0.00    +0.000 OA
ATOM     24  O   UNL     1     -10.815   3.120 130.701  0.00  0.00    +0.000 OA
ENDBRANCH  18  21
ENDBRANCH   2  15
TORSDOF 3
ENDMDL
MODEL 7
REMARK VINA RESULT:      -6.8      3.329      5.206
REMARK  Name = Etoricoxib
REMARK  5 active torsions:
REMARK  status: ('A' for Active; 'I' for Inactive)
REMARK    1  A    between atoms: C_1  and  C_2
REMARK    2  A    between atoms: C_5  and  C_8
REMARK    3  A    between atoms: C_9  and  C_15
REMARK    4  A    between atoms: C_18  and  S_21
REMARK    5  A    between atoms: S_21  and  C_22
REMARK                            x       y       z     vdW  Elec       q    Type
REMARK                         _______ _______ _______ _____ _____    ______ ____
ROOT
ATOM      1  C   UNL     1      -8.952   5.514 131.745  0.00  0.00    +0.000 A 
ATOM      2  C   UNL     1      -8.030   4.452 131.563  0.00  0.00    +0.000 A 
ATOM      3  C   UNL     1      -7.296   4.035 132.684  0.00  0.00    +0.000 A 
ATOM      4  C   UNL     1      -7.466   4.685 133.903  0.00  0.00    +0.000 A 
ATOM      5 CL   UNL     1      -6.588   4.183 135.290  0.00  0.00    +0.000 Cl
ATOM      6  C   UNL     1      -8.357   5.743 133.971  0.00  0.00    +0.000 A 
ATOM      7  N   UNL     1      -9.100   6.175 132.924  0.00  0.00    +0.000 NA
ENDROOT
BRANCH   1  12
ATOM      8  C   UNL     1     -12.733   7.316 127.822  0.00  0.00    +0.000 C 
ATOM      9  C   UNL     1     -11.723   6.869 128.834  0.00  0.00    +0.000 A 
ATOM     10  N   UNL     1     -11.978   5.720 129.504  0.00  0.00    +0.000 NA
ATOM     11  C   UNL     1     -11.043   5.292 130.392  0.00  0.00    +0.000 A 
ATOM     12  C   UNL     1      -9.855   5.959 130.670  0.00  0.00    +0.000 A 
ATOM     13  C   UNL     1      -9.629   7.146 129.956  0.00  0.00    +0.000 A 
ATOM     14  C   UNL     1     -10.570   7.615 129.043  0.00  0.00    +0.000 A 
ENDBRANCH   1  12
BRANCH   2  15
ATOM     15  C   UNL     1      -7.883   3.789 130.252  0.00  0.00    +0.000 A 
ATOM     16  C   UNL     1      -7.164   4.417 129.216  0.00  0.00    +0.000 A 
ATOM     17  C   UNL     1      -7.270   3.982 127.894  0.00  0.00    +0.000 A 
ATOM     18  C   UNL     1      -7.996   2.826 127.613  0.00  0.00    +0.000 A 
ATOM     19  C   UNL     1      -8.657   2.140 128.637  0.00  0.00    +0.000 A 
ATOM     20  C   UNL     1      -8.605   2.625 129.949  0.00  0.00    +0.000 A 
BRANCH  18  21
ATOM     21  S   UNL     1      -7.905   2.120 125.983  0.00  0.00    +0.000 S 
ATOM     22  C   UNL     1      -6.504   2.859 125.189  0.00  0.00    +0.000 C 
ATOM     23  O   UNL     1      -7.616   0.707 126.170  0.00  0.00    +0.000 OA
ATOM     24  O   UNL     1      -9.085   2.545 125.260  0.00  0.00    +0.000 OA
ENDBRANCH  18  21
ENDBRANCH   2  15
TORSDOF 3
ENDMDL
MODEL 8
REMARK VINA RESULT:      -6.7      7.466     10.377
REMARK  Name = Etoricoxib
REMARK  5 active torsions:
REMARK  status: ('A' for Active; 'I' for Inactive)
REMARK    1  A    between atoms: C_1  and  C_2
REMARK    2  A    between atoms: C_5  and  C_8
REMARK    3  A    between atoms: C_9  and  C_15
REMARK    4  A    between atoms: C_18  and  S_21
REMARK    5  A    between atoms: S_21  and  C_22
REMARK                            x       y       z     vdW  Elec       q    Type
REMARK                         _______ _______ _______ _____ _____    ______ ____
ROOT
ATOM      1  C   UNL     1      -8.033  -0.335 126.380  0.00  0.00    +0.000 A 
ATOM      2  C   UNL     1      -7.796  -1.704 126.663  0.00  0.00    +0.000 A 
ATOM      3  C   UNL     1      -8.227  -2.644 125.714  0.00  0.00    +0.000 A 
ATOM      4  C   UNL     1      -8.890  -2.215 124.568  0.00  0.00    +0.000 A 
ATOM      5 CL   UNL     1      -9.415  -3.345 123.388  0.00  0.00    +0.000 Cl
ATOM      6  C   UNL     1      -9.116  -0.859 124.402  0.00  0.00    +0.000 A 
ATOM      7  N   UNL     1      -8.708   0.089 125.280  0.00  0.00    +0.000 NA
ENDROOT
BRANCH   1  12
ATOM      8  C   UNL     1      -6.096   4.100 129.466  0.00  0.00    +0.000 C 
ATOM      9  C   UNL     1      -6.626   2.936 128.684  0.00  0.00    +0.000 A 
ATOM     10  N   UNL     1      -5.875   2.483 127.652  0.00  0.00    +0.000 NA
ATOM     11  C   UNL     1      -6.334   1.402 126.970  0.00  0.00    +0.000 A 
ATOM     12  C   UNL     1      -7.526   0.742 127.247  0.00  0.00    +0.000 A 
ATOM     13  C   UNL     1      -8.276   1.243 128.323  0.00  0.00    +0.000 A 
ATOM     14  C   UNL     1      -7.836   2.353 129.038  0.00  0.00    +0.000 A 
ENDBRANCH   1  12
BRANCH   2  15
ATOM     15  C   UNL     1      -7.087  -2.115 127.892  0.00  0.00    +0.000 A 
ATOM     16  C   UNL     1      -5.680  -2.198 127.906  0.00  0.00    +0.000 A 
ATOM     17  C   UNL     1      -5.005  -2.874 128.922  0.00  0.00    +0.000 A 
ATOM     18  C   UNL     1      -5.725  -3.362 130.011  0.00  0.00    +0.000 A 
ATOM     19  C   UNL     1      -7.116  -3.225 130.058  0.00  0.00    +0.000 A 
ATOM     20  C   UNL     1      -7.792  -2.609 128.998  0.00  0.00    +0.000 A 
BRANCH  18  21
ATOM     21  S   UNL     1      -4.842  -3.976 131.428  0.00  0.00    +0.000 S 
ATOM     22  C   UNL     1      -5.325  -2.965 132.801  0.00  0.00    +0.000 C 
ATOM     23  O   UNL     1      -5.346  -5.319 131.667  0.00  0.00    +0.000 OA
ATOM     24  O   UNL     1      -3.432  -3.744 131.196  0.00  0.00    +0.000 OA
ENDBRANCH  18  21
ENDBRANCH   2  15
TORSDOF 3
ENDMDL
MODEL 9
REMARK VINA RESULT:      -6.7      4.704      6.022
REMARK  Name = Etoricoxib
REMARK  5 active torsions:
REMARK  status: ('A' for Active; 'I' for Inactive)
REMARK    1  A    between atoms: C_1  and  C_2
REMARK    2  A    between atoms: C_5  and  C_8
REMARK    3  A    between atoms: C_9  and  C_15
REMARK    4  A    between atoms: C_18  and  S_21
REMARK    5  A    between atoms: S_21  and  C_22
REMARK                            x       y       z     vdW  Elec       q    Type
REMARK                         _______ _______ _______ _____ _____    ______ ____
ROOT
ATOM      1  C   UNL     1      -9.777   4.559 130.539  0.00  0.00    +0.000 A 
ATOM      2  C   UNL     1      -8.979   5.711 130.324  0.00  0.00    +0.000 A 
ATOM      3  C   UNL     1      -9.639   6.897 129.969  0.00  0.00    +0.000 A 
ATOM      4  C   UNL     1     -11.021   6.898 129.809  0.00  0.00    +0.000 A 
ATOM      5 CL   UNL     1     -11.851   8.341 129.388  0.00  0.00    +0.000 Cl
ATOM      6  C   UNL     1     -11.711   5.712 129.996  0.00  0.00    +0.000 A 
ATOM      7  N   UNL     1     -11.124   4.544 130.353  0.00  0.00    +0.000 NA
ENDROOT
BRANCH   1  12
ATOM      8  C   UNL     1      -7.885  -0.454 132.596  0.00  0.00    +0.000 C 
ATOM      9  C   UNL     1      -8.370   0.845 132.027  0.00  0.00    +0.000 A 
ATOM     10  N   UNL     1      -8.637   1.847 132.898  0.00  0.00    +0.000 NA
ATOM     11  C   UNL     1      -9.037   3.037 132.381  0.00  0.00    +0.000 A 
ATOM     12  C   UNL     1      -9.207   3.290 131.023  0.00  0.00    +0.000 A 
ATOM     13  C   UNL     1      -8.921   2.226 130.154  0.00  0.00    +0.000 A 
ATOM     14  C   UNL     1      -8.514   0.992 130.654  0.00  0.00    +0.000 A 
ENDBRANCH   1  12
BRANCH   2  15
ATOM     15  C   UNL     1      -7.514   5.666 130.507  0.00  0.00    +0.000 A 
ATOM     16  C   UNL     1      -6.894   6.482 131.473  0.00  0.00    +0.000 A 
ATOM     17  C   UNL     1      -5.516   6.702 131.459  0.00  0.00    +0.000 A 
ATOM     18  C   UNL     1      -4.723   5.997 130.556  0.00  0.00    +0.000 A 
ATOM     19  C   UNL     1      -5.308   5.121 129.635  0.00  0.00    +0.000 A 
ATOM     20  C   UNL     1      -6.698   4.963 129.609  0.00  0.00    +0.000 A 
BRANCH  18  21
ATOM     21  S   UNL     1      -2.953   6.066 130.718  0.00  0.00    +0.000 S 
ATOM     22  C   UNL     1      -2.303   6.280 129.083  0.00  0.00    +0.000 C 
ATOM     23  O   UNL     1      -2.663   7.275 131.472  0.00  0.00    +0.000 OA
ATOM     24  O   UNL     1      -2.509   4.772 131.193  0.00  0.00    +0.000 OA
ENDBRANCH  18  21
ENDBRANCH   2  15
TORSDOF 3
ENDMDL
