MODEL 1
REMARK VINA RESULT:      -8.0      0.000      0.000
REMARK  Name = Etravirine
REMARK  7 active torsions:
REMARK  status: ('A' for Active; 'I' for Inactive)
REMARK    1  A    between atoms: C_1  and  C_2
REMARK    2  A    between atoms: C_4  and  C_27
REMARK    3  A    between atoms: C_6  and  C_7
REMARK    4  A    between atoms: C_8  and  O_9
REMARK    5  A    between atoms: O_9  and  C_10
REMARK    6  A    between atoms: N_17  and  C_18
REMARK    7  A    between atoms: C_21  and  C_24
REMARK                            x       y       z     vdW  Elec       q    Type
REMARK                         _______ _______ _______ _____ _____    ______ ____
ROOT
ATOM      1  C   UNL     1      -8.905   4.764 132.374  0.00  0.00    +0.000 A 
ATOM      2  C   UNL     1      -8.768   3.395 132.417  0.00  0.00    +0.000 A 
ATOM      3 BR   UNL     1      -7.524   2.542 133.563  0.00  0.00    +0.000 Br
ATOM      4  C   UNL     1      -9.589   2.673 131.553  0.00  0.00    +0.000 A 
ATOM      5  N   UNL     1      -9.535   1.284 131.537  0.00  0.00    +0.000 N 
ATOM      6  N   UNL     1     -10.517   3.265 130.760  0.00  0.00    +0.000 NA
ATOM      7  C   UNL     1     -10.556   4.614 130.738  0.00  0.00    +0.000 A 
ATOM      8  N   UNL     1     -11.623   5.245 130.062  0.00  0.00    +0.000 N 
ATOM      9  N   UNL     1      -9.700   5.373 131.463  0.00  0.00    +0.000 NA
ATOM     10  H   UNL     1      -8.775   0.818 132.018  0.00  0.00    +0.000 HD
ATOM     11  H   UNL     1     -10.074   0.775 130.851  0.00  0.00    +0.000 HD
ATOM     12  H   UNL     1     -12.263   4.605 129.615  0.00  0.00    +0.000 HD
ENDROOT
BRANCH   8  13
ATOM     13  C   UNL     1     -11.938   6.618 130.025  0.00  0.00    +0.000 A 
ATOM     14  C   UNL     1     -11.634   7.427 128.916  0.00  0.00    +0.000 A 
ATOM     15  C   UNL     1     -12.076   8.763 128.851  0.00  0.00    +0.000 A 
ATOM     16  C   UNL     1     -12.809   9.320 129.903  0.00  0.00    +0.000 A 
ATOM     17  C   UNL     1     -13.089   8.535 131.021  0.00  0.00    +0.000 A 
ATOM     18  C   UNL     1     -12.662   7.201 131.071  0.00  0.00    +0.000 A 
BRANCH  16  19
ATOM     19  C   UNL     1     -13.268  10.676 129.830  0.00  0.00    +0.000 C 
ATOM     20  N   UNL     1     -13.650  11.777 129.779  0.00  0.00    +0.000 NA
ENDBRANCH  16  19
ENDBRANCH   8  13
BRANCH   1  21
ATOM     21  O   UNL     1      -8.208   5.566 133.288  0.00  0.00    +0.000 OA
BRANCH  21  29
ATOM     22  C   UNL     1      -7.027   6.667 130.629  0.00  0.00    +0.000 C 
ATOM     23  C   UNL     1      -6.288   6.406 131.900  0.00  0.00    +0.000 A 
ATOM     24  C   UNL     1      -4.904   6.666 131.818  0.00  0.00    +0.000 A 
ATOM     25  C   UNL     1      -4.068   6.497 132.909  0.00  0.00    +0.000 A 
ATOM     26  C   UNL     1      -4.612   6.043 134.102  0.00  0.00    +0.000 A 
ATOM     27  C   UNL     1      -5.994   5.747 134.215  0.00  0.00    +0.000 A 
ATOM     28  C   UNL     1      -6.454   5.290 135.579  0.00  0.00    +0.000 C 
ATOM     29  C   UNL     1      -6.863   5.909 133.092  0.00  0.00    +0.000 A 
BRANCH  25  30
ATOM     30  C   UNL     1      -2.674   6.819 132.803  0.00  0.00    +0.000 C 
ATOM     31  N   UNL     1      -1.553   7.091 132.700  0.00  0.00    +0.000 NA
ENDBRANCH  25  30
ENDBRANCH  21  29
ENDBRANCH   1  21
TORSDOF 5
ENDMDL
MODEL 2
REMARK VINA RESULT:      -7.8      5.614      8.729
REMARK  Name = Etravirine
REMARK  7 active torsions:
REMARK  status: ('A' for Active; 'I' for Inactive)
REMARK    1  A    between atoms: C_1  and  C_2
REMARK    2  A    between atoms: C_4  and  C_27
REMARK    3  A    between atoms: C_6  and  C_7
REMARK    4  A    between atoms: C_8  and  O_9
REMARK    5  A    between atoms: O_9  and  C_10
REMARK    6  A    between atoms: N_17  and  C_18
REMARK    7  A    between atoms: C_21  and  C_24
REMARK                            x       y       z     vdW  Elec       q    Type
REMARK                         _______ _______ _______ _____ _____    ______ ____
ROOT
ATOM      1  C   UNL     1      -6.830  -2.411 130.399  0.00  0.00    +0.000 A 
ATOM      2  C   UNL     1      -6.521  -3.383 131.323  0.00  0.00    +0.000 A 
ATOM      3 BR   UNL     1      -5.604  -4.972 130.849  0.00  0.00    +0.000 Br
ATOM      4  C   UNL     1      -6.937  -3.135 132.631  0.00  0.00    +0.000 A 
ATOM      5  N   UNL     1      -6.655  -4.051 133.638  0.00  0.00    +0.000 N 
ATOM      6  N   UNL     1      -7.552  -1.982 132.996  0.00  0.00    +0.000 NA
ATOM      7  C   UNL     1      -7.864  -1.102 132.023  0.00  0.00    +0.000 A 
ATOM      8  N   UNL     1      -8.340   0.174 132.398  0.00  0.00    +0.000 N 
ATOM      9  N   UNL     1      -7.596  -1.342 130.718  0.00  0.00    +0.000 NA
ATOM     10  H   UNL     1      -6.312  -4.970 133.383  0.00  0.00    +0.000 HD
ATOM     11  H   UNL     1      -7.031  -3.900 134.563  0.00  0.00    +0.000 HD
ATOM     12  H   UNL     1      -8.437   0.301 133.396  0.00  0.00    +0.000 HD
ENDROOT
BRANCH   8  13
ATOM     13  C   UNL     1      -8.596   1.285 131.570  0.00  0.00    +0.000 A 
ATOM     14  C   UNL     1      -9.841   1.936 131.553  0.00  0.00    +0.000 A 
ATOM     15  C   UNL     1     -10.029   3.122 130.815  0.00  0.00    +0.000 A 
ATOM     16  C   UNL     1      -8.982   3.663 130.063  0.00  0.00    +0.000 A 
ATOM     17  C   UNL     1      -7.751   3.007 130.050  0.00  0.00    +0.000 A 
ATOM     18  C   UNL     1      -7.566   1.839 130.801  0.00  0.00    +0.000 A 
BRANCH  16  19
ATOM     19  C   UNL     1      -9.171   4.876 129.322  0.00  0.00    +0.000 C 
ATOM     20  N   UNL     1      -9.321   5.856 128.710  0.00  0.00    +0.000 NA
ENDBRANCH  16  19
ENDBRANCH   8  13
BRANCH   1  21
ATOM     21  O   UNL     1      -6.350  -2.517 129.086  0.00  0.00    +0.000 OA
BRANCH  21  29
ATOM     22  C   UNL     1      -8.836  -3.976 127.918  0.00  0.00    +0.000 C 
ATOM     23  C   UNL     1      -8.229  -2.704 127.427  0.00  0.00    +0.000 A 
ATOM     24  C   UNL     1      -8.866  -2.170 126.287  0.00  0.00    +0.000 A 
ATOM     25  C   UNL     1      -8.447  -0.984 125.708  0.00  0.00    +0.000 A 
ATOM     26  C   UNL     1      -7.360  -0.321 126.262  0.00  0.00    +0.000 A 
ATOM     27  C   UNL     1      -6.679  -0.839 127.392  0.00  0.00    +0.000 A 
ATOM     28  C   UNL     1      -5.535   0.001 127.905  0.00  0.00    +0.000 C 
ATOM     29  C   UNL     1      -7.099  -2.068 127.989  0.00  0.00    +0.000 A 
BRANCH  25  30
ATOM     30  C   UNL     1      -9.150  -0.447 124.580  0.00  0.00    +0.000 C 
ATOM     31  N   UNL     1      -9.699  -0.013 123.657  0.00  0.00    +0.000 NA
ENDBRANCH  25  30
ENDBRANCH  21  29
ENDBRANCH   1  21
TORSDOF 5
ENDMDL
MODEL 3
REMARK VINA RESULT:      -7.8      6.578      9.515
REMARK  Name = Etravirine
REMARK  7 active torsions:
REMARK  status: ('A' for Active; 'I' for Inactive)
REMARK    1  A    between atoms: C_1  and  C_2
REMARK    2  A    between atoms: C_4  and  C_27
REMARK    3  A    between atoms: C_6  and  C_7
REMARK    4  A    between atoms: C_8  and  O_9
REMARK    5  A    between atoms: O_9  and  C_10
REMARK    6  A    between atoms: N_17  and  C_18
REMARK    7  A    between atoms: C_21  and  C_24
REMARK                            x       y       z     vdW  Elec       q    Type
REMARK                         _______ _______ _______ _____ _____    ______ ____
ROOT
ATOM      1  C   UNL     1      -6.465  -0.619 129.532  0.00  0.00    +0.000 A 
ATOM      2  C   UNL     1      -6.548  -0.715 130.903  0.00  0.00    +0.000 A 
ATOM      3 BR   UNL     1      -6.468  -2.380 131.804  0.00  0.00    +0.000 Br
ATOM      4  C   UNL     1      -6.711   0.487 131.589  0.00  0.00    +0.000 A 
ATOM      5  N   UNL     1      -6.787   0.493 132.978  0.00  0.00    +0.000 N 
ATOM      6  N   UNL     1      -6.722   1.691 130.964  0.00  0.00    +0.000 NA
ATOM      7  C   UNL     1      -6.686   1.698 129.615  0.00  0.00    +0.000 A 
ATOM      8  N   UNL     1      -6.518   2.934 128.953  0.00  0.00    +0.000 N 
ATOM      9  N   UNL     1      -6.652   0.556 128.887  0.00  0.00    +0.000 NA
ATOM     10  H   UNL     1      -6.907  -0.387 133.465  0.00  0.00    +0.000 HD
ATOM     11  H   UNL     1      -6.986   1.358 133.459  0.00  0.00    +0.000 HD
ATOM     12  H   UNL     1      -6.471   3.730 129.574  0.00  0.00    +0.000 HD
ENDROOT
BRANCH   8  13
ATOM     13  C   UNL     1      -6.317   3.164 127.578  0.00  0.00    +0.000 A 
ATOM     14  C   UNL     1      -7.379   3.461 126.705  0.00  0.00    +0.000 A 
ATOM     15  C   UNL     1      -7.136   3.815 125.363  0.00  0.00    +0.000 A 
ATOM     16  C   UNL     1      -5.831   3.854 124.864  0.00  0.00    +0.000 A 
ATOM     17  C   UNL     1      -4.773   3.531 125.715  0.00  0.00    +0.000 A 
ATOM     18  C   UNL     1      -5.020   3.198 127.053  0.00  0.00    +0.000 A 
BRANCH  16  19
ATOM     19  C   UNL     1      -5.584   4.226 123.502  0.00  0.00    +0.000 C 
ATOM     20  N   UNL     1      -5.386   4.540 122.397  0.00  0.00    +0.000 NA
ENDBRANCH  16  19
ENDBRANCH   8  13
BRANCH   1  21
ATOM     21  O   UNL     1      -6.183  -1.759 128.766  0.00  0.00    +0.000 OA
BRANCH  21  29
ATOM     22  C   UNL     1      -5.340  -0.782 125.936  0.00  0.00    +0.000 C 
ATOM     23  C   UNL     1      -6.531  -1.613 126.281  0.00  0.00    +0.000 A 
ATOM     24  C   UNL     1      -7.348  -1.928 125.174  0.00  0.00    +0.000 A 
ATOM     25  C   UNL     1      -8.484  -2.707 125.309  0.00  0.00    +0.000 A 
ATOM     26  C   UNL     1      -8.829  -3.171 126.570  0.00  0.00    +0.000 A 
ATOM     27  C   UNL     1      -8.048  -2.855 127.710  0.00  0.00    +0.000 A 
ATOM     28  C   UNL     1      -8.524  -3.450 129.013  0.00  0.00    +0.000 C 
ATOM     29  C   UNL     1      -6.879  -2.042 127.583  0.00  0.00    +0.000 A 
BRANCH  25  30
ATOM     30  C   UNL     1      -9.262  -3.048 124.153  0.00  0.00    +0.000 C 
ATOM     31  N   UNL     1      -9.894  -3.302 123.216  0.00  0.00    +0.000 NA
ENDBRANCH  25  30
ENDBRANCH  21  29
ENDBRANCH   1  21
TORSDOF 5
ENDMDL
MODEL 4
REMARK VINA RESULT:      -7.8      4.837      7.583
REMARK  Name = Etravirine
REMARK  7 active torsions:
REMARK  status: ('A' for Active; 'I' for Inactive)
REMARK    1  A    between atoms: C_1  and  C_2
REMARK    2  A    between atoms: C_4  and  C_27
REMARK    3  A    between atoms: C_6  and  C_7
REMARK    4  A    between atoms: C_8  and  O_9
REMARK    5  A    between atoms: O_9  and  C_10
REMARK    6  A    between atoms: N_17  and  C_18
REMARK    7  A    between atoms: C_21  and  C_24
REMARK                            x       y       z     vdW  Elec       q    Type
REMARK                         _______ _______ _______ _____ _____    ______ ____
ROOT
ATOM      1  C   UNL     1      -5.230   4.672 129.326  0.00  0.00    +0.000 A 
ATOM      2  C   UNL     1      -4.009   5.251 129.589  0.00  0.00    +0.000 A 
ATOM      3 BR   UNL     1      -3.438   5.647 131.351  0.00  0.00    +0.000 Br
ATOM      4  C   UNL     1      -3.221   5.543 128.476  0.00  0.00    +0.000 A 
ATOM      5  N   UNL     1      -1.964   6.113 128.642  0.00  0.00    +0.000 N 
ATOM      6  N   UNL     1      -3.594   5.223 127.212  0.00  0.00    +0.000 NA
ATOM      7  C   UNL     1      -4.826   4.704 127.033  0.00  0.00    +0.000 A 
ATOM      8  N   UNL     1      -5.165   4.201 125.758  0.00  0.00    +0.000 N 
ATOM      9  N   UNL     1      -5.685   4.511 128.062  0.00  0.00    +0.000 NA
ATOM     10  H   UNL     1      -1.707   6.477 129.552  0.00  0.00    +0.000 HD
ATOM     11  H   UNL     1      -1.437   6.395 127.828  0.00  0.00    +0.000 HD
ATOM     12  H   UNL     1      -4.438   4.311 125.064  0.00  0.00    +0.000 HD
ENDROOT
BRANCH   8  13
ATOM     13  C   UNL     1      -6.328   3.500 125.380  0.00  0.00    +0.000 A 
ATOM     14  C   UNL     1      -7.554   4.149 125.154  0.00  0.00    +0.000 A 
ATOM     15  C   UNL     1      -8.666   3.443 124.651  0.00  0.00    +0.000 A 
ATOM     16  C   UNL     1      -8.577   2.073 124.389  0.00  0.00    +0.000 A 
ATOM     17  C   UNL     1      -7.373   1.414 124.639  0.00  0.00    +0.000 A 
ATOM     18  C   UNL     1      -6.266   2.126 125.121  0.00  0.00    +0.000 A 
BRANCH  16  19
ATOM     19  C   UNL     1      -9.704   1.358 123.867  0.00  0.00    +0.000 C 
ATOM     20  N   UNL     1     -10.628   0.787 123.444  0.00  0.00    +0.000 NA
ENDBRANCH  16  19
ENDBRANCH   8  13
BRANCH   1  21
ATOM     21  O   UNL     1      -6.039   4.235 130.384  0.00  0.00    +0.000 OA
BRANCH  21  29
ATOM     22  C   UNL     1      -6.566   7.233 131.026  0.00  0.00    +0.000 C 
ATOM     23  C   UNL     1      -7.582   6.144 130.923  0.00  0.00    +0.000 A 
ATOM     24  C   UNL     1      -8.901   6.568 131.193  0.00  0.00    +0.000 A 
ATOM     25  C   UNL     1      -9.973   5.694 131.124  0.00  0.00    +0.000 A 
ATOM     26  C   UNL     1      -9.731   4.366 130.799  0.00  0.00    +0.000 A 
ATOM     27  C   UNL     1      -8.417   3.898 130.545  0.00  0.00    +0.000 A 
ATOM     28  C   UNL     1      -8.304   2.439 130.175  0.00  0.00    +0.000 C 
ATOM     29  C   UNL     1      -7.303   4.791 130.624  0.00  0.00    +0.000 A 
BRANCH  25  30
ATOM     30  C   UNL     1     -11.305   6.171 131.356  0.00  0.00    +0.000 C 
ATOM     31  N   UNL     1     -12.374   6.566 131.562  0.00  0.00    +0.000 NA
ENDBRANCH  25  30
ENDBRANCH  21  29
ENDBRANCH   1  21
TORSDOF 5
ENDMDL
MODEL 5
REMARK VINA RESULT:      -7.7      6.942      9.552
REMARK  Name = Etravirine
REMARK  7 active torsions:
REMARK  status: ('A' for Active; 'I' for Inactive)
REMARK    1  A    between atoms: C_1  and  C_2
REMARK    2  A    between atoms: C_4  and  C_27
REMARK    3  A    between atoms: C_6  and  C_7
REMARK    4  A    between atoms: C_8  and  O_9
REMARK    5  A    between atoms: O_9  and  C_10
REMARK    6  A    between atoms: N_17  and  C_18
REMARK    7  A    between atoms: C_21  and  C_24
REMARK                            x       y       z     vdW  Elec       q    Type
REMARK                         _______ _______ _______ _____ _____    ______ ____
ROOT
ATOM      1  C   UNL     1      -5.292   1.085 129.536  0.00  0.00    +0.000 A 
ATOM      2  C   UNL     1      -4.550   1.032 130.695  0.00  0.00    +0.000 A 
ATOM      3 BR   UNL     1      -4.074   2.592 131.659  0.00  0.00    +0.000 Br
ATOM      4  C   UNL     1      -4.156  -0.239 131.110  0.00  0.00    +0.000 A 
ATOM      5  N   UNL     1      -3.420  -0.395 132.278  0.00  0.00    +0.000 N 
ATOM      6  N   UNL     1      -4.529  -1.369 130.457  0.00  0.00    +0.000 NA
ATOM      7  C   UNL     1      -5.212  -1.231 129.303  0.00  0.00    +0.000 A 
ATOM      8  N   UNL     1      -5.761  -2.386 128.703  0.00  0.00    +0.000 N 
ATOM      9  N   UNL     1      -5.518  -0.017 128.785  0.00  0.00    +0.000 NA
ATOM     10  H   UNL     1      -3.021   0.426 132.719  0.00  0.00    +0.000 HD
ATOM     11  H   UNL     1      -3.070  -1.310 132.525  0.00  0.00    +0.000 HD
ATOM     12  H   UNL     1      -5.554  -3.244 129.197  0.00  0.00    +0.000 HD
ENDROOT
BRANCH   8  13
ATOM     13  C   UNL     1      -6.616  -2.464 127.586  0.00  0.00    +0.000 A 
ATOM     14  C   UNL     1      -6.147  -2.302 126.271  0.00  0.00    +0.000 A 
ATOM     15  C   UNL     1      -6.996  -2.514 125.167  0.00  0.00    +0.000 A 
ATOM     16  C   UNL     1      -8.335  -2.869 125.360  0.00  0.00    +0.000 A 
ATOM     17  C   UNL     1      -8.817  -3.003 126.662  0.00  0.00    +0.000 A 
ATOM     18  C   UNL     1      -7.962  -2.809 127.755  0.00  0.00    +0.000 A 
BRANCH  16  19
ATOM     19  C   UNL     1      -9.195  -3.096 124.236  0.00  0.00    +0.000 C 
ATOM     20  N   UNL     1      -9.885  -3.284 123.315  0.00  0.00    +0.000 NA
ENDBRANCH  16  19
ENDBRANCH   8  13
BRANCH   1  21
ATOM     21  O   UNL     1      -5.832   2.305 129.106  0.00  0.00    +0.000 OA
BRANCH  21  29
ATOM     22  C   UNL     1      -3.148   3.414 127.992  0.00  0.00    +0.000 C 
ATOM     23  C   UNL     1      -4.443   3.290 127.258  0.00  0.00    +0.000 A 
ATOM     24  C   UNL     1      -4.397   3.779 125.935  0.00  0.00    +0.000 A 
ATOM     25  C   UNL     1      -5.502   3.725 125.103  0.00  0.00    +0.000 A 
ATOM     26  C   UNL     1      -6.684   3.192 125.598  0.00  0.00    +0.000 A 
ATOM     27  C   UNL     1      -6.776   2.714 126.930  0.00  0.00    +0.000 A 
ATOM     28  C   UNL     1      -8.112   2.134 127.325  0.00  0.00    +0.000 C 
ATOM     29  C   UNL     1      -5.643   2.775 127.800  0.00  0.00    +0.000 A 
BRANCH  25  30
ATOM     30  C   UNL     1      -5.405   4.186 123.749  0.00  0.00    +0.000 C 
ATOM     31  N   UNL     1      -5.348   4.559 122.654  0.00  0.00    +0.000 NA
ENDBRANCH  25  30
ENDBRANCH  21  29
ENDBRANCH   1  21
TORSDOF 5
ENDMDL
MODEL 6
REMARK VINA RESULT:      -7.6      6.392      9.282
REMARK  Name = Etravirine
REMARK  7 active torsions:
REMARK  status: ('A' for Active; 'I' for Inactive)
REMARK    1  A    between atoms: C_1  and  C_2
REMARK    2  A    between atoms: C_4  and  C_27
REMARK    3  A    between atoms: C_6  and  C_7
REMARK    4  A    between atoms: C_8  and  O_9
REMARK    5  A    between atoms: O_9  and  C_10
REMARK    6  A    between atoms: N_17  and  C_18
REMARK    7  A    between atoms: C_21  and  C_24
REMARK                            x       y       z     vdW  Elec       q    Type
REMARK                         _______ _______ _______ _____ _____    ______ ____
ROOT
ATOM      1  C   UNL     1      -8.244   0.908 130.040  0.00  0.00    +0.000 A 
ATOM      2  C   UNL     1      -8.817   2.015 130.624  0.00  0.00    +0.000 A 
ATOM      3 BR   UNL     1      -9.176   2.104 132.482  0.00  0.00    +0.000 Br
ATOM      4  C   UNL     1      -9.132   3.064 129.762  0.00  0.00    +0.000 A 
ATOM      5  N   UNL     1      -9.697   4.232 130.262  0.00  0.00    +0.000 N 
ATOM      6  N   UNL     1      -8.838   3.036 128.438  0.00  0.00    +0.000 NA
ATOM      7  C   UNL     1      -8.323   1.896 127.933  0.00  0.00    +0.000 A 
ATOM      8  N   UNL     1      -7.847   1.904 126.604  0.00  0.00    +0.000 N 
ATOM      9  N   UNL     1      -8.109   0.799 128.698  0.00  0.00    +0.000 NA
ATOM     10  H   UNL     1     -10.042   4.240 131.215  0.00  0.00    +0.000 HD
ATOM     11  H   UNL     1      -9.996   4.951 129.619  0.00  0.00    +0.000 HD
ATOM     12  H   UNL     1      -7.971   2.787 126.127  0.00  0.00    +0.000 HD
ENDROOT
BRANCH   8  13
ATOM     13  C   UNL     1      -7.154   0.884 125.922  0.00  0.00    +0.000 A 
ATOM     14  C   UNL     1      -5.905   0.407 126.357  0.00  0.00    +0.000 A 
ATOM     15  C   UNL     1      -5.296  -0.701 125.734  0.00  0.00    +0.000 A 
ATOM     16  C   UNL     1      -5.913  -1.334 124.651  0.00  0.00    +0.000 A 
ATOM     17  C   UNL     1      -7.138  -0.848 124.193  0.00  0.00    +0.000 A 
ATOM     18  C   UNL     1      -7.747   0.242 124.829  0.00  0.00    +0.000 A 
BRANCH  16  19
ATOM     19  C   UNL     1      -5.297  -2.468 124.026  0.00  0.00    +0.000 C 
ATOM     20  N   UNL     1      -4.806  -3.397 123.522  0.00  0.00    +0.000 NA
ENDBRANCH  16  19
ENDBRANCH   8  13
BRANCH   1  21
ATOM     21  O   UNL     1      -7.785  -0.147 130.841  0.00  0.00    +0.000 OA
BRANCH  21  29
ATOM     22  C   UNL     1      -4.874   0.822 131.354  0.00  0.00    +0.000 C 
ATOM     23  C   UNL     1      -5.294  -0.465 130.726  0.00  0.00    +0.000 A 
ATOM     24  C   UNL     1      -4.217  -1.272 130.304  0.00  0.00    +0.000 A 
ATOM     25  C   UNL     1      -4.422  -2.510 129.717  0.00  0.00    +0.000 A 
ATOM     26  C   UNL     1      -5.725  -2.950 129.529  0.00  0.00    +0.000 A 
ATOM     27  C   UNL     1      -6.834  -2.156 129.918  0.00  0.00    +0.000 A 
ATOM     28  C   UNL     1      -8.192  -2.771 129.680  0.00  0.00    +0.000 C 
ATOM     29  C   UNL     1      -6.631  -0.873 130.514  0.00  0.00    +0.000 A 
BRANCH  25  30
ATOM     30  C   UNL     1      -3.302  -3.324 129.346  0.00  0.00    +0.000 C 
ATOM     31  N   UNL     1      -2.394  -3.988 129.068  0.00  0.00    +0.000 NA
ENDBRANCH  25  30
ENDBRANCH  21  29
ENDBRANCH   1  21
TORSDOF 5
ENDMDL
MODEL 7
REMARK VINA RESULT:      -7.5      6.456      9.183
REMARK  Name = Etravirine
REMARK  7 active torsions:
REMARK  status: ('A' for Active; 'I' for Inactive)
REMARK    1  A    between atoms: C_1  and  C_2
REMARK    2  A    between atoms: C_4  and  C_27
REMARK    3  A    between atoms: C_6  and  C_7
REMARK    4  A    between atoms: C_8  and  O_9
REMARK    5  A    between atoms: O_9  and  C_10
REMARK    6  A    between atoms: N_17  and  C_18
REMARK    7  A    between atoms: C_21  and  C_24
REMARK                            x       y       z     vdW  Elec       q    Type
REMARK                         _______ _______ _______ _____ _____    ______ ____
ROOT
ATOM      1  C   UNL     1      -6.070  -1.514 126.380  0.00  0.00    +0.000 A 
ATOM      2  C   UNL     1      -6.058  -1.705 125.017  0.00  0.00    +0.000 A 
ATOM      3 BR   UNL     1      -5.356  -3.276 124.224  0.00  0.00    +0.000 Br
ATOM      4  C   UNL     1      -6.581  -0.664 124.251  0.00  0.00    +0.000 A 
ATOM      5  N   UNL     1      -6.629  -0.773 122.865  0.00  0.00    +0.000 N 
ATOM      6  N   UNL     1      -7.131   0.446 124.804  0.00  0.00    +0.000 NA
ATOM      7  C   UNL     1      -7.059   0.581 126.144  0.00  0.00    +0.000 A 
ATOM      8  N   UNL     1      -7.776   1.634 126.753  0.00  0.00    +0.000 N 
ATOM      9  N   UNL     1      -6.453  -0.339 126.931  0.00  0.00    +0.000 NA
ATOM     10  H   UNL     1      -6.119  -1.524 122.415  0.00  0.00    +0.000 HD
ATOM     11  H   UNL     1      -6.934   0.019 122.317  0.00  0.00    +0.000 HD
ATOM     12  H   UNL     1      -8.268   2.229 126.101  0.00  0.00    +0.000 HD
ENDROOT
BRANCH   8  13
ATOM     13  C   UNL     1      -7.956   1.883 128.129  0.00  0.00    +0.000 A 
ATOM     14  C   UNL     1      -8.127   3.182 128.639  0.00  0.00    +0.000 A 
ATOM     15  C   UNL     1      -8.435   3.392 129.998  0.00  0.00    +0.000 A 
ATOM     16  C   UNL     1      -8.553   2.308 130.874  0.00  0.00    +0.000 A 
ATOM     17  C   UNL     1      -8.355   1.018 130.383  0.00  0.00    +0.000 A 
ATOM     18  C   UNL     1      -8.068   0.815 129.027  0.00  0.00    +0.000 A 
BRANCH  16  19
ATOM     19  C   UNL     1      -8.878   2.522 132.254  0.00  0.00    +0.000 C 
ATOM     20  N   UNL     1      -9.146   2.685 133.377  0.00  0.00    +0.000 NA
ENDBRANCH  16  19
ENDBRANCH   8  13
BRANCH   1  21
ATOM     21  O   UNL     1      -5.675  -2.552 127.235  0.00  0.00    +0.000 OA
BRANCH  21  29
ATOM     22  C   UNL     1      -8.597  -3.413 127.861  0.00  0.00    +0.000 C 
ATOM     23  C   UNL     1      -7.531  -3.072 128.848  0.00  0.00    +0.000 A 
ATOM     24  C   UNL     1      -7.959  -3.124 130.192  0.00  0.00    +0.000 A 
ATOM     25  C   UNL     1      -7.096  -2.856 131.240  0.00  0.00    +0.000 A 
ATOM     26  C   UNL     1      -5.783  -2.511 130.951  0.00  0.00    +0.000 A 
ATOM     27  C   UNL     1      -5.322  -2.424 129.613  0.00  0.00    +0.000 A 
ATOM     28  C   UNL     1      -3.865  -2.066 129.447  0.00  0.00    +0.000 C 
ATOM     29  C   UNL     1      -6.209  -2.689 128.524  0.00  0.00    +0.000 A 
BRANCH  25  30
ATOM     30  C   UNL     1      -7.553  -2.968 132.595  0.00  0.00    +0.000 C 
ATOM     31  N   UNL     1      -7.914  -3.039 133.693  0.00  0.00    +0.000 NA
ENDBRANCH  25  30
ENDBRANCH  21  29
ENDBRANCH   1  21
TORSDOF 5
ENDMDL
MODEL 8
REMARK VINA RESULT:      -7.5      6.620      9.633
REMARK  Name = Etravirine
REMARK  7 active torsions:
REMARK  status: ('A' for Active; 'I' for Inactive)
REMARK    1  A    between atoms: C_1  and  C_2
REMARK    2  A    between atoms: C_4  and  C_27
REMARK    3  A    between atoms: C_6  and  C_7
REMARK    4  A    between atoms: C_8  and  O_9
REMARK    5  A    between atoms: O_9  and  C_10
REMARK    6  A    between atoms: N_17  and  C_18
REMARK    7  A    between atoms: C_21  and  C_24
REMARK                            x       y       z     vdW  Elec       q    Type
REMARK                         _______ _______ _______ _____ _____    ______ ____
ROOT
ATOM      1  C   UNL     1      -7.975   2.147 124.938  0.00  0.00    +0.000 A 
ATOM      2  C   UNL     1      -8.421   2.322 123.647  0.00  0.00    +0.000 A 
ATOM      3 BR   UNL     1     -10.037   1.553 123.025  0.00  0.00    +0.000 Br
ATOM      4  C   UNL     1      -7.603   3.088 122.818  0.00  0.00    +0.000 A 
ATOM      5  N   UNL     1      -7.978   3.335 121.503  0.00  0.00    +0.000 N 
ATOM      6  N   UNL     1      -6.468   3.685 123.261  0.00  0.00    +0.000 NA
ATOM      7  C   UNL     1      -6.073   3.424 124.524  0.00  0.00    +0.000 A 
ATOM      8  N   UNL     1      -5.000   4.169 125.060  0.00  0.00    +0.000 N 
ATOM      9  N   UNL     1      -6.761   2.589 125.338  0.00  0.00    +0.000 NA
ATOM     10  H   UNL     1      -8.747   2.808 121.105  0.00  0.00    +0.000 HD
ATOM     11  H   UNL     1      -7.340   3.821 120.889  0.00  0.00    +0.000 HD
ATOM     12  H   UNL     1      -4.592   4.829 124.413  0.00  0.00    +0.000 HD
ENDROOT
BRANCH   8  13
ATOM     13  C   UNL     1      -4.512   4.164 126.382  0.00  0.00    +0.000 A 
ATOM     14  C   UNL     1      -3.180   3.837 126.689  0.00  0.00    +0.000 A 
ATOM     15  C   UNL     1      -2.685   3.967 128.002  0.00  0.00    +0.000 A 
ATOM     16  C   UNL     1      -3.520   4.403 129.035  0.00  0.00    +0.000 A 
ATOM     17  C   UNL     1      -4.852   4.701 128.746  0.00  0.00    +0.000 A 
ATOM     18  C   UNL     1      -5.332   4.587 127.435  0.00  0.00    +0.000 A 
BRANCH  16  19
ATOM     19  C   UNL     1      -3.013   4.546 130.368  0.00  0.00    +0.000 C 
ATOM     20  N   UNL     1      -2.601   4.674 131.451  0.00  0.00    +0.000 NA
ENDBRANCH  16  19
ENDBRANCH   8  13
BRANCH   1  21
ATOM     21  O   UNL     1      -8.787   1.492 125.875  0.00  0.00    +0.000 OA
BRANCH  21  29
ATOM     22  C   UNL     1      -8.463  -1.381 124.729  0.00  0.00    +0.000 C 
ATOM     23  C   UNL     1      -8.170  -0.932 126.122  0.00  0.00    +0.000 A 
ATOM     24  C   UNL     1      -7.741  -1.968 126.978  0.00  0.00    +0.000 A 
ATOM     25  C   UNL     1      -7.407  -1.728 128.300  0.00  0.00    +0.000 A 
ATOM     26  C   UNL     1      -7.518  -0.434 128.791  0.00  0.00    +0.000 A 
ATOM     27  C   UNL     1      -7.969   0.629 127.968  0.00  0.00    +0.000 A 
ATOM     28  C   UNL     1      -8.013   1.988 128.624  0.00  0.00    +0.000 C 
ATOM     29  C   UNL     1      -8.326   0.388 126.605  0.00  0.00    +0.000 A 
BRANCH  25  30
ATOM     30  C   UNL     1      -6.927  -2.797 129.126  0.00  0.00    +0.000 C 
ATOM     31  N   UNL     1      -6.524  -3.665 129.779  0.00  0.00    +0.000 NA
ENDBRANCH  25  30
ENDBRANCH  21  29
ENDBRANCH   1  21
TORSDOF 5
ENDMDL
MODEL 9
REMARK VINA RESULT:      -7.5      7.065      9.860
REMARK  Name = Etravirine
REMARK  7 active torsions:
REMARK  status: ('A' for Active; 'I' for Inactive)
REMARK    1  A    between atoms: C_1  and  C_2
REMARK    2  A    between atoms: C_4  and  C_27
REMARK    3  A    between atoms: C_6  and  C_7
REMARK    4  A    between atoms: C_8  and  O_9
REMARK    5  A    between atoms: O_9  and  C_10
REMARK    6  A    between atoms: N_17  and  C_18
REMARK    7  A    between atoms: C_21  and  C_24
REMARK                            x       y       z     vdW  Elec       q    Type
REMARK                         _______ _______ _______ _____ _____    ______ ____
ROOT
ATOM      1  C   UNL     1      -5.808   1.727 128.783  0.00  0.00    +0.000 A 
ATOM      2  C   UNL     1      -5.086   1.996 129.924  0.00  0.00    +0.000 A 
ATOM      3 BR   UNL     1      -4.821   3.762 130.557  0.00  0.00    +0.000 Br
ATOM      4  C   UNL     1      -4.545   0.890 130.578  0.00  0.00    +0.000 A 
ATOM      5  N   UNL     1      -3.815   1.060 131.749  0.00  0.00    +0.000 N 
ATOM      6  N   UNL     1      -4.765  -0.383 130.165  0.00  0.00    +0.000 NA
ATOM      7  C   UNL     1      -5.441  -0.561 129.011  0.00  0.00    +0.000 A 
ATOM      8  N   UNL     1      -5.833  -1.870 128.656  0.00  0.00    +0.000 N 
ATOM      9  N   UNL     1      -5.884   0.479 128.266  0.00  0.00    +0.000 NA
ATOM     10  H   UNL     1      -3.528   1.994 132.016  0.00  0.00    +0.000 HD
ATOM     11  H   UNL     1      -3.360   0.262 132.169  0.00  0.00    +0.000 HD
ATOM     12  H   UNL     1      -5.531  -2.582 129.307  0.00  0.00    +0.000 HD
ENDROOT
BRANCH   8  13
ATOM     13  C   UNL     1      -6.653  -2.272 127.583  0.00  0.00    +0.000 A 
ATOM     14  C   UNL     1      -7.998  -2.638 127.764  0.00  0.00    +0.000 A 
ATOM     15  C   UNL     1      -8.831  -2.909 126.660  0.00  0.00    +0.000 A 
ATOM     16  C   UNL     1      -8.326  -2.842 125.357  0.00  0.00    +0.000 A 
ATOM     17  C   UNL     1      -6.984  -2.510 125.169  0.00  0.00    +0.000 A 
ATOM     18  C   UNL     1      -6.167  -2.223 126.271  0.00  0.00    +0.000 A 
BRANCH  16  19
ATOM     19  C   UNL     1      -9.177  -3.107 124.235  0.00  0.00    +0.000 C 
ATOM     20  N   UNL     1      -9.859  -3.327 123.316  0.00  0.00    +0.000 NA
ENDBRANCH  16  19
ENDBRANCH   8  13
BRANCH   1  21
ATOM     21  O   UNL     1      -6.487   2.762 128.125  0.00  0.00    +0.000 OA
BRANCH  21  29
ATOM     22  C   UNL     1      -8.571   1.334 126.310  0.00  0.00    +0.000 C 
ATOM     23  C   UNL     1      -7.447   2.211 125.868  0.00  0.00    +0.000 A 
ATOM     24  C   UNL     1      -7.341   2.341 124.467  0.00  0.00    +0.000 A 
ATOM     25  C   UNL     1      -6.367   3.132 123.882  0.00  0.00    +0.000 A 
ATOM     26  C   UNL     1      -5.466   3.796 124.703  0.00  0.00    +0.000 A 
ATOM     27  C   UNL     1      -5.525   3.671 126.114  0.00  0.00    +0.000 A 
ATOM     28  C   UNL     1      -4.502   4.472 126.883  0.00  0.00    +0.000 C 
ATOM     29  C   UNL     1      -6.521   2.848 126.726  0.00  0.00    +0.000 A 
BRANCH  25  30
ATOM     30  C   UNL     1      -6.321   3.280 122.457  0.00  0.00    +0.000 C 
ATOM     31  N   UNL     1      -6.270   3.416 121.307  0.00  0.00    +0.000 NA
ENDBRANCH  25  30
ENDBRANCH  21  29
ENDBRANCH   1  21
TORSDOF 5
ENDMDL
