MODEL 1
REMARK VINA RESULT:      -5.5      0.000      0.000
REMARK  Name = Eugenol
REMARK  5 active torsions:
REMARK  status: ('A' for Active; 'I' for Inactive)
REMARK    1  A    between atoms: C_1  and  O_2
REMARK    2  A    between atoms: O_2  and  C_3
REMARK    3  A    between atoms: C_4  and  O_5
REMARK    4  A    between atoms: C_8  and  C_9
REMARK    5  A    between atoms: C_9  and  C_10
REMARK                            x       y       z     vdW  Elec       q    Type
REMARK                         _______ _______ _______ _____ _____    ______ ____
ROOT
ATOM      1  C   UNL     1      -9.479   6.558 131.142  0.00  0.00    +0.000 A 
ATOM      2  C   UNL     1     -10.641   6.279 131.856  0.00  0.00    +0.000 A 
ATOM      3  C   UNL     1     -11.882   6.733 131.419  0.00  0.00    +0.000 A 
ATOM      4  C   UNL     1     -11.972   7.479 130.238  0.00  0.00    +0.000 A 
ATOM      5  C   UNL     1     -10.824   7.767 129.484  0.00  0.00    +0.000 A 
ATOM      6  C   UNL     1      -9.592   7.290 129.963  0.00  0.00    +0.000 A 
ENDROOT
BRANCH   1   8
ATOM      7  C   UNL     1      -7.119   6.800 131.251  0.00  0.00    +0.000 C 
ATOM      8  O   UNL     1      -8.293   6.086 131.648  0.00  0.00    +0.000 OA
ENDBRANCH   1   8
BRANCH   2   9
ATOM      9  O   UNL     1     -10.587   5.546 133.010  0.00  0.00    +0.000 OA
ATOM     10  H   UNL     1     -11.134   6.041 133.651  0.00  0.00    +0.000 HD
ENDBRANCH   2   9
BRANCH   5  11
ATOM     11  C   UNL     1     -10.948   8.572 128.198  0.00  0.00    +0.000 C 
BRANCH  11  12
ATOM     12  C   UNL     1     -11.024   7.783 126.912  0.00  0.00    +0.000 C 
ATOM     13  C   UNL     1     -12.106   7.125 126.471  0.00  0.00    +0.000 C 
ENDBRANCH  11  12
ENDBRANCH   5  11
TORSDOF 4
ENDMDL
MODEL 2
REMARK VINA RESULT:      -5.5      2.544      3.864
REMARK  Name = Eugenol
REMARK  5 active torsions:
REMARK  status: ('A' for Active; 'I' for Inactive)
REMARK    1  A    between atoms: C_1  and  O_2
REMARK    2  A    between atoms: O_2  and  C_3
REMARK    3  A    between atoms: C_4  and  O_5
REMARK    4  A    between atoms: C_8  and  C_9
REMARK    5  A    between atoms: C_9  and  C_10
REMARK                            x       y       z     vdW  Elec       q    Type
REMARK                         _______ _______ _______ _____ _____    ______ ____
ROOT
ATOM      1  C   UNL     1     -10.604   6.579 129.420  0.00  0.00    +0.000 A 
ATOM      2  C   UNL     1     -10.356   6.897 128.087  0.00  0.00    +0.000 A 
ATOM      3  C   UNL     1     -10.984   7.978 127.476  0.00  0.00    +0.000 A 
ATOM      4  C   UNL     1     -11.876   8.770 128.209  0.00  0.00    +0.000 A 
ATOM      5  C   UNL     1     -12.139   8.488 129.558  0.00  0.00    +0.000 A 
ATOM      6  C   UNL     1     -11.486   7.386 130.134  0.00  0.00    +0.000 A 
ENDROOT
BRANCH   1   8
ATOM      7  C   UNL     1     -10.797   4.480 130.514  0.00  0.00    +0.000 C 
ATOM      8  O   UNL     1      -9.957   5.487 129.943  0.00  0.00    +0.000 OA
ENDBRANCH   1   8
BRANCH   2   9
ATOM      9  O   UNL     1      -9.484   6.148 127.346  0.00  0.00    +0.000 OA
ATOM     10  H   UNL     1      -8.672   6.688 127.286  0.00  0.00    +0.000 HD
ENDBRANCH   2   9
BRANCH   5  11
ATOM     11  C   UNL     1     -13.106   9.367 130.338  0.00  0.00    +0.000 C 
BRANCH  11  12
ATOM     12  C   UNL     1     -13.514  10.667 129.686  0.00  0.00    +0.000 C 
ATOM     13  C   UNL     1     -13.634  11.845 130.316  0.00  0.00    +0.000 C 
ENDBRANCH  11  12
ENDBRANCH   5  11
TORSDOF 4
ENDMDL
MODEL 3
REMARK VINA RESULT:      -5.4     10.908     11.957
REMARK  Name = Eugenol
REMARK  5 active torsions:
REMARK  status: ('A' for Active; 'I' for Inactive)
REMARK    1  A    between atoms: C_1  and  O_2
REMARK    2  A    between atoms: O_2  and  C_3
REMARK    3  A    between atoms: C_4  and  O_5
REMARK    4  A    between atoms: C_8  and  C_9
REMARK    5  A    between atoms: C_9  and  C_10
REMARK                            x       y       z     vdW  Elec       q    Type
REMARK                         _______ _______ _______ _____ _____    ______ ____
ROOT
ATOM      1  C   UNL     1      -7.997  -0.263 123.368  0.00  0.00    +0.000 A 
ATOM      2  C   UNL     1      -9.111  -1.051 123.095  0.00  0.00    +0.000 A 
ATOM      3  C   UNL     1      -9.077  -2.431 123.274  0.00  0.00    +0.000 A 
ATOM      4  C   UNL     1      -7.908  -3.043 123.742  0.00  0.00    +0.000 A 
ATOM      5  C   UNL     1      -6.771  -2.278 124.041  0.00  0.00    +0.000 A 
ATOM      6  C   UNL     1      -6.849  -0.889 123.844  0.00  0.00    +0.000 A 
ENDROOT
BRANCH   1   8
ATOM      7  C   UNL     1      -7.656   1.930 124.216  0.00  0.00    +0.000 C 
ATOM      8  O   UNL     1      -8.107   1.089 123.150  0.00  0.00    +0.000 OA
ENDBRANCH   1   8
BRANCH   2   9
ATOM      9  O   UNL     1     -10.270  -0.483 122.643  0.00  0.00    +0.000 OA
ATOM     10  H   UNL     1     -10.064  -0.165 121.743  0.00  0.00    +0.000 HD
ENDBRANCH   2   9
BRANCH   5  11
ATOM     11  C   UNL     1      -5.515  -2.964 124.558  0.00  0.00    +0.000 C 
BRANCH  11  12
ATOM     12  C   UNL     1      -4.610  -3.590 123.523  0.00  0.00    +0.000 C 
ATOM     13  C   UNL     1      -4.247  -4.881 123.492  0.00  0.00    +0.000 C 
ENDBRANCH  11  12
ENDBRANCH   5  11
TORSDOF 4
ENDMDL
MODEL 4
REMARK VINA RESULT:      -5.2      2.439      4.486
REMARK  Name = Eugenol
REMARK  5 active torsions:
REMARK  status: ('A' for Active; 'I' for Inactive)
REMARK    1  A    between atoms: C_1  and  O_2
REMARK    2  A    between atoms: O_2  and  C_3
REMARK    3  A    between atoms: C_4  and  O_5
REMARK    4  A    between atoms: C_8  and  C_9
REMARK    5  A    between atoms: C_9  and  C_10
REMARK                            x       y       z     vdW  Elec       q    Type
REMARK                         _______ _______ _______ _____ _____    ______ ____
ROOT
ATOM      1  C   UNL     1     -11.151   7.976 128.836  0.00  0.00    +0.000 A 
ATOM      2  C   UNL     1     -12.425   7.820 129.375  0.00  0.00    +0.000 A 
ATOM      3  C   UNL     1     -12.614   7.195 130.604  0.00  0.00    +0.000 A 
ATOM      4  C   UNL     1     -11.510   6.717 131.319  0.00  0.00    +0.000 A 
ATOM      5  C   UNL     1     -10.210   6.870 130.812  0.00  0.00    +0.000 A 
ATOM      6  C   UNL     1     -10.065   7.505 129.568  0.00  0.00    +0.000 A 
ENDROOT
BRANCH   1   8
ATOM      7  C   UNL     1     -10.907   7.717 126.487  0.00  0.00    +0.000 C 
ATOM      8  O   UNL     1     -11.051   8.590 127.611  0.00  0.00    +0.000 OA
ENDBRANCH   1   8
BRANCH   2   9
ATOM      9  O   UNL     1     -13.524   8.282 128.705  0.00  0.00    +0.000 OA
ATOM     10  H   UNL     1     -13.400   7.991 127.781  0.00  0.00    +0.000 HD
ENDBRANCH   2   9
BRANCH   5  11
ATOM     11  C   UNL     1      -9.023   6.351 131.612  0.00  0.00    +0.000 C 
BRANCH  11  12
ATOM     12  C   UNL     1      -7.650   6.736 131.111  0.00  0.00    +0.000 C 
ATOM     13  C   UNL     1      -6.498   6.498 131.755  0.00  0.00    +0.000 C 
ENDBRANCH  11  12
ENDBRANCH   5  11
TORSDOF 4
ENDMDL
MODEL 5
REMARK VINA RESULT:      -5.0      2.891      4.386
REMARK  Name = Eugenol
REMARK  5 active torsions:
REMARK  status: ('A' for Active; 'I' for Inactive)
REMARK    1  A    between atoms: C_1  and  O_2
REMARK    2  A    between atoms: O_2  and  C_3
REMARK    3  A    between atoms: C_4  and  O_5
REMARK    4  A    between atoms: C_8  and  C_9
REMARK    5  A    between atoms: C_9  and  C_10
REMARK                            x       y       z     vdW  Elec       q    Type
REMARK                         _______ _______ _______ _____ _____    ______ ____
ROOT
ATOM      1  C   UNL     1     -11.235   8.113 128.707  0.00  0.00    +0.000 A 
ATOM      2  C   UNL     1     -12.326   8.735 129.308  0.00  0.00    +0.000 A 
ATOM      3  C   UNL     1     -12.864   8.254 130.499  0.00  0.00    +0.000 A 
ATOM      4  C   UNL     1     -12.299   7.130 131.112  0.00  0.00    +0.000 A 
ATOM      5  C   UNL     1     -11.190   6.486 130.543  0.00  0.00    +0.000 A 
ATOM      6  C   UNL     1     -10.681   7.004 129.340  0.00  0.00    +0.000 A 
ENDROOT
BRANCH   1   8
ATOM      7  C   UNL     1     -10.886   7.791 126.380  0.00  0.00    +0.000 C 
ATOM      8  O   UNL     1     -10.775   8.640 127.526  0.00  0.00    +0.000 OA
ENDBRANCH   1   8
BRANCH   2   9
ATOM      9  O   UNL     1     -12.896   9.840 128.737  0.00  0.00    +0.000 OA
ATOM     10  H   UNL     1     -12.392   9.990 127.914  0.00  0.00    +0.000 HD
ENDBRANCH   2   9
BRANCH   5  11
ATOM     11  C   UNL     1     -10.586   5.271 131.233  0.00  0.00    +0.000 C 
BRANCH  11  12
ATOM     12  C   UNL     1     -10.725   3.948 130.517  0.00  0.00    +0.000 C 
ATOM     13  C   UNL     1      -9.711   3.123 130.212  0.00  0.00    +0.000 C 
ENDBRANCH  11  12
ENDBRANCH   5  11
TORSDOF 4
ENDMDL
MODEL 6
REMARK VINA RESULT:      -5.0     11.175     11.701
REMARK  Name = Eugenol
REMARK  5 active torsions:
REMARK  status: ('A' for Active; 'I' for Inactive)
REMARK    1  A    between atoms: C_1  and  O_2
REMARK    2  A    between atoms: O_2  and  C_3
REMARK    3  A    between atoms: C_4  and  O_5
REMARK    4  A    between atoms: C_8  and  C_9
REMARK    5  A    between atoms: C_9  and  C_10
REMARK                            x       y       z     vdW  Elec       q    Type
REMARK                         _______ _______ _______ _____ _____    ______ ____
ROOT
ATOM      1  C   UNL     1      -6.577  -2.260 127.146  0.00  0.00    +0.000 A 
ATOM      2  C   UNL     1      -7.840  -2.847 127.167  0.00  0.00    +0.000 A 
ATOM      3  C   UNL     1      -8.405  -3.379 126.012  0.00  0.00    +0.000 A 
ATOM      4  C   UNL     1      -7.696  -3.333 124.805  0.00  0.00    +0.000 A 
ATOM      5  C   UNL     1      -6.416  -2.761 124.750  0.00  0.00    +0.000 A 
ATOM      6  C   UNL     1      -5.884  -2.234 125.939  0.00  0.00    +0.000 A 
ENDROOT
BRANCH   1   8
ATOM      7  C   UNL     1      -4.920  -2.370 128.844  0.00  0.00    +0.000 C 
ATOM      8  O   UNL     1      -6.097  -1.744 128.325  0.00  0.00    +0.000 OA
ENDBRANCH   1   8
BRANCH   2   9
ATOM      9  O   UNL     1      -8.554  -2.915 128.331  0.00  0.00    +0.000 OA
ATOM     10  H   UNL     1      -7.897  -3.130 129.021  0.00  0.00    +0.000 HD
ENDBRANCH   2   9
BRANCH   5  11
ATOM     11  C   UNL     1      -5.660  -2.730 123.429  0.00  0.00    +0.000 C 
BRANCH  11  12
ATOM     12  C   UNL     1      -4.373  -3.518 123.368  0.00  0.00    +0.000 C 
ATOM     13  C   UNL     1      -4.274  -4.850 123.492  0.00  0.00    +0.000 C 
ENDBRANCH  11  12
ENDBRANCH   5  11
TORSDOF 4
ENDMDL
MODEL 7
REMARK VINA RESULT:      -4.9      1.797      4.707
REMARK  Name = Eugenol
REMARK  5 active torsions:
REMARK  status: ('A' for Active; 'I' for Inactive)
REMARK    1  A    between atoms: C_1  and  O_2
REMARK    2  A    between atoms: O_2  and  C_3
REMARK    3  A    between atoms: C_4  and  O_5
REMARK    4  A    between atoms: C_8  and  C_9
REMARK    5  A    between atoms: C_9  and  C_10
REMARK                            x       y       z     vdW  Elec       q    Type
REMARK                         _______ _______ _______ _____ _____    ______ ____
ROOT
ATOM      1  C   UNL     1     -10.327   6.996 130.571  0.00  0.00    +0.000 A 
ATOM      2  C   UNL     1     -10.766   6.321 131.708  0.00  0.00    +0.000 A 
ATOM      3  C   UNL     1      -9.863   5.824 132.643  0.00  0.00    +0.000 A 
ATOM      4  C   UNL     1      -8.489   6.006 132.448  0.00  0.00    +0.000 A 
ATOM      5  C   UNL     1      -8.012   6.693 131.321  0.00  0.00    +0.000 A 
ATOM      6  C   UNL     1      -8.958   7.177 130.402  0.00  0.00    +0.000 A 
ENDROOT
BRANCH   1   8
ATOM      7  C   UNL     1     -10.873   7.529 128.322  0.00  0.00    +0.000 C 
ATOM      8  O   UNL     1     -11.282   7.442 129.690  0.00  0.00    +0.000 OA
ENDBRANCH   1   8
BRANCH   2   9
ATOM      9  O   UNL     1     -12.103   6.134 131.931  0.00  0.00    +0.000 OA
ATOM     10  H   UNL     1     -12.522   6.984 131.695  0.00  0.00    +0.000 HD
ENDBRANCH   2   9
BRANCH   5  11
ATOM     11  C   UNL     1      -6.514   6.888 131.135  0.00  0.00    +0.000 C 
BRANCH  11  12
ATOM     12  C   UNL     1      -5.610   5.945 131.893  0.00  0.00    +0.000 C 
ATOM     13  C   UNL     1      -4.683   6.315 132.790  0.00  0.00    +0.000 C 
ENDBRANCH  11  12
ENDBRANCH   5  11
TORSDOF 4
ENDMDL
MODEL 8
REMARK VINA RESULT:      -4.8      7.259      8.518
REMARK  Name = Eugenol
REMARK  5 active torsions:
REMARK  status: ('A' for Active; 'I' for Inactive)
REMARK    1  A    between atoms: C_1  and  O_2
REMARK    2  A    between atoms: O_2  and  C_3
REMARK    3  A    between atoms: C_4  and  O_5
REMARK    4  A    between atoms: C_8  and  C_9
REMARK    5  A    between atoms: C_9  and  C_10
REMARK                            x       y       z     vdW  Elec       q    Type
REMARK                         _______ _______ _______ _____ _____    ______ ____
ROOT
ATOM      1  C   UNL     1      -7.940   3.557 124.887  0.00  0.00    +0.000 A 
ATOM      2  C   UNL     1      -8.807   2.778 124.126  0.00  0.00    +0.000 A 
ATOM      3  C   UNL     1      -8.543   2.505 122.787  0.00  0.00    +0.000 A 
ATOM      4  C   UNL     1      -7.384   3.014 122.189  0.00  0.00    +0.000 A 
ATOM      5  C   UNL     1      -6.480   3.792 122.930  0.00  0.00    +0.000 A 
ATOM      6  C   UNL     1      -6.787   4.044 124.277  0.00  0.00    +0.000 A 
ENDROOT
BRANCH   1   8
ATOM      7  C   UNL     1      -7.229   3.632 127.152  0.00  0.00    +0.000 C 
ATOM      8  O   UNL     1      -8.281   3.792 126.197  0.00  0.00    +0.000 OA
ENDBRANCH   1   8
BRANCH   2   9
ATOM      9  O   UNL     1      -9.944   2.260 124.682  0.00  0.00    +0.000 OA
ATOM     10  H   UNL     1      -9.827   1.290 124.645  0.00  0.00    +0.000 HD
ENDBRANCH   2   9
BRANCH   5  11
ATOM     11  C   UNL     1      -5.221   4.327 122.262  0.00  0.00    +0.000 C 
BRANCH  11  12
ATOM     12  C   UNL     1      -5.141   4.186 120.760  0.00  0.00    +0.000 C 
ATOM     13  C   UNL     1      -5.327   5.181 119.879  0.00  0.00    +0.000 C 
ENDBRANCH  11  12
ENDBRANCH   5  11
TORSDOF 4
ENDMDL
MODEL 9
REMARK VINA RESULT:      -4.7     11.102     12.058
REMARK  Name = Eugenol
REMARK  5 active torsions:
REMARK  status: ('A' for Active; 'I' for Inactive)
REMARK    1  A    between atoms: C_1  and  O_2
REMARK    2  A    between atoms: O_2  and  C_3
REMARK    3  A    between atoms: C_4  and  O_5
REMARK    4  A    between atoms: C_8  and  C_9
REMARK    5  A    between atoms: C_9  and  C_10
REMARK                            x       y       z     vdW  Elec       q    Type
REMARK                         _______ _______ _______ _____ _____    ______ ____
ROOT
ATOM      1  C   UNL     1      -6.898  -2.470 124.432  0.00  0.00    +0.000 A 
ATOM      2  C   UNL     1      -7.925  -2.461 123.492  0.00  0.00    +0.000 A 
ATOM      3  C   UNL     1      -9.219  -2.843 123.837  0.00  0.00    +0.000 A 
ATOM      4  C   UNL     1      -9.502  -3.237 125.150  0.00  0.00    +0.000 A 
ATOM      5  C   UNL     1      -8.494  -3.245 126.127  0.00  0.00    +0.000 A 
ATOM      6  C   UNL     1      -7.203  -2.854 125.735  0.00  0.00    +0.000 A 
ENDROOT
BRANCH   1   8
ATOM      7  C   UNL     1      -4.758  -3.163 123.670  0.00  0.00    +0.000 C 
ATOM      8  O   UNL     1      -5.647  -2.094 124.009  0.00  0.00    +0.000 OA
ENDBRANCH   1   8
BRANCH   2   9
ATOM      9  O   UNL     1      -7.684  -2.074 122.203  0.00  0.00    +0.000 OA
ATOM     10  H   UNL     1      -8.395  -1.440 121.990  0.00  0.00    +0.000 HD
ENDBRANCH   2   9
BRANCH   5  11
ATOM     11  C   UNL     1      -8.827  -3.668 127.550  0.00  0.00    +0.000 C 
BRANCH  11  12
ATOM     12  C   UNL     1      -7.805  -3.334 128.612  0.00  0.00    +0.000 C 
ATOM     13  C   UNL     1      -8.032  -2.568 129.690  0.00  0.00    +0.000 C 
ENDBRANCH  11  12
ENDBRANCH   5  11
TORSDOF 4
ENDMDL
