MODEL 1
REMARK VINA RESULT:      -6.1      0.000      0.000
REMARK  Name = Exametazime
REMARK  16 active torsions:
REMARK  status: ('A' for Active; 'I' for Inactive)
REMARK    1  A    between atoms: C_1  and  C_2
REMARK    2  A    between atoms: C_2  and  N_3
REMARK    3  A    between atoms: C_2  and  C_16
REMARK    4  A    between atoms: N_3  and  C_4
REMARK    5  A    between atoms: C_4  and  C_5
REMARK    6  A    between atoms: C_5  and  C_6
REMARK    7  A    between atoms: C_5  and  C_7
REMARK    8  A    between atoms: C_5  and  C_8
REMARK    9  A    between atoms: C_8  and  N_9
REMARK   10  A    between atoms: N_9  and  C_10
REMARK   11  A    between atoms: C_10  and  C_11
REMARK   12  A    between atoms: C_10  and  C_12
REMARK   13  A    between atoms: C_12  and  C_13
REMARK   14  A    between atoms: N_14  and  O_15
REMARK   15  A    between atoms: C_16  and  C_17
REMARK   16  A    between atoms: N_18  and  O_19
REMARK                            x       y       z     vdW  Elec       q    Type
REMARK                         _______ _______ _______ _____ _____    ______ ____
ROOT
ATOM      1  C   UNL     1      -8.397   6.212 131.077  0.00  0.00    +0.000 C 
ATOM      2  C   UNL     1      -7.030   6.926 131.174  0.00  0.00    +0.000 C 
ATOM      3  C   UNL     1      -8.271   4.891 130.304  0.00  0.00    +0.000 C 
ENDROOT
BRANCH   1   4
ATOM      4  C   UNL     1      -8.934   5.944 132.504  0.00  0.00    +0.000 C 
BRANCH   4   5
ATOM      5  N   UNL     1      -9.729   4.718 132.582  0.00  0.00    +0.000 NA
ATOM      6  H   UNL     1     -10.717   4.947 132.716  0.00  0.00    +0.000 HD
BRANCH   5   8
ATOM      7  C   UNL     1      -8.173   4.442 134.470  0.00  0.00    +0.000 C 
ATOM      8  C   UNL     1      -9.329   3.831 133.685  0.00  0.00    +0.000 C 
BRANCH   8   9
ATOM      9  C   UNL     1      -8.993   2.451 133.065  0.00  0.00    +0.000 C 
ATOM     10  C   UNL     1      -9.919   1.836 132.033  0.00  0.00    +0.000 C 
ATOM     11  N   UNL     1      -7.891   1.858 133.441  0.00  0.00    +0.000 NA
BRANCH  11  12
ATOM     12  O   UNL     1      -7.728   0.630 132.778  0.00  0.00    +0.000 OA
ATOM     13  H   UNL     1      -8.363   0.693 132.041  0.00  0.00    +0.000 HD
ENDBRANCH  11  12
ENDBRANCH   8   9
ENDBRANCH   5   8
ENDBRANCH   4   5
ENDBRANCH   1   4
BRANCH   1  14
ATOM     14  C   UNL     1      -9.416   7.150 130.380  0.00  0.00    +0.000 C 
BRANCH  14  15
ATOM     15  N   UNL     1     -10.680   6.464 130.089  0.00  0.00    +0.000 NA
ATOM     16  H   UNL     1     -10.947   5.931 130.915  0.00  0.00    +0.000 HD
BRANCH  15  17
ATOM     17  C   UNL     1     -11.776   7.387 129.743  0.00  0.00    +0.000 C 
ATOM     18  C   UNL     1     -12.829   7.232 130.841  0.00  0.00    +0.000 C 
BRANCH  17  19
ATOM     19  C   UNL     1     -12.302   7.085 128.314  0.00  0.00    +0.000 C 
ATOM     20  C   UNL     1     -13.792   7.056 128.044  0.00  0.00    +0.000 C 
ATOM     21  N   UNL     1     -11.438   6.893 127.361  0.00  0.00    +0.000 NA
BRANCH  21  22
ATOM     22  O   UNL     1     -12.048   6.563 126.145  0.00  0.00    +0.000 OA
ATOM     23  H   UNL     1     -11.517   7.068 125.502  0.00  0.00    +0.000 HD
ENDBRANCH  21  22
ENDBRANCH  17  19
ENDBRANCH  15  17
ENDBRANCH  14  15
ENDBRANCH   1  14
TORSDOF 10
ENDMDL
MODEL 2
REMARK VINA RESULT:      -6.1      8.955     11.542
REMARK  Name = Exametazime
REMARK  16 active torsions:
REMARK  status: ('A' for Active; 'I' for Inactive)
REMARK    1  A    between atoms: C_1  and  C_2
REMARK    2  A    between atoms: C_2  and  N_3
REMARK    3  A    between atoms: C_2  and  C_16
REMARK    4  A    between atoms: N_3  and  C_4
REMARK    5  A    between atoms: C_4  and  C_5
REMARK    6  A    between atoms: C_5  and  C_6
REMARK    7  A    between atoms: C_5  and  C_7
REMARK    8  A    between atoms: C_5  and  C_8
REMARK    9  A    between atoms: C_8  and  N_9
REMARK   10  A    between atoms: N_9  and  C_10
REMARK   11  A    between atoms: C_10  and  C_11
REMARK   12  A    between atoms: C_10  and  C_12
REMARK   13  A    between atoms: C_12  and  C_13
REMARK   14  A    between atoms: N_14  and  O_15
REMARK   15  A    between atoms: C_16  and  C_17
REMARK   16  A    between atoms: N_18  and  O_19
REMARK                            x       y       z     vdW  Elec       q    Type
REMARK                         _______ _______ _______ _____ _____    ______ ____
ROOT
ATOM      1  C   UNL     1      -7.833   2.537 123.754  0.00  0.00    +0.000 C 
ATOM      2  C   UNL     1      -8.293   3.101 125.118  0.00  0.00    +0.000 C 
ATOM      3  C   UNL     1      -9.020   2.408 122.787  0.00  0.00    +0.000 C 
ENDROOT
BRANCH   1   4
ATOM      4  C   UNL     1      -6.757   3.473 123.153  0.00  0.00    +0.000 C 
BRANCH   4   5
ATOM      5  N   UNL     1      -6.963   3.719 121.725  0.00  0.00    +0.000 NA
ATOM      6  H   UNL     1      -7.426   2.917 121.292  0.00  0.00    +0.000 HD
BRANCH   5   8
ATOM      7  C   UNL     1      -4.694   4.665 121.874  0.00  0.00    +0.000 C 
ATOM      8  C   UNL     1      -5.713   3.958 120.987  0.00  0.00    +0.000 C 
BRANCH   8   9
ATOM      9  C   UNL     1      -6.080   4.757 119.711  0.00  0.00    +0.000 C 
ATOM     10  C   UNL     1      -7.352   4.433 118.951  0.00  0.00    +0.000 C 
ATOM     11  N   UNL     1      -5.278   5.718 119.333  0.00  0.00    +0.000 NA
BRANCH  11  12
ATOM     12  O   UNL     1      -5.759   6.349 118.174  0.00  0.00    +0.000 OA
ATOM     13  H   UNL     1      -5.074   7.017 117.988  0.00  0.00    +0.000 HD
ENDBRANCH  11  12
ENDBRANCH   8   9
ENDBRANCH   5   8
ENDBRANCH   4   5
ENDBRANCH   1   4
BRANCH   1  14
ATOM     14  C   UNL     1      -7.162   1.156 123.971  0.00  0.00    +0.000 C 
BRANCH  14  15
ATOM     15  N   UNL     1      -7.976   0.062 123.431  0.00  0.00    +0.000 NA
ATOM     16  H   UNL     1      -7.942   0.116 122.414  0.00  0.00    +0.000 HD
BRANCH  15  17
ATOM     17  C   UNL     1      -7.512  -1.272 123.853  0.00  0.00    +0.000 C 
ATOM     18  C   UNL     1      -6.705  -1.835 122.683  0.00  0.00    +0.000 C 
BRANCH  17  19
ATOM     19  C   UNL     1      -8.719  -2.153 124.273  0.00  0.00    +0.000 C 
ATOM     20  C   UNL     1      -9.331  -3.122 123.283  0.00  0.00    +0.000 C 
ATOM     21  N   UNL     1      -9.163  -2.060 125.491  0.00  0.00    +0.000 NA
BRANCH  21  22
ATOM     22  O   UNL     1     -10.294  -2.856 125.710  0.00  0.00    +0.000 OA
ATOM     23  H   UNL     1     -10.152  -3.172 126.621  0.00  0.00    +0.000 HD
ENDBRANCH  21  22
ENDBRANCH  17  19
ENDBRANCH  15  17
ENDBRANCH  14  15
ENDBRANCH   1  14
TORSDOF 10
ENDMDL
MODEL 3
REMARK VINA RESULT:      -5.9      3.010      5.768
REMARK  Name = Exametazime
REMARK  16 active torsions:
REMARK  status: ('A' for Active; 'I' for Inactive)
REMARK    1  A    between atoms: C_1  and  C_2
REMARK    2  A    between atoms: C_2  and  N_3
REMARK    3  A    between atoms: C_2  and  C_16
REMARK    4  A    between atoms: N_3  and  C_4
REMARK    5  A    between atoms: C_4  and  C_5
REMARK    6  A    between atoms: C_5  and  C_6
REMARK    7  A    between atoms: C_5  and  C_7
REMARK    8  A    between atoms: C_5  and  C_8
REMARK    9  A    between atoms: C_8  and  N_9
REMARK   10  A    between atoms: N_9  and  C_10
REMARK   11  A    between atoms: C_10  and  C_11
REMARK   12  A    between atoms: C_10  and  C_12
REMARK   13  A    between atoms: C_12  and  C_13
REMARK   14  A    between atoms: N_14  and  O_15
REMARK   15  A    between atoms: C_16  and  C_17
REMARK   16  A    between atoms: N_18  and  O_19
REMARK                            x       y       z     vdW  Elec       q    Type
REMARK                         _______ _______ _______ _____ _____    ______ ____
ROOT
ATOM      1  C   UNL     1      -7.971   6.017 131.388  0.00  0.00    +0.000 C 
ATOM      2  C   UNL     1      -6.866   7.013 130.970  0.00  0.00    +0.000 C 
ATOM      3  C   UNL     1      -7.789   5.579 132.849  0.00  0.00    +0.000 C 
ENDROOT
BRANCH   1   4
ATOM      4  C   UNL     1      -9.355   6.685 131.202  0.00  0.00    +0.000 C 
BRANCH   4   5
ATOM      5  N   UNL     1      -9.460   7.411 129.935  0.00  0.00    +0.000 NA
ATOM      6  H   UNL     1      -8.928   8.283 129.983  0.00  0.00    +0.000 HD
BRANCH   5   8
ATOM      7  C   UNL     1     -11.826   7.145 130.567  0.00  0.00    +0.000 C 
ATOM      8  C   UNL     1     -10.844   7.758 129.574  0.00  0.00    +0.000 C 
BRANCH   8   9
ATOM      9  C   UNL     1     -11.068   7.289 128.115  0.00  0.00    +0.000 C 
ATOM     10  C   UNL     1     -12.432   7.445 127.468  0.00  0.00    +0.000 C 
ATOM     11  N   UNL     1     -10.052   6.783 127.466  0.00  0.00    +0.000 NA
BRANCH  11  12
ATOM     12  O   UNL     1     -10.418   6.423 126.158  0.00  0.00    +0.000 OA
ATOM     13  H   UNL     1      -9.866   5.639 125.985  0.00  0.00    +0.000 HD
ENDBRANCH  11  12
ENDBRANCH   8   9
ENDBRANCH   5   8
ENDBRANCH   4   5
ENDBRANCH   1   4
BRANCH   1  14
ATOM     14  C   UNL     1      -7.933   4.786 130.447  0.00  0.00    +0.000 C 
BRANCH  14  15
ATOM     15  N   UNL     1      -7.594   5.160 129.070  0.00  0.00    +0.000 NA
ATOM     16  H   UNL     1      -7.110   6.056 129.096  0.00  0.00    +0.000 HD
BRANCH  15  17
ATOM     17  C   UNL     1      -6.734   4.174 128.393  0.00  0.00    +0.000 C 
ATOM     18  C   UNL     1      -5.293   4.555 128.736  0.00  0.00    +0.000 C 
BRANCH  17  19
ATOM     19  C   UNL     1      -7.038   4.149 126.871  0.00  0.00    +0.000 C 
ATOM     20  C   UNL     1      -6.069   3.484 125.915  0.00  0.00    +0.000 C 
ATOM     21  N   UNL     1      -8.148   4.679 126.450  0.00  0.00    +0.000 NA
BRANCH  21  22
ATOM     22  O   UNL     1      -8.259   4.649 125.055  0.00  0.00    +0.000 OA
ATOM     23  H   UNL     1      -9.207   4.465 124.926  0.00  0.00    +0.000 HD
ENDBRANCH  21  22
ENDBRANCH  17  19
ENDBRANCH  15  17
ENDBRANCH  14  15
ENDBRANCH   1  14
TORSDOF 10
ENDMDL
MODEL 4
REMARK VINA RESULT:      -5.9      8.988     10.185
REMARK  Name = Exametazime
REMARK  16 active torsions:
REMARK  status: ('A' for Active; 'I' for Inactive)
REMARK    1  A    between atoms: C_1  and  C_2
REMARK    2  A    between atoms: C_2  and  N_3
REMARK    3  A    between atoms: C_2  and  C_16
REMARK    4  A    between atoms: N_3  and  C_4
REMARK    5  A    between atoms: C_4  and  C_5
REMARK    6  A    between atoms: C_5  and  C_6
REMARK    7  A    between atoms: C_5  and  C_7
REMARK    8  A    between atoms: C_5  and  C_8
REMARK    9  A    between atoms: C_8  and  N_9
REMARK   10  A    between atoms: N_9  and  C_10
REMARK   11  A    between atoms: C_10  and  C_11
REMARK   12  A    between atoms: C_10  and  C_12
REMARK   13  A    between atoms: C_12  and  C_13
REMARK   14  A    between atoms: N_14  and  O_15
REMARK   15  A    between atoms: C_16  and  C_17
REMARK   16  A    between atoms: N_18  and  O_19
REMARK                            x       y       z     vdW  Elec       q    Type
REMARK                         _______ _______ _______ _____ _____    ______ ____
ROOT
ATOM      1  C   UNL     1      -7.168   2.471 124.149  0.00  0.00    +0.000 C 
ATOM      2  C   UNL     1      -8.633   2.761 124.548  0.00  0.00    +0.000 C 
ATOM      3  C   UNL     1      -6.205   3.426 124.869  0.00  0.00    +0.000 C 
ENDROOT
BRANCH   1   4
ATOM      4  C   UNL     1      -6.826   1.003 124.504  0.00  0.00    +0.000 C 
BRANCH   4   5
ATOM      5  N   UNL     1      -7.429   0.048 123.574  0.00  0.00    +0.000 NA
ATOM      6  H   UNL     1      -8.449   0.116 123.611  0.00  0.00    +0.000 HD
BRANCH   5   8
ATOM      7  C   UNL     1      -6.236  -1.932 122.723  0.00  0.00    +0.000 C 
ATOM      8  C   UNL     1      -7.071  -1.351 123.860  0.00  0.00    +0.000 C 
BRANCH   8   9
ATOM      9  C   UNL     1      -8.391  -2.120 124.111  0.00  0.00    +0.000 C 
ATOM     10  C   UNL     1      -9.059  -2.058 125.472  0.00  0.00    +0.000 C 
ATOM     11  N   UNL     1      -8.911  -2.795 123.120  0.00  0.00    +0.000 NA
BRANCH  11  12
ATOM     12  O   UNL     1     -10.108  -3.419 123.507  0.00  0.00    +0.000 OA
ATOM     13  H   UNL     1     -10.783  -2.748 123.298  0.00  0.00    +0.000 HD
ENDBRANCH  11  12
ENDBRANCH   8   9
ENDBRANCH   5   8
ENDBRANCH   4   5
ENDBRANCH   1   4
BRANCH   1  14
ATOM     14  C   UNL     1      -7.019   2.611 122.612  0.00  0.00    +0.000 C 
BRANCH  14  15
ATOM     15  N   UNL     1      -6.645   3.975 122.222  0.00  0.00    +0.000 NA
ATOM     16  H   UNL     1      -6.365   4.478 123.062  0.00  0.00    +0.000 HD
BRANCH  15  17
ATOM     17  C   UNL     1      -5.539   4.019 121.248  0.00  0.00    +0.000 C 
ATOM     18  C   UNL     1      -4.391   4.755 121.939  0.00  0.00    +0.000 C 
BRANCH  17  19
ATOM     19  C   UNL     1      -6.013   4.681 119.927  0.00  0.00    +0.000 C 
ATOM     20  C   UNL     1      -7.347   4.296 119.321  0.00  0.00    +0.000 C 
ATOM     21  N   UNL     1      -5.257   5.586 119.378  0.00  0.00    +0.000 NA
BRANCH  21  22
ATOM     22  O   UNL     1      -5.770   6.045 118.160  0.00  0.00    +0.000 OA
ATOM     23  H   UNL     1      -5.106   6.705 117.890  0.00  0.00    +0.000 HD
ENDBRANCH  21  22
ENDBRANCH  17  19
ENDBRANCH  15  17
ENDBRANCH  14  15
ENDBRANCH   1  14
TORSDOF 10
ENDMDL
MODEL 5
REMARK VINA RESULT:      -5.7      2.923      4.507
REMARK  Name = Exametazime
REMARK  16 active torsions:
REMARK  status: ('A' for Active; 'I' for Inactive)
REMARK    1  A    between atoms: C_1  and  C_2
REMARK    2  A    between atoms: C_2  and  N_3
REMARK    3  A    between atoms: C_2  and  C_16
REMARK    4  A    between atoms: N_3  and  C_4
REMARK    5  A    between atoms: C_4  and  C_5
REMARK    6  A    between atoms: C_5  and  C_6
REMARK    7  A    between atoms: C_5  and  C_7
REMARK    8  A    between atoms: C_5  and  C_8
REMARK    9  A    between atoms: C_8  and  N_9
REMARK   10  A    between atoms: N_9  and  C_10
REMARK   11  A    between atoms: C_10  and  C_11
REMARK   12  A    between atoms: C_10  and  C_12
REMARK   13  A    between atoms: C_12  and  C_13
REMARK   14  A    between atoms: N_14  and  O_15
REMARK   15  A    between atoms: C_16  and  C_17
REMARK   16  A    between atoms: N_18  and  O_19
REMARK                            x       y       z     vdW  Elec       q    Type
REMARK                         _______ _______ _______ _____ _____    ______ ____
ROOT
ATOM      1  C   UNL     1      -9.550   4.252 131.225  0.00  0.00    +0.000 C 
ATOM      2  C   UNL     1     -10.570   3.220 130.694  0.00  0.00    +0.000 C 
ATOM      3  C   UNL     1      -8.960   3.798 132.569  0.00  0.00    +0.000 C 
ENDROOT
BRANCH   1   4
ATOM      4  C   UNL     1      -8.420   4.434 130.183  0.00  0.00    +0.000 C 
BRANCH   4   5
ATOM      5  N   UNL     1      -8.831   4.036 128.836  0.00  0.00    +0.000 NA
ATOM      6  H   UNL     1      -9.702   3.500 128.877  0.00  0.00    +0.000 HD
BRANCH   5   8
ATOM      7  C   UNL     1      -6.565   3.083 128.979  0.00  0.00    +0.000 C 
ATOM      8  C   UNL     1      -7.835   3.204 128.143  0.00  0.00    +0.000 C 
BRANCH   8   9
ATOM      9  C   UNL     1      -7.598   3.839 126.750  0.00  0.00    +0.000 C 
ATOM     10  C   UNL     1      -6.225   4.370 126.380  0.00  0.00    +0.000 C 
ATOM     11  N   UNL     1      -8.600   3.880 125.911  0.00  0.00    +0.000 NA
BRANCH  11  12
ATOM     12  O   UNL     1      -8.217   4.470 124.696  0.00  0.00    +0.000 OA
ATOM     13  H   UNL     1      -8.368   5.419 124.855  0.00  0.00    +0.000 HD
ENDBRANCH  11  12
ENDBRANCH   8   9
ENDBRANCH   5   8
ENDBRANCH   4   5
ENDBRANCH   1   4
BRANCH   1  14
ATOM     14  C   UNL     1     -10.247   5.628 131.381  0.00  0.00    +0.000 C 
BRANCH  14  15
ATOM     15  N   UNL     1     -11.266   5.845 130.348  0.00  0.00    +0.000 NA
ATOM     16  H   UNL     1     -12.182   5.733 130.779  0.00  0.00    +0.000 HD
BRANCH  15  17
ATOM     17  C   UNL     1     -11.192   7.180 129.727  0.00  0.00    +0.000 C 
ATOM     18  C   UNL     1     -12.463   7.918 130.147  0.00  0.00    +0.000 C 
BRANCH  17  19
ATOM     19  C   UNL     1     -11.012   7.049 128.191  0.00  0.00    +0.000 C 
ATOM     20  C   UNL     1     -12.127   7.472 127.258  0.00  0.00    +0.000 C 
ATOM     21  N   UNL     1      -9.879   6.603 127.732  0.00  0.00    +0.000 NA
BRANCH  21  22
ATOM     22  O   UNL     1      -9.882   6.472 126.339  0.00  0.00    +0.000 OA
ATOM     23  H   UNL     1     -10.165   7.358 126.047  0.00  0.00    +0.000 HD
ENDBRANCH  21  22
ENDBRANCH  17  19
ENDBRANCH  15  17
ENDBRANCH  14  15
ENDBRANCH   1  14
TORSDOF 10
ENDMDL
MODEL 6
REMARK VINA RESULT:      -5.7      8.467     10.966
REMARK  Name = Exametazime
REMARK  16 active torsions:
REMARK  status: ('A' for Active; 'I' for Inactive)
REMARK    1  A    between atoms: C_1  and  C_2
REMARK    2  A    between atoms: C_2  and  N_3
REMARK    3  A    between atoms: C_2  and  C_16
REMARK    4  A    between atoms: N_3  and  C_4
REMARK    5  A    between atoms: C_4  and  C_5
REMARK    6  A    between atoms: C_5  and  C_6
REMARK    7  A    between atoms: C_5  and  C_7
REMARK    8  A    between atoms: C_5  and  C_8
REMARK    9  A    between atoms: C_8  and  N_9
REMARK   10  A    between atoms: N_9  and  C_10
REMARK   11  A    between atoms: C_10  and  C_11
REMARK   12  A    between atoms: C_10  and  C_12
REMARK   13  A    between atoms: C_12  and  C_13
REMARK   14  A    between atoms: N_14  and  O_15
REMARK   15  A    between atoms: C_16  and  C_17
REMARK   16  A    between atoms: N_18  and  O_19
REMARK                            x       y       z     vdW  Elec       q    Type
REMARK                         _______ _______ _______ _____ _____    ______ ____
ROOT
ATOM      1  C   UNL     1      -8.444   1.595 123.580  0.00  0.00    +0.000 C 
ATOM      2  C   UNL     1      -9.647   1.317 122.650  0.00  0.00    +0.000 C 
ATOM      3  C   UNL     1      -7.261   0.680 123.233  0.00  0.00    +0.000 C 
ENDROOT
BRANCH   1   4
ATOM      4  C   UNL     1      -8.027   3.080 123.443  0.00  0.00    +0.000 C 
BRANCH   4   5
ATOM      5  N   UNL     1      -7.760   3.460 122.054  0.00  0.00    +0.000 NA
ATOM      6  H   UNL     1      -8.155   2.765 121.416  0.00  0.00    +0.000 HD
BRANCH   5   8
ATOM      7  C   UNL     1      -5.571   4.177 122.927  0.00  0.00    +0.000 C 
ATOM      8  C   UNL     1      -6.326   3.575 121.747  0.00  0.00    +0.000 C 
BRANCH   8   9
ATOM      9  C   UNL     1      -6.202   4.408 120.446  0.00  0.00    +0.000 C 
ATOM     10  C   UNL     1      -7.237   4.259 119.347  0.00  0.00    +0.000 C 
ATOM     11  N   UNL     1      -5.203   5.245 120.342  0.00  0.00    +0.000 NA
BRANCH  11  12
ATOM     12  O   UNL     1      -5.244   5.929 119.116  0.00  0.00    +0.000 OA
ATOM     13  H   UNL     1      -6.158   5.780 118.812  0.00  0.00    +0.000 HD
ENDBRANCH  11  12
ENDBRANCH   8   9
ENDBRANCH   5   8
ENDBRANCH   4   5
ENDBRANCH   1   4
BRANCH   1  14
ATOM     14  C   UNL     1      -8.877   1.382 125.054  0.00  0.00    +0.000 C 
BRANCH  14  15
ATOM     15  N   UNL     1      -9.806   0.256 125.193  0.00  0.00    +0.000 NA
ATOM     16  H   UNL     1     -10.044  -0.075 124.260  0.00  0.00    +0.000 HD
BRANCH  15  17
ATOM     17  C   UNL     1      -9.248  -0.867 125.968  0.00  0.00    +0.000 C 
ATOM     18  C   UNL     1      -8.041  -0.309 126.723  0.00  0.00    +0.000 C 
BRANCH  17  19
ATOM     19  C   UNL     1      -8.914  -2.056 125.028  0.00  0.00    +0.000 C 
ATOM     20  C   UNL     1      -7.861  -3.068 125.430  0.00  0.00    +0.000 C 
ATOM     21  N   UNL     1      -9.577  -2.175 123.916  0.00  0.00    +0.000 NA
BRANCH  21  22
ATOM     22  O   UNL     1      -9.126  -3.247 123.137  0.00  0.00    +0.000 OA
ATOM     23  H   UNL     1      -8.478  -2.817 122.549  0.00  0.00    +0.000 HD
ENDBRANCH  21  22
ENDBRANCH  17  19
ENDBRANCH  15  17
ENDBRANCH  14  15
ENDBRANCH   1  14
TORSDOF 10
ENDMDL
MODEL 7
REMARK VINA RESULT:      -5.6      7.417     10.494
REMARK  Name = Exametazime
REMARK  16 active torsions:
REMARK  status: ('A' for Active; 'I' for Inactive)
REMARK    1  A    between atoms: C_1  and  C_2
REMARK    2  A    between atoms: C_2  and  N_3
REMARK    3  A    between atoms: C_2  and  C_16
REMARK    4  A    between atoms: N_3  and  C_4
REMARK    5  A    between atoms: C_4  and  C_5
REMARK    6  A    between atoms: C_5  and  C_6
REMARK    7  A    between atoms: C_5  and  C_7
REMARK    8  A    between atoms: C_5  and  C_8
REMARK    9  A    between atoms: C_8  and  N_9
REMARK   10  A    between atoms: N_9  and  C_10
REMARK   11  A    between atoms: C_10  and  C_11
REMARK   12  A    between atoms: C_10  and  C_12
REMARK   13  A    between atoms: C_12  and  C_13
REMARK   14  A    between atoms: N_14  and  O_15
REMARK   15  A    between atoms: C_16  and  C_17
REMARK   16  A    between atoms: N_18  and  O_19
REMARK                            x       y       z     vdW  Elec       q    Type
REMARK                         _______ _______ _______ _____ _____    ______ ____
ROOT
ATOM      1  C   UNL     1      -8.476  -2.448 124.097  0.00  0.00    +0.000 C 
ATOM      2  C   UNL     1      -9.546  -3.369 123.469  0.00  0.00    +0.000 C 
ATOM      3  C   UNL     1      -7.081  -3.083 124.001  0.00  0.00    +0.000 C 
ENDROOT
BRANCH   1   4
ATOM      4  C   UNL     1      -8.489  -1.082 123.369  0.00  0.00    +0.000 C 
BRANCH   4   5
ATOM      5  N   UNL     1      -8.692   0.040 124.287  0.00  0.00    +0.000 NA
ATOM      6  H   UNL     1      -9.002  -0.303 125.200  0.00  0.00    +0.000 HD
BRANCH   5   8
ATOM      7  C   UNL     1     -10.274   0.566 122.475  0.00  0.00    +0.000 C 
ATOM      8  C   UNL     1      -9.696   1.007 123.815  0.00  0.00    +0.000 C 
BRANCH   8   9
ATOM      9  C   UNL     1      -9.008   2.394 123.765  0.00  0.00    +0.000 C 
ATOM     10  C   UNL     1      -8.411   2.899 122.465  0.00  0.00    +0.000 C 
ATOM     11  N   UNL     1      -8.981   3.110 124.858  0.00  0.00    +0.000 NA
BRANCH  11  12
ATOM     12  O   UNL     1      -8.338   4.339 124.640  0.00  0.00    +0.000 OA
ATOM     13  H   UNL     1      -9.063   4.915 124.336  0.00  0.00    +0.000 HD
ENDBRANCH  11  12
ENDBRANCH   8   9
ENDBRANCH   5   8
ENDBRANCH   4   5
ENDBRANCH   1   4
BRANCH   1  14
ATOM     14  C   UNL     1      -8.843  -2.174 125.579  0.00  0.00    +0.000 C 
BRANCH  14  15
ATOM     15  N   UNL     1      -7.651  -1.967 126.407  0.00  0.00    +0.000 NA
ATOM     16  H   UNL     1      -7.620  -0.985 126.678  0.00  0.00    +0.000 HD
BRANCH  15  17
ATOM     17  C   UNL     1      -7.637  -2.797 127.626  0.00  0.00    +0.000 C 
ATOM     18  C   UNL     1      -8.803  -3.776 127.490  0.00  0.00    +0.000 C 
BRANCH  17  19
ATOM     19  C   UNL     1      -7.706  -1.899 128.889  0.00  0.00    +0.000 C 
ATOM     20  C   UNL     1      -7.903  -2.525 130.254  0.00  0.00    +0.000 C 
ATOM     21  N   UNL     1      -7.560  -0.614 128.749  0.00  0.00    +0.000 NA
BRANCH  21  22
ATOM     22  O   UNL     1      -7.715   0.076 129.957  0.00  0.00    +0.000 OA
ATOM     23  H   UNL     1      -8.420  -0.433 130.398  0.00  0.00    +0.000 HD
ENDBRANCH  21  22
ENDBRANCH  17  19
ENDBRANCH  15  17
ENDBRANCH  14  15
ENDBRANCH   1  14
TORSDOF 10
ENDMDL
MODEL 8
REMARK VINA RESULT:      -5.6      8.323     10.871
REMARK  Name = Exametazime
REMARK  16 active torsions:
REMARK  status: ('A' for Active; 'I' for Inactive)
REMARK    1  A    between atoms: C_1  and  C_2
REMARK    2  A    between atoms: C_2  and  N_3
REMARK    3  A    between atoms: C_2  and  C_16
REMARK    4  A    between atoms: N_3  and  C_4
REMARK    5  A    between atoms: C_4  and  C_5
REMARK    6  A    between atoms: C_5  and  C_6
REMARK    7  A    between atoms: C_5  and  C_7
REMARK    8  A    between atoms: C_5  and  C_8
REMARK    9  A    between atoms: C_8  and  N_9
REMARK   10  A    between atoms: N_9  and  C_10
REMARK   11  A    between atoms: C_10  and  C_11
REMARK   12  A    between atoms: C_10  and  C_12
REMARK   13  A    between atoms: C_12  and  C_13
REMARK   14  A    between atoms: N_14  and  O_15
REMARK   15  A    between atoms: C_16  and  C_17
REMARK   16  A    between atoms: N_18  and  O_19
REMARK                            x       y       z     vdW  Elec       q    Type
REMARK                         _______ _______ _______ _____ _____    ______ ____
ROOT
ATOM      1  C   UNL     1      -6.841   2.866 124.774  0.00  0.00    +0.000 C 
ATOM      2  C   UNL     1      -5.557   3.692 125.017  0.00  0.00    +0.000 C 
ATOM      3  C   UNL     1      -8.091   3.667 125.169  0.00  0.00    +0.000 C 
ENDROOT
BRANCH   1   4
ATOM      4  C   UNL     1      -6.914   2.469 123.280  0.00  0.00    +0.000 C 
BRANCH   4   5
ATOM      5  N   UNL     1      -7.287   3.593 122.419  0.00  0.00    +0.000 NA
ATOM      6  H   UNL     1      -8.296   3.589 122.252  0.00  0.00    +0.000 HD
BRANCH   5   8
ATOM      7  C   UNL     1      -5.393   4.469 121.111  0.00  0.00    +0.000 C 
ATOM      8  C   UNL     1      -6.624   3.568 121.106  0.00  0.00    +0.000 C 
BRANCH   8   9
ATOM      9  C   UNL     1      -7.682   3.975 120.050  0.00  0.00    +0.000 C 
ATOM     10  C   UNL     1      -7.243   4.516 118.703  0.00  0.00    +0.000 C 
ATOM     11  N   UNL     1      -8.945   3.816 120.349  0.00  0.00    +0.000 NA
BRANCH  11  12
ATOM     12  O   UNL     1      -9.769   4.216 119.285  0.00  0.00    +0.000 OA
ATOM     13  H   UNL     1      -9.600   3.536 118.608  0.00  0.00    +0.000 HD
ENDBRANCH  11  12
ENDBRANCH   8   9
ENDBRANCH   5   8
ENDBRANCH   4   5
ENDBRANCH   1   4
BRANCH   1  14
ATOM     14  C   UNL     1      -6.764   1.550 125.589  0.00  0.00    +0.000 C 
BRANCH  14  15
ATOM     15  N   UNL     1      -7.904   0.669 125.312  0.00  0.00    +0.000 NA
ATOM     16  H   UNL     1      -8.244   0.876 124.375  0.00  0.00    +0.000 HD
BRANCH  15  17
ATOM     17  C   UNL     1      -7.565  -0.764 125.390  0.00  0.00    +0.000 C 
ATOM     18  C   UNL     1      -6.042  -0.850 125.289  0.00  0.00    +0.000 C 
BRANCH  17  19
ATOM     19  C   UNL     1      -8.319  -1.555 124.288  0.00  0.00    +0.000 C 
ATOM     20  C   UNL     1      -7.810  -1.543 122.862  0.00  0.00    +0.000 C 
ATOM     21  N   UNL     1      -9.369  -2.246 124.626  0.00  0.00    +0.000 NA
BRANCH  21  22
ATOM     22  O   UNL     1      -9.988  -2.849 123.525  0.00  0.00    +0.000 OA
ATOM     23  H   UNL     1     -10.850  -2.397 123.498  0.00  0.00    +0.000 HD
ENDBRANCH  21  22
ENDBRANCH  17  19
ENDBRANCH  15  17
ENDBRANCH  14  15
ENDBRANCH   1  14
TORSDOF 10
ENDMDL
MODEL 9
REMARK VINA RESULT:      -5.6      2.803      5.856
REMARK  Name = Exametazime
REMARK  16 active torsions:
REMARK  status: ('A' for Active; 'I' for Inactive)
REMARK    1  A    between atoms: C_1  and  C_2
REMARK    2  A    between atoms: C_2  and  N_3
REMARK    3  A    between atoms: C_2  and  C_16
REMARK    4  A    between atoms: N_3  and  C_4
REMARK    5  A    between atoms: C_4  and  C_5
REMARK    6  A    between atoms: C_5  and  C_6
REMARK    7  A    between atoms: C_5  and  C_7
REMARK    8  A    between atoms: C_5  and  C_8
REMARK    9  A    between atoms: C_8  and  N_9
REMARK   10  A    between atoms: N_9  and  C_10
REMARK   11  A    between atoms: C_10  and  C_11
REMARK   12  A    between atoms: C_10  and  C_12
REMARK   13  A    between atoms: C_12  and  C_13
REMARK   14  A    between atoms: N_14  and  O_15
REMARK   15  A    between atoms: C_16  and  C_17
REMARK   16  A    between atoms: N_18  and  O_19
REMARK                            x       y       z     vdW  Elec       q    Type
REMARK                         _______ _______ _______ _____ _____    ______ ____
ROOT
ATOM      1  C   UNL     1      -9.833   4.965 131.097  0.00  0.00    +0.000 C 
ATOM      2  C   UNL     1      -9.405   4.346 132.447  0.00  0.00    +0.000 C 
ATOM      3  C   UNL     1     -10.961   4.146 130.452  0.00  0.00    +0.000 C 
ENDROOT
BRANCH   1   4
ATOM      4  C   UNL     1     -10.300   6.422 131.330  0.00  0.00    +0.000 C 
BRANCH   4   5
ATOM      5  N   UNL     1     -10.267   7.223 130.106  0.00  0.00    +0.000 NA
ATOM      6  H   UNL     1      -9.593   7.987 130.202  0.00  0.00    +0.000 HD
BRANCH   5   8
ATOM      7  C   UNL     1     -12.609   7.477 130.823  0.00  0.00    +0.000 C 
ATOM      8  C   UNL     1     -11.567   7.823 129.765  0.00  0.00    +0.000 C 
BRANCH   8   9
ATOM      9  C   UNL     1     -11.941   7.330 128.345  0.00  0.00    +0.000 C 
ATOM     10  C   UNL     1     -13.380   7.402 127.870  0.00  0.00    +0.000 C 
ATOM     11  N   UNL     1     -10.985   6.878 127.576  0.00  0.00    +0.000 NA
BRANCH  11  12
ATOM     12  O   UNL     1     -11.486   6.487 126.324  0.00  0.00    +0.000 OA
ATOM     13  H   UNL     1     -12.336   6.962 126.271  0.00  0.00    +0.000 HD
ENDBRANCH  11  12
ENDBRANCH   8   9
ENDBRANCH   5   8
ENDBRANCH   4   5
ENDBRANCH   1   4
BRANCH   1  14
ATOM     14  C   UNL     1      -8.606   5.029 130.151  0.00  0.00    +0.000 C 
BRANCH  14  15
ATOM     15  N   UNL     1      -8.962   4.690 128.770  0.00  0.00    +0.000 NA
ATOM     16  H   UNL     1      -8.939   5.547 128.218  0.00  0.00    +0.000 HD
BRANCH  15  17
ATOM     17  C   UNL     1      -8.051   3.706 128.158  0.00  0.00    +0.000 C 
ATOM     18  C   UNL     1      -7.230   3.113 129.303  0.00  0.00    +0.000 C 
BRANCH  17  19
ATOM     19  C   UNL     1      -7.199   4.377 127.048  0.00  0.00    +0.000 C 
ATOM     20  C   UNL     1      -7.764   4.538 125.652  0.00  0.00    +0.000 C 
ATOM     21  N   UNL     1      -6.016   4.820 127.355  0.00  0.00    +0.000 NA
BRANCH  21  22
ATOM     22  O   UNL     1      -5.335   5.336 126.246  0.00  0.00    +0.000 OA
ATOM     23  H   UNL     1      -5.987   5.223 125.531  0.00  0.00    +0.000 HD
ENDBRANCH  21  22
ENDBRANCH  17  19
ENDBRANCH  15  17
ENDBRANCH  14  15
ENDBRANCH   1  14
TORSDOF 10
ENDMDL
