MODEL 1
REMARK VINA RESULT:      -8.1      0.000      0.000
REMARK  Name = Exemestane
REMARK  2 active torsions:
REMARK  status: ('A' for Active; 'I' for Inactive)
REMARK    1  A    between atoms: C_7  and  C_8
REMARK    2  A    between atoms: C_24  and  C_25
REMARK                            x       y       z     vdW  Elec       q    Type
REMARK                         _______ _______ _______ _____ _____    ______ ____
ROOT
ATOM      1  C   UNL     1      -7.969  -1.052 122.969  0.00  0.00    +0.000 C 
ATOM      2  C   UNL     1      -6.639  -1.639 123.139  0.00  0.00    +0.000 C 
ATOM      3  C   UNL     1      -6.896  -1.130 124.509  0.00  0.00    +0.000 C 
ATOM      4  C   UNL     1      -8.785  -0.763 124.320  0.00  0.00    +0.000 C 
ATOM      5  O   UNL     1      -9.833  -0.112 124.380  0.00  0.00    +0.000 OA
ATOM      6  C   UNL     1      -8.779  -2.051 124.344  0.00  0.00    +0.000 C 
ATOM      7  C   UNL     1      -9.396  -3.283 123.890  0.00  0.00    +0.000 C 
ATOM      8  C   UNL     1      -8.704  -1.419 126.040  0.00  0.00    +0.000 C 
ATOM      9  C   UNL     1      -8.343   0.390 126.201  0.00  0.00    +0.000 C 
ATOM     10  C   UNL     1      -7.383   1.193 125.029  0.00  0.00    +0.000 C 
ATOM     11  C   UNL     1      -7.713   0.801 123.341  0.00  0.00    +0.000 C 
ATOM     12  C   UNL     1      -6.657   1.381 122.431  0.00  0.00    +0.000 C 
ATOM     13  C   UNL     1      -6.406   2.826 122.743  0.00  0.00    +0.000 C 
ATOM     14  C   UNL     1      -6.547   3.750 121.783  0.00  0.00    +0.000 C 
ATOM     15  C   UNL     1      -6.161   3.232 124.122  0.00  0.00    +0.000 C 
ATOM     16  C   UNL     1      -5.174   4.079 124.468  0.00  0.00    +0.000 C 
ATOM     17  C   UNL     1      -5.220   4.432 125.901  0.00  0.00    +0.000 C 
ATOM     18  O   UNL     1      -5.531   5.522 126.361  0.00  0.00    +0.000 OA
ATOM     19  C   UNL     1      -4.963   3.228 126.796  0.00  0.00    +0.000 C 
ATOM     20  C   UNL     1      -6.233   2.802 126.616  0.00  0.00    +0.000 C 
ATOM     21  C   UNL     1      -7.081   2.696 125.247  0.00  0.00    +0.000 C 
ATOM     22  C   UNL     1      -8.437   3.393 125.105  0.00  0.00    +0.000 C 
ENDROOT
TORSDOF 0
ENDMDL
MODEL 2
REMARK VINA RESULT:      -8.0      3.921      6.753
REMARK  Name = Exemestane
REMARK  2 active torsions:
REMARK  status: ('A' for Active; 'I' for Inactive)
REMARK    1  A    between atoms: C_7  and  C_8
REMARK    2  A    between atoms: C_24  and  C_25
REMARK                            x       y       z     vdW  Elec       q    Type
REMARK                         _______ _______ _______ _____ _____    ______ ____
ROOT
ATOM      1  C   UNL     1      -7.168  -2.850 130.415  0.00  0.00    +0.000 C 
ATOM      2  C   UNL     1      -6.388  -4.082 130.297  0.00  0.00    +0.000 C 
ATOM      3  C   UNL     1      -5.550  -3.146 129.507  0.00  0.00    +0.000 C 
ATOM      4  C   UNL     1      -6.394  -1.493 130.049  0.00  0.00    +0.000 C 
ATOM      5  O   UNL     1      -6.935  -0.391 129.916  0.00  0.00    +0.000 OA
ATOM      6  C   UNL     1      -5.762  -1.818 131.123  0.00  0.00    +0.000 C 
ATOM      7  C   UNL     1      -5.726  -1.792 132.573  0.00  0.00    +0.000 C 
ATOM      8  C   UNL     1      -4.619  -1.000 129.980  0.00  0.00    +0.000 C 
ATOM      9  C   UNL     1      -5.244  -0.780 128.252  0.00  0.00    +0.000 C 
ATOM     10  C   UNL     1      -6.346  -1.905 127.575  0.00  0.00    +0.000 C 
ATOM     11  C   UNL     1      -7.665  -2.438 128.619  0.00  0.00    +0.000 C 
ATOM     12  C   UNL     1      -8.416  -3.593 128.002  0.00  0.00    +0.000 C 
ATOM     13  C   UNL     1      -8.771  -3.307 126.573  0.00  0.00    +0.000 C 
ATOM     14  C   UNL     1     -10.052  -3.356 126.182  0.00  0.00    +0.000 C 
ATOM     15  C   UNL     1      -7.741  -2.829 125.658  0.00  0.00    +0.000 C 
ATOM     16  C   UNL     1      -7.585  -3.321 124.415  0.00  0.00    +0.000 C 
ATOM     17  C   UNL     1      -6.564  -2.581 123.647  0.00  0.00    +0.000 C 
ATOM     18  O   UNL     1      -6.779  -1.836 122.701  0.00  0.00    +0.000 OA
ATOM     19  C   UNL     1      -5.174  -2.732 124.249  0.00  0.00    +0.000 C 
ATOM     20  C   UNL     1      -5.466  -1.816 125.199  0.00  0.00    +0.000 C 
ATOM     21  C   UNL     1      -6.794  -1.689 126.108  0.00  0.00    +0.000 C 
ATOM     22  C   UNL     1      -7.610  -0.394 126.135  0.00  0.00    +0.000 C 
ENDROOT
TORSDOF 0
ENDMDL
MODEL 3
REMARK VINA RESULT:      -7.7      3.921      5.833
REMARK  Name = Exemestane
REMARK  2 active torsions:
REMARK  status: ('A' for Active; 'I' for Inactive)
REMARK    1  A    between atoms: C_7  and  C_8
REMARK    2  A    between atoms: C_24  and  C_25
REMARK                            x       y       z     vdW  Elec       q    Type
REMARK                         _______ _______ _______ _____ _____    ______ ____
ROOT
ATOM      1  C   UNL     1      -6.878  -1.104 124.858  0.00  0.00    +0.000 C 
ATOM      2  C   UNL     1      -5.772  -1.983 124.477  0.00  0.00    +0.000 C 
ATOM      3  C   UNL     1      -6.575  -2.899 125.325  0.00  0.00    +0.000 C 
ATOM      4  C   UNL     1      -8.184  -1.833 125.437  0.00  0.00    +0.000 C 
ATOM      5  O   UNL     1      -9.133  -1.251 125.973  0.00  0.00    +0.000 OA
ATOM      6  C   UNL     1      -8.235  -2.240 124.216  0.00  0.00    +0.000 C 
ATOM      7  C   UNL     1      -8.640  -1.957 122.852  0.00  0.00    +0.000 C 
ATOM      8  C   UNL     1      -8.875  -3.537 125.307  0.00  0.00    +0.000 C 
ATOM      9  C   UNL     1      -8.554  -3.288 127.113  0.00  0.00    +0.000 C 
ATOM     10  C   UNL     1      -7.156  -2.449 127.641  0.00  0.00    +0.000 C 
ATOM     11  C   UNL     1      -6.741  -0.979 126.757  0.00  0.00    +0.000 C 
ATOM     12  C   UNL     1      -5.377  -0.471 127.156  0.00  0.00    +0.000 C 
ATOM     13  C   UNL     1      -5.234  -0.414 128.648  0.00  0.00    +0.000 C 
ATOM     14  C   UNL     1      -4.915   0.743 129.243  0.00  0.00    +0.000 C 
ATOM     15  C   UNL     1      -5.591  -1.578 129.449  0.00  0.00    +0.000 C 
ATOM     16  C   UNL     1      -4.820  -2.038 130.451  0.00  0.00    +0.000 C 
ATOM     17  C   UNL     1      -5.465  -3.142 131.190  0.00  0.00    +0.000 C 
ATOM     18  O   UNL     1      -5.905  -3.081 132.330  0.00  0.00    +0.000 OA
ATOM     19  C   UNL     1      -5.661  -4.375 130.319  0.00  0.00    +0.000 C 
ATOM     20  C   UNL     1      -6.744  -3.814 129.738  0.00  0.00    +0.000 C 
ATOM     21  C   UNL     1      -6.924  -2.315 129.167  0.00  0.00    +0.000 C 
ATOM     22  C   UNL     1      -8.061  -1.417 129.659  0.00  0.00    +0.000 C 
ENDROOT
TORSDOF 0
ENDMDL
MODEL 4
REMARK VINA RESULT:      -7.6      3.456      5.665
REMARK  Name = Exemestane
REMARK  2 active torsions:
REMARK  status: ('A' for Active; 'I' for Inactive)
REMARK    1  A    between atoms: C_7  and  C_8
REMARK    2  A    between atoms: C_24  and  C_25
REMARK                            x       y       z     vdW  Elec       q    Type
REMARK                         _______ _______ _______ _____ _____    ______ ____
ROOT
ATOM      1  C   UNL     1      -8.283  -3.125 125.573  0.00  0.00    +0.000 C 
ATOM      2  C   UNL     1      -9.722  -2.953 125.774  0.00  0.00    +0.000 C 
ATOM      3  C   UNL     1      -9.257  -1.547 125.877  0.00  0.00    +0.000 C 
ATOM      4  C   UNL     1      -7.465  -1.796 125.197  0.00  0.00    +0.000 C 
ATOM      5  O   UNL     1      -6.233  -1.716 125.171  0.00  0.00    +0.000 OA
ATOM      6  C   UNL     1      -8.163  -1.930 124.123  0.00  0.00    +0.000 C 
ATOM      7  C   UNL     1      -8.297  -2.565 122.826  0.00  0.00    +0.000 C 
ATOM      8  C   UNL     1      -7.918  -0.168 124.464  0.00  0.00    +0.000 C 
ATOM      9  C   UNL     1      -7.251   0.233 126.144  0.00  0.00    +0.000 C 
ATOM     10  C   UNL     1      -7.606  -0.775 127.484  0.00  0.00    +0.000 C 
ATOM     11  C   UNL     1      -7.508  -2.514 127.206  0.00  0.00    +0.000 C 
ATOM     12  C   UNL     1      -8.069  -3.285 128.377  0.00  0.00    +0.000 C 
ATOM     13  C   UNL     1      -7.508  -2.785 129.675  0.00  0.00    +0.000 C 
ATOM     14  C   UNL     1      -6.875  -3.632 130.498  0.00  0.00    +0.000 C 
ATOM     15  C   UNL     1      -7.523  -1.355 129.961  0.00  0.00    +0.000 C 
ATOM     16  C   UNL     1      -7.905  -0.853 131.149  0.00  0.00    +0.000 C 
ATOM     17  C   UNL     1      -7.703   0.607 131.228  0.00  0.00    +0.000 C 
ATOM     18  O   UNL     1      -6.863   1.179 131.909  0.00  0.00    +0.000 OA
ATOM     19  C   UNL     1      -8.584   1.361 130.241  0.00  0.00    +0.000 C 
ATOM     20  C   UNL     1      -7.739   1.060 129.230  0.00  0.00    +0.000 C 
ATOM     21  C   UNL     1      -7.056  -0.358 128.871  0.00  0.00    +0.000 C 
ATOM     22  C   UNL     1      -5.536  -0.490 128.745  0.00  0.00    +0.000 C 
ENDROOT
TORSDOF 0
ENDMDL
MODEL 5
REMARK VINA RESULT:      -7.4      6.654      9.028
REMARK  Name = Exemestane
REMARK  2 active torsions:
REMARK  status: ('A' for Active; 'I' for Inactive)
REMARK    1  A    between atoms: C_7  and  C_8
REMARK    2  A    between atoms: C_24  and  C_25
REMARK                            x       y       z     vdW  Elec       q    Type
REMARK                         _______ _______ _______ _____ _____    ______ ____
ROOT
ATOM      1  C   UNL     1      -5.148   3.709 130.792  0.00  0.00    +0.000 C 
ATOM      2  C   UNL     1      -5.251   3.652 129.334  0.00  0.00    +0.000 C 
ATOM      3  C   UNL     1      -5.737   5.030 129.593  0.00  0.00    +0.000 C 
ATOM      4  C   UNL     1      -5.184   5.177 131.440  0.00  0.00    +0.000 C 
ATOM      5  O   UNL     1      -5.291   5.408 132.648  0.00  0.00    +0.000 OA
ATOM      6  C   UNL     1      -4.051   5.239 130.831  0.00  0.00    +0.000 C 
ATOM      7  C   UNL     1      -2.631   4.942 130.862  0.00  0.00    +0.000 C 
ATOM      8  C   UNL     1      -4.832   6.873 130.810  0.00  0.00    +0.000 C 
ATOM      9  C   UNL     1      -6.613   6.910 131.315  0.00  0.00    +0.000 C 
ATOM     10  C   UNL     1      -7.628   5.560 131.024  0.00  0.00    +0.000 C 
ATOM     11  C   UNL     1      -6.944   3.972 131.378  0.00  0.00    +0.000 C 
ATOM     12  C   UNL     1      -7.835   2.868 130.861  0.00  0.00    +0.000 C 
ATOM     13  C   UNL     1      -9.262   3.085 131.270  0.00  0.00    +0.000 C 
ATOM     14  C   UNL     1      -9.907   2.139 131.965  0.00  0.00    +0.000 C 
ATOM     15  C   UNL     1      -9.885   4.384 131.042  0.00  0.00    +0.000 C 
ATOM     16  C   UNL     1     -11.120   4.519 130.524  0.00  0.00    +0.000 C 
ATOM     17  C   UNL     1     -11.571   5.924 130.518  0.00  0.00    +0.000 C 
ATOM     18  O   UNL     1     -12.445   6.400 131.229  0.00  0.00    +0.000 OA
ATOM     19  C   UNL     1     -10.722   6.794 129.601  0.00  0.00    +0.000 C 
ATOM     20  C   UNL     1      -9.749   6.861 130.537  0.00  0.00    +0.000 C 
ATOM     21  C   UNL     1      -9.119   5.673 131.429  0.00  0.00    +0.000 C 
ATOM     22  C   UNL     1      -9.104   5.760 132.957  0.00  0.00    +0.000 C 
ENDROOT
TORSDOF 0
ENDMDL
MODEL 6
REMARK VINA RESULT:      -7.4      2.009      5.299
REMARK  Name = Exemestane
REMARK  2 active torsions:
REMARK  status: ('A' for Active; 'I' for Inactive)
REMARK    1  A    between atoms: C_7  and  C_8
REMARK    2  A    between atoms: C_24  and  C_25
REMARK                            x       y       z     vdW  Elec       q    Type
REMARK                         _______ _______ _______ _____ _____    ______ ____
ROOT
ATOM      1  C   UNL     1      -4.645   3.934 126.006  0.00  0.00    +0.000 C 
ATOM      2  C   UNL     1      -5.592   4.940 126.488  0.00  0.00    +0.000 C 
ATOM      3  C   UNL     1      -6.304   3.690 126.854  0.00  0.00    +0.000 C 
ATOM      4  C   UNL     1      -4.846   2.450 126.582  0.00  0.00    +0.000 C 
ATOM      5  O   UNL     1      -4.265   1.447 126.155  0.00  0.00    +0.000 OA
ATOM      6  C   UNL     1      -4.471   3.050 127.659  0.00  0.00    +0.000 C 
ATOM      7  C   UNL     1      -3.365   3.528 128.467  0.00  0.00    +0.000 C 
ATOM      8  C   UNL     1      -5.658   1.748 128.081  0.00  0.00    +0.000 C 
ATOM      9  C   UNL     1      -6.579   1.016 126.651  0.00  0.00    +0.000 C 
ATOM     10  C   UNL     1      -6.922   1.961 125.262  0.00  0.00    +0.000 C 
ATOM     11  C   UNL     1      -5.615   2.985 124.665  0.00  0.00    +0.000 C 
ATOM     12  C   UNL     1      -6.109   3.934 123.600  0.00  0.00    +0.000 C 
ATOM     13  C   UNL     1      -6.918   3.212 122.563  0.00  0.00    +0.000 C 
ATOM     14  C   UNL     1      -6.560   3.279 121.273  0.00  0.00    +0.000 C 
ATOM     15  C   UNL     1      -7.993   2.321 122.982  0.00  0.00    +0.000 C 
ATOM     16  C   UNL     1      -9.209   2.323 122.404  0.00  0.00    +0.000 C 
ATOM     17  C   UNL     1     -10.071   1.241 122.917  0.00  0.00    +0.000 C 
ATOM     18  O   UNL     1     -10.417   0.244 122.297  0.00  0.00    +0.000 OA
ATOM     19  C   UNL     1     -10.397   1.420 124.394  0.00  0.00    +0.000 C 
ATOM     20  C   UNL     1      -9.182   0.937 124.738  0.00  0.00    +0.000 C 
ATOM     21  C   UNL     1      -7.736   1.303 124.120  0.00  0.00    +0.000 C 
ATOM     22  C   UNL     1      -6.818   0.211 123.565  0.00  0.00    +0.000 C 
ENDROOT
TORSDOF 0
ENDMDL
MODEL 7
REMARK VINA RESULT:      -7.3      3.435      5.458
REMARK  Name = Exemestane
REMARK  2 active torsions:
REMARK  status: ('A' for Active; 'I' for Inactive)
REMARK    1  A    between atoms: C_7  and  C_8
REMARK    2  A    between atoms: C_24  and  C_25
REMARK                            x       y       z     vdW  Elec       q    Type
REMARK                         _______ _______ _______ _____ _____    ______ ____
ROOT
ATOM      1  C   UNL     1      -8.824   0.262 125.121  0.00  0.00    +0.000 C 
ATOM      2  C   UNL     1      -7.579   0.896 124.688  0.00  0.00    +0.000 C 
ATOM      3  C   UNL     1      -7.122  -0.501 124.896  0.00  0.00    +0.000 C 
ATOM      4  C   UNL     1      -8.857  -1.341 125.047  0.00  0.00    +0.000 C 
ATOM      5  O   UNL     1      -9.745  -2.047 125.535  0.00  0.00    +0.000 OA
ATOM      6  C   UNL     1      -8.817  -1.069 123.788  0.00  0.00    +0.000 C 
ATOM      7  C   UNL     1      -9.556  -0.707 122.594  0.00  0.00    +0.000 C 
ATOM      8  C   UNL     1      -7.912  -2.607 124.098  0.00  0.00    +0.000 C 
ATOM      9  C   UNL     1      -7.552  -2.975 125.877  0.00  0.00    +0.000 C 
ATOM     10  C   UNL     1      -7.325  -1.700 127.000  0.00  0.00    +0.000 C 
ATOM     11  C   UNL     1      -8.450  -0.345 126.890  0.00  0.00    +0.000 C 
ATOM     12  C   UNL     1      -8.004   0.805 127.759  0.00  0.00    +0.000 C 
ATOM     13  C   UNL     1      -7.656   0.338 129.142  0.00  0.00    +0.000 C 
ATOM     14  C   UNL     1      -8.277   0.873 130.202  0.00  0.00    +0.000 C 
ATOM     15  C   UNL     1      -6.759  -0.799 129.312  0.00  0.00    +0.000 C 
ATOM     16  C   UNL     1      -5.747  -0.803 130.199  0.00  0.00    +0.000 C 
ATOM     17  C   UNL     1      -5.075  -2.115 130.271  0.00  0.00    +0.000 C 
ATOM     18  O   UNL     1      -5.133  -2.900 131.208  0.00  0.00    +0.000 OA
ATOM     19  C   UNL     1      -4.382  -2.475 128.964  0.00  0.00    +0.000 C 
ATOM     20  C   UNL     1      -5.563  -2.844 128.420  0.00  0.00    +0.000 C 
ATOM     21  C   UNL     1      -6.981  -2.075 128.463  0.00  0.00    +0.000 C 
ATOM     22  C   UNL     1      -8.237  -2.770 128.994  0.00  0.00    +0.000 C 
ENDROOT
TORSDOF 0
ENDMDL
MODEL 8
REMARK VINA RESULT:      -7.1      2.245      3.525
REMARK  Name = Exemestane
REMARK  2 active torsions:
REMARK  status: ('A' for Active; 'I' for Inactive)
REMARK    1  A    between atoms: C_7  and  C_8
REMARK    2  A    between atoms: C_24  and  C_25
REMARK                            x       y       z     vdW  Elec       q    Type
REMARK                         _______ _______ _______ _____ _____    ______ ____
ROOT
ATOM      1  C   UNL     1      -9.105  -0.901 125.007  0.00  0.00    +0.000 C 
ATOM      2  C   UNL     1      -9.236   0.128 123.976  0.00  0.00    +0.000 C 
ATOM      3  C   UNL     1      -7.763  -0.043 124.011  0.00  0.00    +0.000 C 
ATOM      4  C   UNL     1      -7.697  -1.670 125.053  0.00  0.00    +0.000 C 
ATOM      5  O   UNL     1      -7.344  -2.432 125.959  0.00  0.00    +0.000 OA
ATOM      6  C   UNL     1      -8.144  -2.109 123.928  0.00  0.00    +0.000 C 
ATOM      7  C   UNL     1      -8.980  -3.075 123.240  0.00  0.00    +0.000 C 
ATOM      8  C   UNL     1      -6.342  -1.953 123.837  0.00  0.00    +0.000 C 
ATOM      9  C   UNL     1      -5.554  -1.007 125.219  0.00  0.00    +0.000 C 
ATOM     10  C   UNL     1      -6.405   0.258 126.003  0.00  0.00    +0.000 C 
ATOM     11  C   UNL     1      -8.098  -0.054 126.388  0.00  0.00    +0.000 C 
ATOM     12  C   UNL     1      -8.793   1.204 126.850  0.00  0.00    +0.000 C 
ATOM     13  C   UNL     1      -7.990   1.912 127.902  0.00  0.00    +0.000 C 
ATOM     14  C   UNL     1      -8.538   2.171 129.097  0.00  0.00    +0.000 C 
ATOM     15  C   UNL     1      -6.574   2.174 127.670  0.00  0.00    +0.000 C 
ATOM     16  C   UNL     1      -6.000   3.362 127.935  0.00  0.00    +0.000 C 
ATOM     17  C   UNL     1      -4.537   3.329 127.740  0.00  0.00    +0.000 C 
ATOM     18  O   UNL     1      -3.694   3.377 128.626  0.00  0.00    +0.000 OA
ATOM     19  C   UNL     1      -4.159   3.086 126.286  0.00  0.00    +0.000 C 
ATOM     20  C   UNL     1      -4.409   1.765 126.423  0.00  0.00    +0.000 C 
ATOM     21  C   UNL     1      -5.672   1.041 127.121  0.00  0.00    +0.000 C 
ATOM     22  C   UNL     1      -5.473   0.023 128.246  0.00  0.00    +0.000 C 
ENDROOT
TORSDOF 0
ENDMDL
MODEL 9
REMARK VINA RESULT:      -7.1      4.807      7.618
REMARK  Name = Exemestane
REMARK  2 active torsions:
REMARK  status: ('A' for Active; 'I' for Inactive)
REMARK    1  A    between atoms: C_7  and  C_8
REMARK    2  A    between atoms: C_24  and  C_25
REMARK                            x       y       z     vdW  Elec       q    Type
REMARK                         _______ _______ _______ _____ _____    ______ ____
ROOT
ATOM      1  C   UNL     1      -4.368   4.098 127.132  0.00  0.00    +0.000 C 
ATOM      2  C   UNL     1      -2.967   3.958 126.735  0.00  0.00    +0.000 C 
ATOM      3  C   UNL     1      -2.954   3.267 128.049  0.00  0.00    +0.000 C 
ATOM      4  C   UNL     1      -4.864   3.122 128.305  0.00  0.00    +0.000 C 
ATOM      5  O   UNL     1      -5.948   3.221 128.888  0.00  0.00    +0.000 OA
ATOM      6  C   UNL     1      -4.668   2.255 127.373  0.00  0.00    +0.000 C 
ATOM      7  C   UNL     1      -5.193   1.587 126.197  0.00  0.00    +0.000 C 
ATOM      8  C   UNL     1      -4.275   1.510 128.977  0.00  0.00    +0.000 C 
ATOM      9  C   UNL     1      -4.150   2.693 130.395  0.00  0.00    +0.000 C 
ATOM     10  C   UNL     1      -3.629   4.306 130.139  0.00  0.00    +0.000 C 
ATOM     11  C   UNL     1      -4.299   5.134 128.733  0.00  0.00    +0.000 C 
ATOM     12  C   UNL     1      -3.590   6.443 128.483  0.00  0.00    +0.000 C 
ATOM     13  C   UNL     1      -3.481   7.251 129.742  0.00  0.00    +0.000 C 
ATOM     14  C   UNL     1      -3.982   8.493 129.784  0.00  0.00    +0.000 C 
ATOM     15  C   UNL     1      -2.969   6.624 130.956  0.00  0.00    +0.000 C 
ATOM     16  C   UNL     1      -2.060   7.214 131.753  0.00  0.00    +0.000 C 
ATOM     17  C   UNL     1      -1.808   6.436 132.982  0.00  0.00    +0.000 C 
ATOM     18  O   UNL     1      -2.151   6.750 134.113  0.00  0.00    +0.000 OA
ATOM     19  C   UNL     1      -1.171   5.086 132.682  0.00  0.00    +0.000 C 
ATOM     20  C   UNL     1      -2.371   4.579 132.324  0.00  0.00    +0.000 C 
ATOM     21  C   UNL     1      -3.502   5.232 131.375  0.00  0.00    +0.000 C 
ATOM     22  C   UNL     1      -4.937   5.417 131.874  0.00  0.00    +0.000 C 
ENDROOT
TORSDOF 0
ENDMDL
