MODEL 1
REMARK VINA RESULT:     -10.0      0.000      0.000
REMARK  Name = Ezetimibe
REMARK  8 active torsions:
REMARK  status: ('A' for Active; 'I' for Inactive)
REMARK    1  A    between atoms: C_2  and  C_3
REMARK    2  A    between atoms: C_3  and  C_4
REMARK    3  A    between atoms: C_4  and  C_5
REMARK    4  A    between atoms: C_5  and  O_6
REMARK    5  A    between atoms: C_5  and  C_7
REMARK    6  A    between atoms: N_16  and  C_17
REMARK    7  A    between atoms: C_24  and  C_26
REMARK    8  A    between atoms: C_29  and  O_30
REMARK                            x       y       z     vdW  Elec       q    Type
REMARK                         _______ _______ _______ _____ _____    ______ ____
ROOT
ATOM      1  C   UNL     1      -8.797   2.523 123.071  0.00  0.00    +0.000 C 
ATOM      2  C   UNL     1      -8.404   2.893 124.523  0.00  0.00    +0.000 C 
ATOM      3  O   UNL     1      -9.000   3.216 125.530  0.00  0.00    +0.000 OA
ATOM      4  N   UNL     1      -7.093   2.720 124.245  0.00  0.00    +0.000 N 
ATOM      5  C   UNL     1      -7.265   2.391 122.834  0.00  0.00    +0.000 C 
ENDROOT
BRANCH   4   6
ATOM      6  C   UNL     1      -5.950   2.823 125.031  0.00  0.00    +0.000 A 
ATOM      7  C   UNL     1      -5.297   4.053 125.183  0.00  0.00    +0.000 A 
ATOM      8  C   UNL     1      -4.168   4.166 125.998  0.00  0.00    +0.000 A 
ATOM      9  C   UNL     1      -3.665   3.038 126.626  0.00  0.00    +0.000 A 
ATOM     10  F   UNL     1      -2.571   3.142 127.392  0.00  0.00    +0.000 F 
ATOM     11  C   UNL     1      -4.282   1.802 126.466  0.00  0.00    +0.000 A 
ATOM     12  C   UNL     1      -5.438   1.697 125.683  0.00  0.00    +0.000 A 
ENDBRANCH   4   6
BRANCH   5  13
ATOM     13  C   UNL     1      -6.678   3.333 121.760  0.00  0.00    +0.000 A 
ATOM     14  C   UNL     1      -5.399   3.906 121.890  0.00  0.00    +0.000 A 
ATOM     15  C   UNL     1      -4.875   4.729 120.904  0.00  0.00    +0.000 A 
ATOM     16  C   UNL     1      -5.651   5.009 119.787  0.00  0.00    +0.000 A 
ATOM     17  C   UNL     1      -6.930   4.492 119.646  0.00  0.00    +0.000 A 
ATOM     18  C   UNL     1      -7.437   3.658 120.626  0.00  0.00    +0.000 A 
BRANCH  16  19
ATOM     19  O   UNL     1      -5.193   5.803 118.780  0.00  0.00    +0.000 OA
ATOM     20  H   UNL     1      -5.726   5.635 117.989  0.00  0.00    +0.000 HD
ENDBRANCH  16  19
ENDBRANCH   5  13
BRANCH   1  21
ATOM     21  C   UNL     1      -9.648   1.286 122.873  0.00  0.00    +0.000 C 
BRANCH  21  22
ATOM     22  C   UNL     1      -9.084   0.118 123.656  0.00  0.00    +0.000 C 
BRANCH  22  23
ATOM     23  C   UNL     1      -8.966  -1.135 122.803  0.00  0.00    +0.000 C 
BRANCH  23  24
ATOM     24  C   UNL     1      -7.770  -1.971 123.175  0.00  0.00    +0.000 A 
ATOM     25  C   UNL     1      -7.949  -3.053 124.043  0.00  0.00    +0.000 A 
ATOM     26  C   UNL     1      -6.854  -3.822 124.428  0.00  0.00    +0.000 A 
ATOM     27  C   UNL     1      -5.588  -3.519 123.939  0.00  0.00    +0.000 A 
ATOM     28  F   UNL     1      -4.540  -4.263 124.306  0.00  0.00    +0.000 F 
ATOM     29  C   UNL     1      -5.387  -2.449 123.085  0.00  0.00    +0.000 A 
ATOM     30  C   UNL     1      -6.471  -1.664 122.724  0.00  0.00    +0.000 A 
ENDBRANCH  23  24
BRANCH  23  31
ATOM     31  O   UNL     1     -10.122  -1.954 122.928  0.00  0.00    +0.000 OA
ATOM     32  H   UNL     1     -10.779  -1.624 122.290  0.00  0.00    +0.000 HD
ENDBRANCH  23  31
ENDBRANCH  22  23
ENDBRANCH  21  22
ENDBRANCH   1  21
TORSDOF 8
ENDMDL
MODEL 2
REMARK VINA RESULT:      -9.4      2.928      5.719
REMARK  Name = Ezetimibe
REMARK  8 active torsions:
REMARK  status: ('A' for Active; 'I' for Inactive)
REMARK    1  A    between atoms: C_2  and  C_3
REMARK    2  A    between atoms: C_3  and  C_4
REMARK    3  A    between atoms: C_4  and  C_5
REMARK    4  A    between atoms: C_5  and  O_6
REMARK    5  A    between atoms: C_5  and  C_7
REMARK    6  A    between atoms: N_16  and  C_17
REMARK    7  A    between atoms: C_24  and  C_26
REMARK    8  A    between atoms: C_29  and  O_30
REMARK                            x       y       z     vdW  Elec       q    Type
REMARK                         _______ _______ _______ _____ _____    ______ ____
ROOT
ATOM      1  C   UNL     1      -7.219   2.370 125.619  0.00  0.00    +0.000 C 
ATOM      2  C   UNL     1      -7.735   3.561 124.772  0.00  0.00    +0.000 C 
ATOM      3  O   UNL     1      -8.320   4.600 124.998  0.00  0.00    +0.000 OA
ATOM      4  N   UNL     1      -7.274   2.993 123.636  0.00  0.00    +0.000 N 
ATOM      5  C   UNL     1      -6.764   1.774 124.256  0.00  0.00    +0.000 C 
ENDROOT
BRANCH   4   6
ATOM      6  C   UNL     1      -7.281   3.414 122.311  0.00  0.00    +0.000 A 
ATOM      7  C   UNL     1      -6.095   3.819 121.684  0.00  0.00    +0.000 A 
ATOM      8  C   UNL     1      -6.093   4.211 120.344  0.00  0.00    +0.000 A 
ATOM      9  C   UNL     1      -7.288   4.243 119.641  0.00  0.00    +0.000 A 
ATOM     10  F   UNL     1      -7.290   4.638 118.362  0.00  0.00    +0.000 F 
ATOM     11  C   UNL     1      -8.480   3.872 120.253  0.00  0.00    +0.000 A 
ATOM     12  C   UNL     1      -8.475   3.438 121.584  0.00  0.00    +0.000 A 
ENDBRANCH   4   6
BRANCH   5  13
ATOM     13  C   UNL     1      -7.394   0.414 123.885  0.00  0.00    +0.000 A 
ATOM     14  C   UNL     1      -6.699  -0.546 123.126  0.00  0.00    +0.000 A 
ATOM     15  C   UNL     1      -7.269  -1.773 122.823  0.00  0.00    +0.000 A 
ATOM     16  C   UNL     1      -8.563  -2.035 123.257  0.00  0.00    +0.000 A 
ATOM     17  C   UNL     1      -9.288  -1.096 123.974  0.00  0.00    +0.000 A 
ATOM     18  C   UNL     1      -8.705   0.119 124.286  0.00  0.00    +0.000 A 
BRANCH  16  19
ATOM     19  O   UNL     1      -9.176  -3.222 122.999  0.00  0.00    +0.000 OA
ATOM     20  H   UNL     1      -8.992  -3.829 123.732  0.00  0.00    +0.000 HD
ENDBRANCH  16  19
ENDBRANCH   5  13
BRANCH   1  21
ATOM     21  C   UNL     1      -6.151   2.660 126.652  0.00  0.00    +0.000 C 
BRANCH  21  22
ATOM     22  C   UNL     1      -5.197   1.490 126.779  0.00  0.00    +0.000 C 
BRANCH  22  23
ATOM     23  C   UNL     1      -5.568   0.576 127.936  0.00  0.00    +0.000 C 
BRANCH  23  24
ATOM     24  C   UNL     1      -6.314  -0.649 127.482  0.00  0.00    +0.000 A 
ATOM     25  C   UNL     1      -5.678  -1.541 126.612  0.00  0.00    +0.000 A 
ATOM     26  C   UNL     1      -6.358  -2.666 126.152  0.00  0.00    +0.000 A 
ATOM     27  C   UNL     1      -7.663  -2.905 126.569  0.00  0.00    +0.000 A 
ATOM     28  F   UNL     1      -8.311  -3.989 126.130  0.00  0.00    +0.000 F 
ATOM     29  C   UNL     1      -8.314  -2.033 127.424  0.00  0.00    +0.000 A 
ATOM     30  C   UNL     1      -7.649  -0.897 127.859  0.00  0.00    +0.000 A 
ENDBRANCH  23  24
BRANCH  23  31
ATOM     31  O   UNL     1      -4.411   0.143 128.641  0.00  0.00    +0.000 OA
ATOM     32  H   UNL     1      -3.716  -0.022 127.980  0.00  0.00    +0.000 HD
ENDBRANCH  23  31
ENDBRANCH  22  23
ENDBRANCH  21  22
ENDBRANCH   1  21
TORSDOF 8
ENDMDL
MODEL 3
REMARK VINA RESULT:      -9.3      3.419      7.789
REMARK  Name = Ezetimibe
REMARK  8 active torsions:
REMARK  status: ('A' for Active; 'I' for Inactive)
REMARK    1  A    between atoms: C_2  and  C_3
REMARK    2  A    between atoms: C_3  and  C_4
REMARK    3  A    between atoms: C_4  and  C_5
REMARK    4  A    between atoms: C_5  and  O_6
REMARK    5  A    between atoms: C_5  and  C_7
REMARK    6  A    between atoms: N_16  and  C_17
REMARK    7  A    between atoms: C_24  and  C_26
REMARK    8  A    between atoms: C_29  and  O_30
REMARK                            x       y       z     vdW  Elec       q    Type
REMARK                         _______ _______ _______ _____ _____    ______ ____
ROOT
ATOM      1  C   UNL     1      -9.385  -0.612 125.485  0.00  0.00    +0.000 C 
ATOM      2  C   UNL     1      -9.059  -1.655 124.386  0.00  0.00    +0.000 C 
ATOM      3  O   UNL     1      -9.656  -2.150 123.452  0.00  0.00    +0.000 OA
ATOM      4  N   UNL     1      -7.809  -1.821 124.870  0.00  0.00    +0.000 N 
ATOM      5  C   UNL     1      -7.945  -0.903 125.997  0.00  0.00    +0.000 C 
ENDROOT
BRANCH   4   6
ATOM      6  C   UNL     1      -6.741  -2.606 124.450  0.00  0.00    +0.000 A 
ATOM      7  C   UNL     1      -5.600  -2.017 123.888  0.00  0.00    +0.000 A 
ATOM      8  C   UNL     1      -4.512  -2.799 123.496  0.00  0.00    +0.000 A 
ATOM      9  C   UNL     1      -4.582  -4.178 123.623  0.00  0.00    +0.000 A 
ATOM     10  F   UNL     1      -3.547  -4.930 123.228  0.00  0.00    +0.000 F 
ATOM     11  C   UNL     1      -5.716  -4.784 124.152  0.00  0.00    +0.000 A 
ATOM     12  C   UNL     1      -6.790  -3.996 124.585  0.00  0.00    +0.000 A 
ENDBRANCH   4   6
BRANCH   5  13
ATOM     13  C   UNL     1      -7.853  -1.453 127.437  0.00  0.00    +0.000 A 
ATOM     14  C   UNL     1      -7.406  -0.659 128.510  0.00  0.00    +0.000 A 
ATOM     15  C   UNL     1      -7.354  -1.159 129.802  0.00  0.00    +0.000 A 
ATOM     16  C   UNL     1      -7.725  -2.480 130.023  0.00  0.00    +0.000 A 
ATOM     17  C   UNL     1      -8.134  -3.299 128.983  0.00  0.00    +0.000 A 
ATOM     18  C   UNL     1      -8.199  -2.787 127.699  0.00  0.00    +0.000 A 
BRANCH  16  19
ATOM     19  O   UNL     1      -7.704  -3.029 131.269  0.00  0.00    +0.000 OA
ATOM     20  H   UNL     1      -7.942  -2.344 131.911  0.00  0.00    +0.000 HD
ENDBRANCH  16  19
ENDBRANCH   5  13
BRANCH   1  21
ATOM     21  C   UNL     1      -9.700   0.799 125.035  0.00  0.00    +0.000 C 
BRANCH  21  22
ATOM     22  C   UNL     1      -8.893   1.161 123.805  0.00  0.00    +0.000 C 
BRANCH  22  23
ATOM     23  C   UNL     1      -8.171   2.490 123.969  0.00  0.00    +0.000 C 
BRANCH  23  24
ATOM     24  C   UNL     1      -7.744   3.075 122.650  0.00  0.00    +0.000 A 
ATOM     25  C   UNL     1      -8.717   3.325 121.677  0.00  0.00    +0.000 A 
ATOM     26  C   UNL     1      -8.344   3.837 120.437  0.00  0.00    +0.000 A 
ATOM     27  C   UNL     1      -7.005   4.109 120.175  0.00  0.00    +0.000 A 
ATOM     28  F   UNL     1      -6.651   4.606 118.985  0.00  0.00    +0.000 F 
ATOM     29  C   UNL     1      -6.025   3.864 121.120  0.00  0.00    +0.000 A 
ATOM     30  C   UNL     1      -6.391   3.327 122.344  0.00  0.00    +0.000 A 
ENDBRANCH  23  24
BRANCH  23  31
ATOM     31  O   UNL     1      -8.996   3.447 124.621  0.00  0.00    +0.000 OA
ATOM     32  H   UNL     1      -9.093   4.203 124.016  0.00  0.00    +0.000 HD
ENDBRANCH  23  31
ENDBRANCH  22  23
ENDBRANCH  21  22
ENDBRANCH   1  21
TORSDOF 8
ENDMDL
MODEL 4
REMARK VINA RESULT:      -9.1      1.716      2.436
REMARK  Name = Ezetimibe
REMARK  8 active torsions:
REMARK  status: ('A' for Active; 'I' for Inactive)
REMARK    1  A    between atoms: C_2  and  C_3
REMARK    2  A    between atoms: C_3  and  C_4
REMARK    3  A    between atoms: C_4  and  C_5
REMARK    4  A    between atoms: C_5  and  O_6
REMARK    5  A    between atoms: C_5  and  C_7
REMARK    6  A    between atoms: N_16  and  C_17
REMARK    7  A    between atoms: C_24  and  C_26
REMARK    8  A    between atoms: C_29  and  O_30
REMARK                            x       y       z     vdW  Elec       q    Type
REMARK                         _______ _______ _______ _____ _____    ______ ____
ROOT
ATOM      1  C   UNL     1      -8.454   2.206 123.311  0.00  0.00    +0.000 C 
ATOM      2  C   UNL     1      -8.238   2.799 124.726  0.00  0.00    +0.000 C 
ATOM      3  O   UNL     1      -8.950   3.089 125.665  0.00  0.00    +0.000 OA
ATOM      4  N   UNL     1      -6.904   2.880 124.523  0.00  0.00    +0.000 N 
ATOM      5  C   UNL     1      -6.916   2.379 123.152  0.00  0.00    +0.000 C 
ENDROOT
BRANCH   4   6
ATOM      6  C   UNL     1      -5.859   3.303 125.337  0.00  0.00    +0.000 A 
ATOM      7  C   UNL     1      -4.947   2.380 125.864  0.00  0.00    +0.000 A 
ATOM      8  C   UNL     1      -3.877   2.804 126.654  0.00  0.00    +0.000 A 
ATOM      9  C   UNL     1      -3.745   4.151 126.956  0.00  0.00    +0.000 A 
ATOM     10  F   UNL     1      -2.730   4.556 127.731  0.00  0.00    +0.000 F 
ATOM     11  C   UNL     1      -4.655   5.080 126.466  0.00  0.00    +0.000 A 
ATOM     12  C   UNL     1      -5.703   4.659 125.638  0.00  0.00    +0.000 A 
ENDBRANCH   4   6
BRANCH   5  13
ATOM     13  C   UNL     1      -6.469   3.309 122.002  0.00  0.00    +0.000 A 
ATOM     14  C   UNL     1      -7.241   3.475 120.837  0.00  0.00    +0.000 A 
ATOM     15  C   UNL     1      -6.840   4.334 119.824  0.00  0.00    +0.000 A 
ATOM     16  C   UNL     1      -5.636   5.013 119.963  0.00  0.00    +0.000 A 
ATOM     17  C   UNL     1      -4.834   4.843 121.081  0.00  0.00    +0.000 A 
ATOM     18  C   UNL     1      -5.251   3.997 122.093  0.00  0.00    +0.000 A 
BRANCH  16  19
ATOM     19  O   UNL     1      -5.189   5.876 119.010  0.00  0.00    +0.000 OA
ATOM     20  H   UNL     1      -5.933   6.115 118.437  0.00  0.00    +0.000 HD
ENDBRANCH  16  19
ENDBRANCH   5  13
BRANCH   1  21
ATOM     21  C   UNL     1      -9.017   0.804 123.221  0.00  0.00    +0.000 C 
BRANCH  21  22
ATOM     22  C   UNL     1      -7.916  -0.226 123.373  0.00  0.00    +0.000 C 
BRANCH  22  23
ATOM     23  C   UNL     1      -8.470  -1.629 123.556  0.00  0.00    +0.000 C 
BRANCH  23  24
ATOM     24  C   UNL     1      -8.382  -2.098 124.984  0.00  0.00    +0.000 A 
ATOM     25  C   UNL     1      -7.323  -1.644 125.777  0.00  0.00    +0.000 A 
ATOM     26  C   UNL     1      -7.200  -2.087 127.091  0.00  0.00    +0.000 A 
ATOM     27  C   UNL     1      -8.139  -2.971 127.614  0.00  0.00    +0.000 A 
ATOM     28  F   UNL     1      -8.022  -3.390 128.879  0.00  0.00    +0.000 F 
ATOM     29  C   UNL     1      -9.191  -3.437 126.846  0.00  0.00    +0.000 A 
ATOM     30  C   UNL     1      -9.298  -3.020 125.528  0.00  0.00    +0.000 A 
ENDBRANCH  23  24
BRANCH  23  31
ATOM     31  O   UNL     1      -9.835  -1.700 123.161  0.00  0.00    +0.000 OA
ATOM     32  H   UNL     1      -9.898  -2.377 122.464  0.00  0.00    +0.000 HD
ENDBRANCH  23  31
ENDBRANCH  22  23
ENDBRANCH  21  22
ENDBRANCH   1  21
TORSDOF 8
ENDMDL
MODEL 5
REMARK VINA RESULT:      -8.9      4.364      6.828
REMARK  Name = Ezetimibe
REMARK  8 active torsions:
REMARK  status: ('A' for Active; 'I' for Inactive)
REMARK    1  A    between atoms: C_2  and  C_3
REMARK    2  A    between atoms: C_3  and  C_4
REMARK    3  A    between atoms: C_4  and  C_5
REMARK    4  A    between atoms: C_5  and  O_6
REMARK    5  A    between atoms: C_5  and  C_7
REMARK    6  A    between atoms: N_16  and  C_17
REMARK    7  A    between atoms: C_24  and  C_26
REMARK    8  A    between atoms: C_29  and  O_30
REMARK                            x       y       z     vdW  Elec       q    Type
REMARK                         _______ _______ _______ _____ _____    ______ ____
ROOT
ATOM      1  C   UNL     1      -8.606  -2.928 126.259  0.00  0.00    +0.000 C 
ATOM      2  C   UNL     1      -8.912  -3.583 127.629  0.00  0.00    +0.000 C 
ATOM      3  O   UNL     1      -9.772  -4.318 128.069  0.00  0.00    +0.000 OA
ATOM      4  N   UNL     1      -7.823  -3.007 128.184  0.00  0.00    +0.000 N 
ATOM      5  C   UNL     1      -7.401  -2.274 126.994  0.00  0.00    +0.000 C 
ENDROOT
BRANCH   4   6
ATOM      6  C   UNL     1      -7.277  -3.077 129.460  0.00  0.00    +0.000 A 
ATOM      7  C   UNL     1      -7.690  -2.190 130.463  0.00  0.00    +0.000 A 
ATOM      8  C   UNL     1      -7.168  -2.279 131.755  0.00  0.00    +0.000 A 
ATOM      9  C   UNL     1      -6.197  -3.227 132.034  0.00  0.00    +0.000 A 
ATOM     10  F   UNL     1      -5.681  -3.300 133.268  0.00  0.00    +0.000 F 
ATOM     11  C   UNL     1      -5.752  -4.099 131.046  0.00  0.00    +0.000 A 
ATOM     12  C   UNL     1      -6.307  -4.037 129.762  0.00  0.00    +0.000 A 
ENDBRANCH   4   6
BRANCH   5  13
ATOM     13  C   UNL     1      -7.399  -0.730 127.018  0.00  0.00    +0.000 A 
ATOM     14  C   UNL     1      -8.588   0.018 126.919  0.00  0.00    +0.000 A 
ATOM     15  C   UNL     1      -8.572   1.404 126.968  0.00  0.00    +0.000 A 
ATOM     16  C   UNL     1      -7.350   2.054 127.086  0.00  0.00    +0.000 A 
ATOM     17  C   UNL     1      -6.158   1.348 127.147  0.00  0.00    +0.000 A 
ATOM     18  C   UNL     1      -6.185  -0.034 127.115  0.00  0.00    +0.000 A 
BRANCH  16  19
ATOM     19  O   UNL     1      -7.266   3.412 127.147  0.00  0.00    +0.000 OA
ATOM     20  H   UNL     1      -7.225   3.676 128.079  0.00  0.00    +0.000 HD
ENDBRANCH  16  19
ENDBRANCH   5  13
BRANCH   1  21
ATOM     21  C   UNL     1      -8.305  -3.851 125.098  0.00  0.00    +0.000 C 
BRANCH  21  22
ATOM     22  C   UNL     1      -8.829  -3.268 123.801  0.00  0.00    +0.000 C 
BRANCH  22  23
ATOM     23  C   UNL     1      -7.775  -2.440 123.082  0.00  0.00    +0.000 C 
BRANCH  23  24
ATOM     24  C   UNL     1      -8.044  -0.963 123.178  0.00  0.00    +0.000 A 
ATOM     25  C   UNL     1      -6.966  -0.093 123.377  0.00  0.00    +0.000 A 
ATOM     26  C   UNL     1      -7.191   1.275 123.500  0.00  0.00    +0.000 A 
ATOM     27  C   UNL     1      -8.487   1.774 123.414  0.00  0.00    +0.000 A 
ATOM     28  F   UNL     1      -8.699   3.089 123.527  0.00  0.00    +0.000 F 
ATOM     29  C   UNL     1      -9.568   0.933 123.224  0.00  0.00    +0.000 A 
ATOM     30  C   UNL     1      -9.349  -0.433 123.130  0.00  0.00    +0.000 A 
ENDBRANCH  23  24
BRANCH  23  31
ATOM     31  O   UNL     1      -6.479  -2.680 123.616  0.00  0.00    +0.000 OA
ATOM     32  H   UNL     1      -6.177  -3.537 123.267  0.00  0.00    +0.000 HD
ENDBRANCH  23  31
ENDBRANCH  22  23
ENDBRANCH  21  22
ENDBRANCH   1  21
TORSDOF 8
ENDMDL
MODEL 6
REMARK VINA RESULT:      -8.9      2.900      7.445
REMARK  Name = Ezetimibe
REMARK  8 active torsions:
REMARK  status: ('A' for Active; 'I' for Inactive)
REMARK    1  A    between atoms: C_2  and  C_3
REMARK    2  A    between atoms: C_3  and  C_4
REMARK    3  A    between atoms: C_4  and  C_5
REMARK    4  A    between atoms: C_5  and  O_6
REMARK    5  A    between atoms: C_5  and  C_7
REMARK    6  A    between atoms: N_16  and  C_17
REMARK    7  A    between atoms: C_24  and  C_26
REMARK    8  A    between atoms: C_29  and  O_30
REMARK                            x       y       z     vdW  Elec       q    Type
REMARK                         _______ _______ _______ _____ _____    ______ ____
ROOT
ATOM      1  C   UNL     1      -7.239   2.431 125.755  0.00  0.00    +0.000 C 
ATOM      2  C   UNL     1      -7.829   3.560 124.874  0.00  0.00    +0.000 C 
ATOM      3  O   UNL     1      -8.482   4.564 125.069  0.00  0.00    +0.000 OA
ATOM      4  N   UNL     1      -7.330   2.990 123.755  0.00  0.00    +0.000 N 
ATOM      5  C   UNL     1      -6.743   1.826 124.411  0.00  0.00    +0.000 C 
ENDROOT
BRANCH   4   6
ATOM      6  C   UNL     1      -7.362   3.372 122.418  0.00  0.00    +0.000 A 
ATOM      7  C   UNL     1      -8.572   3.406 121.714  0.00  0.00    +0.000 A 
ATOM      8  C   UNL     1      -8.613   3.821 120.382  0.00  0.00    +0.000 A 
ATOM      9  C   UNL     1      -7.433   4.159 119.737  0.00  0.00    +0.000 A 
ATOM     10  F   UNL     1      -7.469   4.538 118.453  0.00  0.00    +0.000 F 
ATOM     11  C   UNL     1      -6.217   4.106 120.409  0.00  0.00    +0.000 A 
ATOM     12  C   UNL     1      -6.183   3.731 121.758  0.00  0.00    +0.000 A 
ENDBRANCH   4   6
BRANCH   5  13
ATOM     13  C   UNL     1      -7.282   0.418 124.079  0.00  0.00    +0.000 A 
ATOM     14  C   UNL     1      -6.488  -0.736 124.220  0.00  0.00    +0.000 A 
ATOM     15  C   UNL     1      -6.996  -1.997 123.943  0.00  0.00    +0.000 A 
ATOM     16  C   UNL     1      -8.304  -2.106 123.489  0.00  0.00    +0.000 A 
ATOM     17  C   UNL     1      -9.100  -0.986 123.303  0.00  0.00    +0.000 A 
ATOM     18  C   UNL     1      -8.591   0.266 123.598  0.00  0.00    +0.000 A 
BRANCH  16  19
ATOM     19  O   UNL     1      -8.864  -3.314 123.207  0.00  0.00    +0.000 OA
ATOM     20  H   UNL     1      -9.087  -3.337 122.264  0.00  0.00    +0.000 HD
ENDBRANCH  16  19
ENDBRANCH   5  13
BRANCH   1  21
ATOM     21  C   UNL     1      -6.195   2.820 126.780  0.00  0.00    +0.000 C 
BRANCH  21  22
ATOM     22  C   UNL     1      -4.800   2.674 126.204  0.00  0.00    +0.000 C 
BRANCH  22  23
ATOM     23  C   UNL     1      -3.774   2.345 127.276  0.00  0.00    +0.000 C 
BRANCH  23  24
ATOM     24  C   UNL     1      -3.411   3.545 128.109  0.00  0.00    +0.000 A 
ATOM     25  C   UNL     1      -2.808   4.641 127.484  0.00  0.00    +0.000 A 
ATOM     26  C   UNL     1      -2.434   5.751 128.237  0.00  0.00    +0.000 A 
ATOM     27  C   UNL     1      -2.671   5.770 129.607  0.00  0.00    +0.000 A 
ATOM     28  F   UNL     1      -2.315   6.839 130.327  0.00  0.00    +0.000 F 
ATOM     29  C   UNL     1      -3.259   4.694 130.248  0.00  0.00    +0.000 A 
ATOM     30  C   UNL     1      -3.606   3.576 129.505  0.00  0.00    +0.000 A 
ENDBRANCH  23  24
BRANCH  23  31
ATOM     31  O   UNL     1      -4.253   1.336 128.157  0.00  0.00    +0.000 OA
ATOM     32  H   UNL     1      -4.654   1.787 128.920  0.00  0.00    +0.000 HD
ENDBRANCH  23  31
ENDBRANCH  22  23
ENDBRANCH  21  22
ENDBRANCH   1  21
TORSDOF 8
ENDMDL
MODEL 7
REMARK VINA RESULT:      -8.8      2.886      7.200
REMARK  Name = Ezetimibe
REMARK  8 active torsions:
REMARK  status: ('A' for Active; 'I' for Inactive)
REMARK    1  A    between atoms: C_2  and  C_3
REMARK    2  A    between atoms: C_3  and  C_4
REMARK    3  A    between atoms: C_4  and  C_5
REMARK    4  A    between atoms: C_5  and  O_6
REMARK    5  A    between atoms: C_5  and  C_7
REMARK    6  A    between atoms: N_16  and  C_17
REMARK    7  A    between atoms: C_24  and  C_26
REMARK    8  A    between atoms: C_29  and  O_30
REMARK                            x       y       z     vdW  Elec       q    Type
REMARK                         _______ _______ _______ _____ _____    ______ ____
ROOT
ATOM      1  C   UNL     1      -6.050   2.721 125.387  0.00  0.00    +0.000 C 
ATOM      2  C   UNL     1      -5.864   1.187 125.500  0.00  0.00    +0.000 C 
ATOM      3  O   UNL     1      -5.033   0.445 125.982  0.00  0.00    +0.000 OA
ATOM      4  N   UNL     1      -7.018   0.966 124.834  0.00  0.00    +0.000 N 
ATOM      5  C   UNL     1      -7.339   2.368 124.591  0.00  0.00    +0.000 C 
ENDROOT
BRANCH   4   6
ATOM      6  C   UNL     1      -7.687  -0.203 124.486  0.00  0.00    +0.000 A 
ATOM      7  C   UNL     1      -7.523  -0.766 123.214  0.00  0.00    +0.000 A 
ATOM      8  C   UNL     1      -8.166  -1.958 122.872  0.00  0.00    +0.000 A 
ATOM      9  C   UNL     1      -9.012  -2.563 123.788  0.00  0.00    +0.000 A 
ATOM     10  F   UNL     1      -9.646  -3.695 123.453  0.00  0.00    +0.000 F 
ATOM     11  C   UNL     1      -9.211  -2.005 125.046  0.00  0.00    +0.000 A 
ATOM     12  C   UNL     1      -8.532  -0.833 125.403  0.00  0.00    +0.000 A 
ENDBRANCH   4   6
BRANCH   5  13
ATOM     13  C   UNL     1      -7.386   2.894 123.139  0.00  0.00    +0.000 A 
ATOM     14  C   UNL     1      -8.591   2.985 122.418  0.00  0.00    +0.000 A 
ATOM     15  C   UNL     1      -8.620   3.483 121.124  0.00  0.00    +0.000 A 
ATOM     16  C   UNL     1      -7.425   3.868 120.530  0.00  0.00    +0.000 A 
ATOM     17  C   UNL     1      -6.216   3.755 121.199  0.00  0.00    +0.000 A 
ATOM     18  C   UNL     1      -6.199   3.273 122.496  0.00  0.00    +0.000 A 
BRANCH  16  19
ATOM     19  O   UNL     1      -7.385   4.373 119.266  0.00  0.00    +0.000 OA
ATOM     20  H   UNL     1      -6.962   3.721 118.688  0.00  0.00    +0.000 HD
ENDBRANCH  16  19
ENDBRANCH   5  13
BRANCH   1  21
ATOM     21  C   UNL     1      -6.209   3.501 126.674  0.00  0.00    +0.000 C 
BRANCH  21  22
ATOM     22  C   UNL     1      -5.200   3.042 127.707  0.00  0.00    +0.000 C 
BRANCH  22  23
ATOM     23  C   UNL     1      -3.787   3.479 127.355  0.00  0.00    +0.000 C 
BRANCH  23  24
ATOM     24  C   UNL     1      -3.212   4.427 128.373  0.00  0.00    +0.000 A 
ATOM     25  C   UNL     1      -3.325   4.108 129.730  0.00  0.00    +0.000 A 
ATOM     26  C   UNL     1      -2.829   4.984 130.693  0.00  0.00    +0.000 A 
ATOM     27  C   UNL     1      -2.213   6.167 130.301  0.00  0.00    +0.000 A 
ATOM     28  F   UNL     1      -1.733   7.003 131.228  0.00  0.00    +0.000 F 
ATOM     29  C   UNL     1      -2.096   6.506 128.964  0.00  0.00    +0.000 A 
ATOM     30  C   UNL     1      -2.615   5.650 128.006  0.00  0.00    +0.000 A 
ENDBRANCH  23  24
BRANCH  23  31
ATOM     31  O   UNL     1      -2.910   2.363 127.259  0.00  0.00    +0.000 OA
ATOM     32  H   UNL     1      -3.130   1.894 126.436  0.00  0.00    +0.000 HD
ENDBRANCH  23  31
ENDBRANCH  22  23
ENDBRANCH  21  22
ENDBRANCH   1  21
TORSDOF 8
ENDMDL
MODEL 8
REMARK VINA RESULT:      -8.7      8.171     10.074
REMARK  Name = Ezetimibe
REMARK  8 active torsions:
REMARK  status: ('A' for Active; 'I' for Inactive)
REMARK    1  A    between atoms: C_2  and  C_3
REMARK    2  A    between atoms: C_3  and  C_4
REMARK    3  A    between atoms: C_4  and  C_5
REMARK    4  A    between atoms: C_5  and  O_6
REMARK    5  A    between atoms: C_5  and  C_7
REMARK    6  A    between atoms: N_16  and  C_17
REMARK    7  A    between atoms: C_24  and  C_26
REMARK    8  A    between atoms: C_29  and  O_30
REMARK                            x       y       z     vdW  Elec       q    Type
REMARK                         _______ _______ _______ _____ _____    ______ ____
ROOT
ATOM      1  C   UNL     1      -9.131   3.583 131.615  0.00  0.00    +0.000 C 
ATOM      2  C   UNL     1     -10.358   3.939 130.739  0.00  0.00    +0.000 C 
ATOM      3  O   UNL     1     -11.239   3.317 130.182  0.00  0.00    +0.000 OA
ATOM      4  N   UNL     1     -10.076   5.258 130.823  0.00  0.00    +0.000 N 
ATOM      5  C   UNL     1      -8.860   5.115 131.618  0.00  0.00    +0.000 C 
ENDROOT
BRANCH   4   6
ATOM      6  C   UNL     1     -10.717   6.385 130.321  0.00  0.00    +0.000 A 
ATOM      7  C   UNL     1     -10.198   7.067 129.213  0.00  0.00    +0.000 A 
ATOM      8  C   UNL     1     -10.858   8.179 128.686  0.00  0.00    +0.000 A 
ATOM      9  C   UNL     1     -12.015   8.638 129.296  0.00  0.00    +0.000 A 
ATOM     10  F   UNL     1     -12.637   9.717 128.803  0.00  0.00    +0.000 F 
ATOM     11  C   UNL     1     -12.531   7.993 130.414  0.00  0.00    +0.000 A 
ATOM     12  C   UNL     1     -11.892   6.852 130.916  0.00  0.00    +0.000 A 
ENDBRANCH   4   6
BRANCH   5  13
ATOM     13  C   UNL     1      -7.506   5.549 131.016  0.00  0.00    +0.000 A 
ATOM     14  C   UNL     1      -6.875   6.751 131.391  0.00  0.00    +0.000 A 
ATOM     15  C   UNL     1      -5.646   7.114 130.860  0.00  0.00    +0.000 A 
ATOM     16  C   UNL     1      -5.052   6.282 129.920  0.00  0.00    +0.000 A 
ATOM     17  C   UNL     1      -5.665   5.111 129.501  0.00  0.00    +0.000 A 
ATOM     18  C   UNL     1      -6.883   4.748 130.048  0.00  0.00    +0.000 A 
BRANCH  16  19
ATOM     19  O   UNL     1      -3.844   6.577 129.367  0.00  0.00    +0.000 OA
ATOM     20  H   UNL     1      -3.152   6.380 130.016  0.00  0.00    +0.000 HD
ENDBRANCH  16  19
ENDBRANCH   5  13
BRANCH   1  21
ATOM     21  C   UNL     1      -9.396   2.913 132.946  0.00  0.00    +0.000 C 
BRANCH  21  22
ATOM     22  C   UNL     1      -8.149   2.922 133.807  0.00  0.00    +0.000 C 
BRANCH  22  23
ATOM     23  C   UNL     1      -7.067   2.009 133.252  0.00  0.00    +0.000 C 
BRANCH  23  24
ATOM     24  C   UNL     1      -5.802   2.755 132.922  0.00  0.00    +0.000 A 
ATOM     25  C   UNL     1      -4.925   2.209 131.980  0.00  0.00    +0.000 A 
ATOM     26  C   UNL     1      -3.733   2.863 131.680  0.00  0.00    +0.000 A 
ATOM     27  C   UNL     1      -3.424   4.064 132.310  0.00  0.00    +0.000 A 
ATOM     28  F   UNL     1      -2.281   4.693 132.016  0.00  0.00    +0.000 F 
ATOM     29  C   UNL     1      -4.274   4.619 133.251  0.00  0.00    +0.000 A 
ATOM     30  C   UNL     1      -5.447   3.954 133.573  0.00  0.00    +0.000 A 
ENDBRANCH  23  24
BRANCH  23  31
ATOM     31  O   UNL     1      -6.734   0.982 134.178  0.00  0.00    +0.000 OA
ATOM     32  H   UNL     1      -6.920   1.326 135.069  0.00  0.00    +0.000 HD
ENDBRANCH  23  31
ENDBRANCH  22  23
ENDBRANCH  21  22
ENDBRANCH   1  21
TORSDOF 8
ENDMDL
MODEL 9
REMARK VINA RESULT:      -8.7      6.128      9.743
REMARK  Name = Ezetimibe
REMARK  8 active torsions:
REMARK  status: ('A' for Active; 'I' for Inactive)
REMARK    1  A    between atoms: C_2  and  C_3
REMARK    2  A    between atoms: C_3  and  C_4
REMARK    3  A    between atoms: C_4  and  C_5
REMARK    4  A    between atoms: C_5  and  O_6
REMARK    5  A    between atoms: C_5  and  C_7
REMARK    6  A    between atoms: N_16  and  C_17
REMARK    7  A    between atoms: C_24  and  C_26
REMARK    8  A    between atoms: C_29  and  O_30
REMARK                            x       y       z     vdW  Elec       q    Type
REMARK                         _______ _______ _______ _____ _____    ______ ____
ROOT
ATOM      1  C   UNL     1      -7.821   5.473 131.732  0.00  0.00    +0.000 C 
ATOM      2  C   UNL     1      -9.217   6.112 131.939  0.00  0.00    +0.000 C 
ATOM      3  O   UNL     1      -9.894   6.431 132.895  0.00  0.00    +0.000 OA
ATOM      4  N   UNL     1      -9.417   6.185 130.605  0.00  0.00    +0.000 N 
ATOM      5  C   UNL     1      -8.159   5.557 130.215  0.00  0.00    +0.000 C 
ENDROOT
BRANCH   4   6
ATOM      6  C   UNL     1     -10.467   6.685 129.843  0.00  0.00    +0.000 A 
ATOM      7  C   UNL     1     -11.677   5.985 129.750  0.00  0.00    +0.000 A 
ATOM      8  C   UNL     1     -12.746   6.500 129.013  0.00  0.00    +0.000 A 
ATOM      9  C   UNL     1     -12.589   7.696 128.330  0.00  0.00    +0.000 A 
ATOM     10  F   UNL     1     -13.607   8.181 127.607  0.00  0.00    +0.000 F 
ATOM     11  C   UNL     1     -11.387   8.393 128.387  0.00  0.00    +0.000 A 
ATOM     12  C   UNL     1     -10.331   7.897 129.161  0.00  0.00    +0.000 A 
ENDBRANCH   4   6
BRANCH   5  13
ATOM     13  C   UNL     1      -8.186   4.205 129.468  0.00  0.00    +0.000 A 
ATOM     14  C   UNL     1      -8.684   3.033 130.067  0.00  0.00    +0.000 A 
ATOM     15  C   UNL     1      -8.726   1.833 129.373  0.00  0.00    +0.000 A 
ATOM     16  C   UNL     1      -8.237   1.795 128.074  0.00  0.00    +0.000 A 
ATOM     17  C   UNL     1      -7.706   2.923 127.468  0.00  0.00    +0.000 A 
ATOM     18  C   UNL     1      -7.683   4.120 128.161  0.00  0.00    +0.000 A 
BRANCH  16  19
ATOM     19  O   UNL     1      -8.257   0.651 127.336  0.00  0.00    +0.000 OA
ATOM     20  H   UNL     1      -8.685   0.839 126.487  0.00  0.00    +0.000 HD
ENDBRANCH  16  19
ENDBRANCH   5  13
BRANCH   1  21
ATOM     21  C   UNL     1      -6.619   6.247 132.229  0.00  0.00    +0.000 C 
BRANCH  21  22
ATOM     22  C   UNL     1      -5.893   6.908 131.074  0.00  0.00    +0.000 C 
BRANCH  22  23
ATOM     23  C   UNL     1      -4.385   6.757 131.190  0.00  0.00    +0.000 C 
BRANCH  23  24
ATOM     24  C   UNL     1      -3.808   5.903 130.094  0.00  0.00    +0.000 A 
ATOM     25  C   UNL     1      -2.895   6.477 129.203  0.00  0.00    +0.000 A 
ATOM     26  C   UNL     1      -2.371   5.717 128.160  0.00  0.00    +0.000 A 
ATOM     27  C   UNL     1      -2.749   4.387 128.015  0.00  0.00    +0.000 A 
ATOM     28  F   UNL     1      -2.240   3.658 127.016  0.00  0.00    +0.000 F 
ATOM     29  C   UNL     1      -3.656   3.800 128.880  0.00  0.00    +0.000 A 
ATOM     30  C   UNL     1      -4.201   4.564 129.901  0.00  0.00    +0.000 A 
ENDBRANCH  23  24
BRANCH  23  31
ATOM     31  O   UNL     1      -3.735   8.022 131.141  0.00  0.00    +0.000 OA
ATOM     32  H   UNL     1      -3.480   8.178 130.215  0.00  0.00    +0.000 HD
ENDBRANCH  23  31
ENDBRANCH  22  23
ENDBRANCH  21  22
ENDBRANCH   1  21
TORSDOF 8
ENDMDL
