MODEL 1
REMARK VINA RESULT:      -6.8      0.000      0.000
REMARK  Name = Ezogabine
REMARK  8 active torsions:
REMARK  status: ('A' for Active; 'I' for Inactive)
REMARK    1  A    between atoms: C_1  and  C_2
REMARK    2  A    between atoms: C_2  and  O_3
REMARK    3  A    between atoms: O_3  and  C_4
REMARK    4  A    between atoms: N_6  and  C_7
REMARK    5  A    between atoms: C_8  and  N_9
REMARK    6  A    between atoms: C_11  and  N_12
REMARK    7  A    between atoms: N_12  and  C_13
REMARK    8  A    between atoms: C_13  and  C_14
REMARK                            x       y       z     vdW  Elec       q    Type
REMARK                         _______ _______ _______ _____ _____    ______ ____
ROOT
ATOM      1  C   UNL     1      -8.005  -0.531 126.160  0.00  0.00    +0.000 A 
ATOM      2  C   UNL     1      -6.830   0.063 125.657  0.00  0.00    +0.000 A 
ATOM      3  C   UNL     1      -6.958   1.223 124.853  0.00  0.00    +0.000 A 
ATOM      4  C   UNL     1      -8.209   1.785 124.538  0.00  0.00    +0.000 A 
ATOM      5  C   UNL     1      -9.336   1.188 125.091  0.00  0.00    +0.000 A 
ATOM      6  C   UNL     1      -9.235   0.072 125.900  0.00  0.00    +0.000 A 
ENDROOT
BRANCH   1   9
ATOM      7  C   UNL     1      -8.372  -2.939 126.581  0.00  0.00    +0.000 C 
ATOM      8  O   UNL     1      -9.001  -3.695 127.315  0.00  0.00    +0.000 OA
ATOM      9  N   UNL     1      -7.969  -1.684 126.980  0.00  0.00    +0.000 N 
ATOM     10  H   UNL     1      -7.891  -1.539 127.973  0.00  0.00    +0.000 HD
BRANCH   7  11
ATOM     11  O   UNL     1      -7.954  -3.261 125.321  0.00  0.00    +0.000 OA
BRANCH  11  13
ATOM     12  C   UNL     1      -8.969  -2.587 123.245  0.00  0.00    +0.000 C 
ATOM     13  C   UNL     1      -8.971  -3.612 124.372  0.00  0.00    +0.000 C 
ENDBRANCH  11  13
ENDBRANCH   7  11
ENDBRANCH   1   9
BRANCH   2  14
ATOM     14  N   UNL     1      -5.556  -0.395 125.990  0.00  0.00    +0.000 N 
ATOM     15  H   UNL     1      -4.726   0.082 125.672  0.00  0.00    +0.000 HD
ATOM     16  H   UNL     1      -5.444  -1.058 126.749  0.00  0.00    +0.000 HD
ENDBRANCH   2  14
BRANCH   4  17
ATOM     17  N   UNL     1      -8.322   2.904 123.730  0.00  0.00    +0.000 N 
ATOM     18  H   UNL     1      -8.012   3.805 124.068  0.00  0.00    +0.000 HD
BRANCH  17  19
ATOM     19  C   UNL     1      -8.821   2.803 122.369  0.00  0.00    +0.000 C 
BRANCH  19  20
ATOM     20  C   UNL     1      -7.887   3.478 121.402  0.00  0.00    +0.000 A 
ATOM     21  C   UNL     1      -6.530   3.619 121.729  0.00  0.00    +0.000 A 
ATOM     22  C   UNL     1      -5.655   4.235 120.838  0.00  0.00    +0.000 A 
ATOM     23  C   UNL     1      -6.134   4.701 119.620  0.00  0.00    +0.000 A 
ATOM     24  F   UNL     1      -5.288   5.282 118.759  0.00  0.00    +0.000 F 
ATOM     25  C   UNL     1      -7.476   4.574 119.280  0.00  0.00    +0.000 A 
ATOM     26  C   UNL     1      -8.357   3.964 120.172  0.00  0.00    +0.000 A 
ENDBRANCH  19  20
ENDBRANCH  17  19
ENDBRANCH   4  17
TORSDOF 7
ENDMDL
MODEL 2
REMARK VINA RESULT:      -6.8      1.600      2.220
REMARK  Name = Ezogabine
REMARK  8 active torsions:
REMARK  status: ('A' for Active; 'I' for Inactive)
REMARK    1  A    between atoms: C_1  and  C_2
REMARK    2  A    between atoms: C_2  and  O_3
REMARK    3  A    between atoms: O_3  and  C_4
REMARK    4  A    between atoms: N_6  and  C_7
REMARK    5  A    between atoms: C_8  and  N_9
REMARK    6  A    between atoms: C_11  and  N_12
REMARK    7  A    between atoms: N_12  and  C_13
REMARK    8  A    between atoms: C_13  and  C_14
REMARK                            x       y       z     vdW  Elec       q    Type
REMARK                         _______ _______ _______ _____ _____    ______ ____
ROOT
ATOM      1  C   UNL     1      -8.522  -0.260 124.571  0.00  0.00    +0.000 A 
ATOM      2  C   UNL     1      -7.418   0.279 125.261  0.00  0.00    +0.000 A 
ATOM      3  C   UNL     1      -6.983   1.582 124.913  0.00  0.00    +0.000 A 
ATOM      4  C   UNL     1      -7.607   2.339 123.904  0.00  0.00    +0.000 A 
ATOM      5  C   UNL     1      -8.717   1.782 123.280  0.00  0.00    +0.000 A 
ATOM      6  C   UNL     1      -9.177   0.524 123.621  0.00  0.00    +0.000 A 
ENDROOT
BRANCH   1   9
ATOM      7  C   UNL     1      -8.927  -2.637 124.023  0.00  0.00    +0.000 C 
ATOM      8  O   UNL     1      -9.843  -3.438 123.864  0.00  0.00    +0.000 OA
ATOM      9  N   UNL     1      -9.031  -1.549 124.862  0.00  0.00    +0.000 N 
ATOM     10  H   UNL     1      -9.722  -1.616 125.591  0.00  0.00    +0.000 HD
BRANCH   7  11
ATOM     11  O   UNL     1      -7.696  -2.751 123.444  0.00  0.00    +0.000 OA
BRANCH  11  13
ATOM     12  C   UNL     1      -5.334  -2.728 123.911  0.00  0.00    +0.000 C 
ATOM     13  C   UNL     1      -6.671  -3.388 124.221  0.00  0.00    +0.000 C 
ENDBRANCH  11  13
ENDBRANCH   7  11
ENDBRANCH   1   9
BRANCH   2  14
ATOM     14  N   UNL     1      -6.801  -0.383 126.321  0.00  0.00    +0.000 N 
ATOM     15  H   UNL     1      -6.005   0.015 126.796  0.00  0.00    +0.000 HD
ATOM     16  H   UNL     1      -7.283  -1.143 126.787  0.00  0.00    +0.000 HD
ENDBRANCH   2  14
BRANCH   4  17
ATOM     17  N   UNL     1      -7.155   3.600 123.556  0.00  0.00    +0.000 N 
ATOM     18  H   UNL     1      -7.720   4.414 123.761  0.00  0.00    +0.000 HD
BRANCH  17  19
ATOM     19  C   UNL     1      -5.846   3.792 122.955  0.00  0.00    +0.000 C 
BRANCH  19  20
ATOM     20  C   UNL     1      -5.971   4.230 121.521  0.00  0.00    +0.000 A 
ATOM     21  C   UNL     1      -7.069   3.805 120.758  0.00  0.00    +0.000 A 
ATOM     22  C   UNL     1      -7.200   4.211 119.432  0.00  0.00    +0.000 A 
ATOM     23  C   UNL     1      -6.240   5.047 118.874  0.00  0.00    +0.000 A 
ATOM     24  F   UNL     1      -6.374   5.447 117.603  0.00  0.00    +0.000 F 
ATOM     25  C   UNL     1      -5.143   5.476 119.614  0.00  0.00    +0.000 A 
ATOM     26  C   UNL     1      -5.005   5.065 120.939  0.00  0.00    +0.000 A 
ENDBRANCH  19  20
ENDBRANCH  17  19
ENDBRANCH   4  17
TORSDOF 7
ENDMDL
MODEL 3
REMARK VINA RESULT:      -6.7      4.556      7.423
REMARK  Name = Ezogabine
REMARK  8 active torsions:
REMARK  status: ('A' for Active; 'I' for Inactive)
REMARK    1  A    between atoms: C_1  and  C_2
REMARK    2  A    between atoms: C_2  and  O_3
REMARK    3  A    between atoms: O_3  and  C_4
REMARK    4  A    between atoms: N_6  and  C_7
REMARK    5  A    between atoms: C_8  and  N_9
REMARK    6  A    between atoms: C_11  and  N_12
REMARK    7  A    between atoms: N_12  and  C_13
REMARK    8  A    between atoms: C_13  and  C_14
REMARK                            x       y       z     vdW  Elec       q    Type
REMARK                         _______ _______ _______ _____ _____    ______ ____
ROOT
ATOM      1  C   UNL     1      -8.183   2.015 123.794  0.00  0.00    +0.000 A 
ATOM      2  C   UNL     1      -9.344   1.216 123.816  0.00  0.00    +0.000 A 
ATOM      3  C   UNL     1      -9.205  -0.172 123.569  0.00  0.00    +0.000 A 
ATOM      4  C   UNL     1      -7.959  -0.766 123.296  0.00  0.00    +0.000 A 
ATOM      5  C   UNL     1      -6.838   0.055 123.325  0.00  0.00    +0.000 A 
ATOM      6  C   UNL     1      -6.945   1.407 123.590  0.00  0.00    +0.000 A 
ENDROOT
BRANCH   1   9
ATOM      7  C   UNL     1      -8.199   3.981 125.294  0.00  0.00    +0.000 C 
ATOM      8  O   UNL     1      -8.893   4.947 125.594  0.00  0.00    +0.000 OA
ATOM      9  N   UNL     1      -8.228   3.409 124.041  0.00  0.00    +0.000 N 
ATOM     10  H   UNL     1      -8.554   3.998 123.292  0.00  0.00    +0.000 HD
BRANCH   7  11
ATOM     11  O   UNL     1      -7.289   3.397 126.128  0.00  0.00    +0.000 OA
BRANCH  11  13
ATOM     12  C   UNL     1      -8.253   1.574 127.369  0.00  0.00    +0.000 C 
ATOM     13  C   UNL     1      -7.757   3.013 127.429  0.00  0.00    +0.000 C 
ENDBRANCH  11  13
ENDBRANCH   7  11
ENDBRANCH   1   9
BRANCH   2  14
ATOM     14  N   UNL     1     -10.597   1.725 124.155  0.00  0.00    +0.000 N 
ATOM     15  H   UNL     1     -10.949   2.574 123.739  0.00  0.00    +0.000 HD
ATOM     16  H   UNL     1     -11.268   1.130 124.627  0.00  0.00    +0.000 HD
ENDBRANCH   2  14
BRANCH   4  17
ATOM     17  N   UNL     1      -7.841  -2.120 123.031  0.00  0.00    +0.000 N 
ATOM     18  H   UNL     1      -8.318  -2.523 122.234  0.00  0.00    +0.000 HD
BRANCH  17  19
ATOM     19  C   UNL     1      -6.989  -2.975 123.839  0.00  0.00    +0.000 C 
BRANCH  19  20
ATOM     20  C   UNL     1      -7.414  -2.949 125.282  0.00  0.00    +0.000 A 
ATOM     21  C   UNL     1      -8.611  -3.573 125.665  0.00  0.00    +0.000 A 
ATOM     22  C   UNL     1      -9.011  -3.563 126.999  0.00  0.00    +0.000 A 
ATOM     23  C   UNL     1      -8.212  -2.938 127.948  0.00  0.00    +0.000 A 
ATOM     24  F   UNL     1      -8.591  -2.940 129.233  0.00  0.00    +0.000 F 
ATOM     25  C   UNL     1      -7.024  -2.312 127.588  0.00  0.00    +0.000 A 
ATOM     26  C   UNL     1      -6.624  -2.314 126.252  0.00  0.00    +0.000 A 
ENDBRANCH  19  20
ENDBRANCH  17  19
ENDBRANCH   4  17
TORSDOF 7
ENDMDL
MODEL 4
REMARK VINA RESULT:      -6.6      8.574      9.803
REMARK  Name = Ezogabine
REMARK  8 active torsions:
REMARK  status: ('A' for Active; 'I' for Inactive)
REMARK    1  A    between atoms: C_1  and  C_2
REMARK    2  A    between atoms: C_2  and  O_3
REMARK    3  A    between atoms: O_3  and  C_4
REMARK    4  A    between atoms: N_6  and  C_7
REMARK    5  A    between atoms: C_8  and  N_9
REMARK    6  A    between atoms: C_11  and  N_12
REMARK    7  A    between atoms: N_12  and  C_13
REMARK    8  A    between atoms: C_13  and  C_14
REMARK                            x       y       z     vdW  Elec       q    Type
REMARK                         _______ _______ _______ _____ _____    ______ ____
ROOT
ATOM      1  C   UNL     1     -10.294   5.583 131.642  0.00  0.00    +0.000 A 
ATOM      2  C   UNL     1     -10.103   4.374 130.943  0.00  0.00    +0.000 A 
ATOM      3  C   UNL     1      -8.776   3.969 130.657  0.00  0.00    +0.000 A 
ATOM      4  C   UNL     1      -7.658   4.735 131.037  0.00  0.00    +0.000 A 
ATOM      5  C   UNL     1      -7.894   5.898 131.760  0.00  0.00    +0.000 A 
ATOM      6  C   UNL     1      -9.179   6.300 132.074  0.00  0.00    +0.000 A 
ENDROOT
BRANCH   1   9
ATOM      7  C   UNL     1     -12.347   6.881 131.180  0.00  0.00    +0.000 C 
ATOM      8  O   UNL     1     -13.014   7.807 131.633  0.00  0.00    +0.000 OA
ATOM      9  N   UNL     1     -11.584   6.058 131.979  0.00  0.00    +0.000 N 
ATOM     10  H   UNL     1     -11.853   6.008 132.948  0.00  0.00    +0.000 HD
BRANCH   7  11
ATOM     11  O   UNL     1     -12.322   6.522 129.863  0.00  0.00    +0.000 OA
BRANCH  11  13
ATOM     12  C   UNL     1     -10.641   7.977 128.939  0.00  0.00    +0.000 C 
ATOM     13  C   UNL     1     -12.109   7.573 128.910  0.00  0.00    +0.000 C 
ENDBRANCH  11  13
ENDBRANCH   7  11
ENDBRANCH   1   9
BRANCH   2  14
ATOM     14  N   UNL     1     -11.160   3.530 130.603  0.00  0.00    +0.000 N 
ATOM     15  H   UNL     1     -11.164   3.018 129.734  0.00  0.00    +0.000 HD
ATOM     16  H   UNL     1     -11.811   3.229 131.319  0.00  0.00    +0.000 HD
ENDBRANCH   2  14
BRANCH   4  17
ATOM     17  N   UNL     1      -6.367   4.340 130.728  0.00  0.00    +0.000 N 
ATOM     18  H   UNL     1      -6.208   3.655 130.001  0.00  0.00    +0.000 HD
BRANCH  17  19
ATOM     19  C   UNL     1      -5.218   4.940 131.385  0.00  0.00    +0.000 C 
BRANCH  19  20
ATOM     20  C   UNL     1      -4.333   5.639 130.390  0.00  0.00    +0.000 A 
ATOM     21  C   UNL     1      -3.362   4.908 129.689  0.00  0.00    +0.000 A 
ATOM     22  C   UNL     1      -2.543   5.542 128.759  0.00  0.00    +0.000 A 
ATOM     23  C   UNL     1      -2.700   6.903 128.525  0.00  0.00    +0.000 A 
ATOM     24  F   UNL     1      -1.920   7.510 127.621  0.00  0.00    +0.000 F 
ATOM     25  C   UNL     1      -3.654   7.645 129.212  0.00  0.00    +0.000 A 
ATOM     26  C   UNL     1      -4.471   7.014 130.149  0.00  0.00    +0.000 A 
ENDBRANCH  19  20
ENDBRANCH  17  19
ENDBRANCH   4  17
TORSDOF 7
ENDMDL
MODEL 5
REMARK VINA RESULT:      -6.6      4.312      6.830
REMARK  Name = Ezogabine
REMARK  8 active torsions:
REMARK  status: ('A' for Active; 'I' for Inactive)
REMARK    1  A    between atoms: C_1  and  C_2
REMARK    2  A    between atoms: C_2  and  O_3
REMARK    3  A    between atoms: O_3  and  C_4
REMARK    4  A    between atoms: N_6  and  C_7
REMARK    5  A    between atoms: C_8  and  N_9
REMARK    6  A    between atoms: C_11  and  N_12
REMARK    7  A    between atoms: N_12  and  C_13
REMARK    8  A    between atoms: C_13  and  C_14
REMARK                            x       y       z     vdW  Elec       q    Type
REMARK                         _______ _______ _______ _____ _____    ______ ____
ROOT
ATOM      1  C   UNL     1      -7.190   3.477 124.859  0.00  0.00    +0.000 A 
ATOM      2  C   UNL     1      -7.327   3.049 123.523  0.00  0.00    +0.000 A 
ATOM      3  C   UNL     1      -8.059   1.862 123.272  0.00  0.00    +0.000 A 
ATOM      4  C   UNL     1      -8.636   1.102 124.306  0.00  0.00    +0.000 A 
ATOM      5  C   UNL     1      -8.509   1.585 125.603  0.00  0.00    +0.000 A 
ATOM      6  C   UNL     1      -7.823   2.755 125.870  0.00  0.00    +0.000 A 
ENDROOT
BRANCH   1   9
ATOM      7  C   UNL     1      -5.310   4.685 125.916  0.00  0.00    +0.000 C 
ATOM      8  O   UNL     1      -5.081   5.531 126.775  0.00  0.00    +0.000 OA
ATOM      9  N   UNL     1      -6.486   4.657 125.199  0.00  0.00    +0.000 N 
ATOM     10  H   UNL     1      -6.992   5.526 125.144  0.00  0.00    +0.000 HD
BRANCH   7  11
ATOM     11  O   UNL     1      -4.425   3.720 125.531  0.00  0.00    +0.000 OA
BRANCH  11  13
ATOM     12  C   UNL     1      -2.347   3.201 126.630  0.00  0.00    +0.000 C 
ATOM     13  C   UNL     1      -3.843   2.922 126.572  0.00  0.00    +0.000 C 
ENDBRANCH  11  13
ENDBRANCH   7  11
ENDBRANCH   1   9
BRANCH   2  14
ATOM     14  N   UNL     1      -6.848   3.793 122.445  0.00  0.00    +0.000 N 
ATOM     15  H   UNL     1      -5.947   3.599 122.034  0.00  0.00    +0.000 HD
ATOM     16  H   UNL     1      -7.487   4.365 121.907  0.00  0.00    +0.000 HD
ENDBRANCH   2  14
BRANCH   4  17
ATOM     17  N   UNL     1      -9.326  -0.071 124.050  0.00  0.00    +0.000 N 
ATOM     18  H   UNL     1     -10.115  -0.330 124.626  0.00  0.00    +0.000 HD
BRANCH  17  19
ATOM     19  C   UNL     1      -8.980  -0.916 122.919  0.00  0.00    +0.000 C 
BRANCH  19  20
ATOM     20  C   UNL     1      -7.852  -1.848 123.269  0.00  0.00    +0.000 A 
ATOM     21  C   UNL     1      -8.096  -2.956 124.094  0.00  0.00    +0.000 A 
ATOM     22  C   UNL     1      -7.062  -3.830 124.418  0.00  0.00    +0.000 A 
ATOM     23  C   UNL     1      -5.788  -3.601 123.911  0.00  0.00    +0.000 A 
ATOM     24  F   UNL     1      -4.797  -4.449 124.213  0.00  0.00    +0.000 F 
ATOM     25  C   UNL     1      -5.526  -2.506 123.096  0.00  0.00    +0.000 A 
ATOM     26  C   UNL     1      -6.558  -1.624 122.775  0.00  0.00    +0.000 A 
ENDBRANCH  19  20
ENDBRANCH  17  19
ENDBRANCH   4  17
TORSDOF 7
ENDMDL
MODEL 6
REMARK VINA RESULT:      -6.6      8.911     10.016
REMARK  Name = Ezogabine
REMARK  8 active torsions:
REMARK  status: ('A' for Active; 'I' for Inactive)
REMARK    1  A    between atoms: C_1  and  C_2
REMARK    2  A    between atoms: C_2  and  O_3
REMARK    3  A    between atoms: O_3  and  C_4
REMARK    4  A    between atoms: N_6  and  C_7
REMARK    5  A    between atoms: C_8  and  N_9
REMARK    6  A    between atoms: C_11  and  N_12
REMARK    7  A    between atoms: N_12  and  C_13
REMARK    8  A    between atoms: C_13  and  C_14
REMARK                            x       y       z     vdW  Elec       q    Type
REMARK                         _______ _______ _______ _____ _____    ______ ____
ROOT
ATOM      1  C   UNL     1      -9.907   5.922 131.992  0.00  0.00    +0.000 A 
ATOM      2  C   UNL     1      -9.150   5.150 132.897  0.00  0.00    +0.000 A 
ATOM      3  C   UNL     1      -7.738   5.257 132.848  0.00  0.00    +0.000 A 
ATOM      4  C   UNL     1      -7.078   6.093 131.928  0.00  0.00    +0.000 A 
ATOM      5  C   UNL     1      -7.868   6.866 131.085  0.00  0.00    +0.000 A 
ATOM      6  C   UNL     1      -9.248   6.799 131.132  0.00  0.00    +0.000 A 
ENDROOT
BRANCH   1   9
ATOM      7  C   UNL     1     -12.115   6.652 131.154  0.00  0.00    +0.000 C 
ATOM      8  O   UNL     1     -13.158   7.173 131.538  0.00  0.00    +0.000 OA
ATOM      9  N   UNL     1     -11.322   5.886 131.980  0.00  0.00    +0.000 N 
ATOM     10  H   UNL     1     -11.778   5.479 132.780  0.00  0.00    +0.000 HD
BRANCH   7  11
ATOM     11  O   UNL     1     -11.648   6.719 129.873  0.00  0.00    +0.000 OA
BRANCH  11  13
ATOM     12  C   UNL     1     -11.014   8.438 128.312  0.00  0.00    +0.000 C 
ATOM     13  C   UNL     1     -12.168   7.770 129.047  0.00  0.00    +0.000 C 
ENDBRANCH  11  13
ENDBRANCH   7  11
ENDBRANCH   1   9
BRANCH   2  14
ATOM     14  N   UNL     1      -9.738   4.360 133.883  0.00  0.00    +0.000 N 
ATOM     15  H   UNL     1     -10.686   4.027 133.793  0.00  0.00    +0.000 HD
ATOM     16  H   UNL     1      -9.154   3.908 134.577  0.00  0.00    +0.000 HD
ENDBRANCH   2  14
BRANCH   4  17
ATOM     17  N   UNL     1      -5.697   6.168 131.873  0.00  0.00    +0.000 N 
ATOM     18  H   UNL     1      -5.134   5.581 132.475  0.00  0.00    +0.000 HD
BRANCH  17  19
ATOM     19  C   UNL     1      -5.026   7.034 130.918  0.00  0.00    +0.000 C 
BRANCH  19  20
ATOM     20  C   UNL     1      -4.198   6.230 129.953  0.00  0.00    +0.000 A 
ATOM     21  C   UNL     1      -3.431   6.888 128.979  0.00  0.00    +0.000 A 
ATOM     22  C   UNL     1      -2.653   6.155 128.087  0.00  0.00    +0.000 A 
ATOM     23  C   UNL     1      -2.636   4.768 128.174  0.00  0.00    +0.000 A 
ATOM     24  F   UNL     1      -1.877   4.065 127.323  0.00  0.00    +0.000 F 
ATOM     25  C   UNL     1      -3.391   4.098 129.129  0.00  0.00    +0.000 A 
ATOM     26  C   UNL     1      -4.177   4.829 130.020  0.00  0.00    +0.000 A 
ENDBRANCH  19  20
ENDBRANCH  17  19
ENDBRANCH   4  17
TORSDOF 7
ENDMDL
MODEL 7
REMARK VINA RESULT:      -6.6      7.519      9.042
REMARK  Name = Ezogabine
REMARK  8 active torsions:
REMARK  status: ('A' for Active; 'I' for Inactive)
REMARK    1  A    between atoms: C_1  and  C_2
REMARK    2  A    between atoms: C_2  and  O_3
REMARK    3  A    between atoms: O_3  and  C_4
REMARK    4  A    between atoms: N_6  and  C_7
REMARK    5  A    between atoms: C_8  and  N_9
REMARK    6  A    between atoms: C_11  and  N_12
REMARK    7  A    between atoms: N_12  and  C_13
REMARK    8  A    between atoms: C_13  and  C_14
REMARK                            x       y       z     vdW  Elec       q    Type
REMARK                         _______ _______ _______ _____ _____    ______ ____
ROOT
ATOM      1  C   UNL     1     -10.341   5.654 131.220  0.00  0.00    +0.000 A 
ATOM      2  C   UNL     1     -10.143   4.374 130.664  0.00  0.00    +0.000 A 
ATOM      3  C   UNL     1      -8.869   4.069 130.125  0.00  0.00    +0.000 A 
ATOM      4  C   UNL     1      -7.813   4.998 130.119  0.00  0.00    +0.000 A 
ATOM      5  C   UNL     1      -8.043   6.232 130.715  0.00  0.00    +0.000 A 
ATOM      6  C   UNL     1      -9.269   6.544 131.273  0.00  0.00    +0.000 A 
ENDROOT
BRANCH   1   9
ATOM      7  C   UNL     1     -12.484   6.886 131.193  0.00  0.00    +0.000 C 
ATOM      8  O   UNL     1     -13.102   7.742 131.819  0.00  0.00    +0.000 OA
ATOM      9  N   UNL     1     -11.578   6.039 131.792  0.00  0.00    +0.000 N 
ATOM     10  H   UNL     1     -11.689   5.900 132.783  0.00  0.00    +0.000 HD
BRANCH   7  11
ATOM     11  O   UNL     1     -12.654   6.635 129.861  0.00  0.00    +0.000 OA
BRANCH  11  13
ATOM     12  C   UNL     1     -13.637   7.173 127.731  0.00  0.00    +0.000 C 
ATOM     13  C   UNL     1     -13.112   7.725 129.049  0.00  0.00    +0.000 C 
ENDBRANCH  11  13
ENDBRANCH   7  11
ENDBRANCH   1   9
BRANCH   2  14
ATOM     14  N   UNL     1     -11.120   3.380 130.704  0.00  0.00    +0.000 N 
ATOM     15  H   UNL     1     -11.522   3.005 129.859  0.00  0.00    +0.000 HD
ATOM     16  H   UNL     1     -11.262   2.850 131.557  0.00  0.00    +0.000 HD
ENDBRANCH   2  14
BRANCH   4  17
ATOM     17  N   UNL     1      -6.581   4.696 129.565  0.00  0.00    +0.000 N 
ATOM     18  H   UNL     1      -5.746   4.739 130.134  0.00  0.00    +0.000 HD
BRANCH  17  19
ATOM     19  C   UNL     1      -6.463   4.251 128.186  0.00  0.00    +0.000 C 
BRANCH  19  20
ATOM     20  C   UNL     1      -5.034   3.929 127.845  0.00  0.00    +0.000 A 
ATOM     21  C   UNL     1      -4.754   2.949 126.881  0.00  0.00    +0.000 A 
ATOM     22  C   UNL     1      -3.435   2.647 126.551  0.00  0.00    +0.000 A 
ATOM     23  C   UNL     1      -2.399   3.331 127.177  0.00  0.00    +0.000 A 
ATOM     24  F   UNL     1      -1.132   3.049 126.849  0.00  0.00    +0.000 F 
ATOM     25  C   UNL     1      -2.657   4.303 128.137  0.00  0.00    +0.000 A 
ATOM     26  C   UNL     1      -3.976   4.602 128.476  0.00  0.00    +0.000 A 
ENDBRANCH  19  20
ENDBRANCH  17  19
ENDBRANCH   4  17
TORSDOF 7
ENDMDL
MODEL 8
REMARK VINA RESULT:      -6.5      1.832      2.839
REMARK  Name = Ezogabine
REMARK  8 active torsions:
REMARK  status: ('A' for Active; 'I' for Inactive)
REMARK    1  A    between atoms: C_1  and  C_2
REMARK    2  A    between atoms: C_2  and  O_3
REMARK    3  A    between atoms: O_3  and  C_4
REMARK    4  A    between atoms: N_6  and  C_7
REMARK    5  A    between atoms: C_8  and  N_9
REMARK    6  A    between atoms: C_11  and  N_12
REMARK    7  A    between atoms: N_12  and  C_13
REMARK    8  A    between atoms: C_13  and  C_14
REMARK                            x       y       z     vdW  Elec       q    Type
REMARK                         _______ _______ _______ _____ _____    ______ ____
ROOT
ATOM      1  C   UNL     1      -8.098  -1.261 123.599  0.00  0.00    +0.000 A 
ATOM      2  C   UNL     1      -9.038  -0.338 123.095  0.00  0.00    +0.000 A 
ATOM      3  C   UNL     1      -8.751   1.043 123.219  0.00  0.00    +0.000 A 
ATOM      4  C   UNL     1      -7.575   1.516 123.831  0.00  0.00    +0.000 A 
ATOM      5  C   UNL     1      -6.660   0.569 124.275  0.00  0.00    +0.000 A 
ATOM      6  C   UNL     1      -6.905  -0.785 124.141  0.00  0.00    +0.000 A 
ENDROOT
BRANCH   1   9
ATOM      7  C   UNL     1      -8.467  -3.496 124.588  0.00  0.00    +0.000 C 
ATOM      8  O   UNL     1      -7.957  -4.611 124.646  0.00  0.00    +0.000 OA
ATOM      9  N   UNL     1      -8.298  -2.659 123.507  0.00  0.00    +0.000 N 
ATOM     10  H   UNL     1      -8.049  -3.103 122.638  0.00  0.00    +0.000 HD
BRANCH   7  11
ATOM     11  O   UNL     1      -9.294  -2.977 125.543  0.00  0.00    +0.000 OA
BRANCH  11  13
ATOM     12  C   UNL     1      -7.971  -2.407 127.471  0.00  0.00    +0.000 C 
ATOM     13  C   UNL     1      -9.026  -3.347 126.903  0.00  0.00    +0.000 C 
ENDBRANCH  11  13
ENDBRANCH   7  11
ENDBRANCH   1   9
BRANCH   2  14
ATOM     14  N   UNL     1     -10.185  -0.736 122.410  0.00  0.00    +0.000 N 
ATOM     15  H   UNL     1     -10.953  -0.100 122.259  0.00  0.00    +0.000 HD
ATOM     16  H   UNL     1     -10.166  -1.578 121.847  0.00  0.00    +0.000 HD
ENDBRANCH   2  14
BRANCH   4  17
ATOM     17  N   UNL     1      -7.320   2.869 123.968  0.00  0.00    +0.000 N 
ATOM     18  H   UNL     1      -8.054   3.494 124.276  0.00  0.00    +0.000 HD
BRANCH  17  19
ATOM     19  C   UNL     1      -5.991   3.413 123.740  0.00  0.00    +0.000 C 
BRANCH  19  20
ATOM     20  C   UNL     1      -5.861   3.945 122.340  0.00  0.00    +0.000 A 
ATOM     21  C   UNL     1      -6.861   3.670 121.395  0.00  0.00    +0.000 A 
ATOM     22  C   UNL     1      -6.755   4.164 120.098  0.00  0.00    +0.000 A 
ATOM     23  C   UNL     1      -5.656   4.939 119.748  0.00  0.00    +0.000 A 
ATOM     24  F   UNL     1      -5.562   5.425 118.504  0.00  0.00    +0.000 F 
ATOM     25  C   UNL     1      -4.653   5.220 120.669  0.00  0.00    +0.000 A 
ATOM     26  C   UNL     1      -4.752   4.720 121.967  0.00  0.00    +0.000 A 
ENDBRANCH  19  20
ENDBRANCH  17  19
ENDBRANCH   4  17
TORSDOF 7
ENDMDL
MODEL 9
REMARK VINA RESULT:      -6.4      9.075     10.720
REMARK  Name = Ezogabine
REMARK  8 active torsions:
REMARK  status: ('A' for Active; 'I' for Inactive)
REMARK    1  A    between atoms: C_1  and  C_2
REMARK    2  A    between atoms: C_2  and  O_3
REMARK    3  A    between atoms: O_3  and  C_4
REMARK    4  A    between atoms: N_6  and  C_7
REMARK    5  A    between atoms: C_8  and  N_9
REMARK    6  A    between atoms: C_11  and  N_12
REMARK    7  A    between atoms: N_12  and  C_13
REMARK    8  A    between atoms: C_13  and  C_14
REMARK                            x       y       z     vdW  Elec       q    Type
REMARK                         _______ _______ _______ _____ _____    ______ ____
ROOT
ATOM      1  C   UNL     1     -10.200   5.619 131.314  0.00  0.00    +0.000 A 
ATOM      2  C   UNL     1      -9.742   4.344 130.925  0.00  0.00    +0.000 A 
ATOM      3  C   UNL     1      -8.370   4.197 130.601  0.00  0.00    +0.000 A 
ATOM      4  C   UNL     1      -7.467   5.276 130.646  0.00  0.00    +0.000 A 
ATOM      5  C   UNL     1      -7.957   6.504 131.074  0.00  0.00    +0.000 A 
ATOM      6  C   UNL     1      -9.285   6.666 131.421  0.00  0.00    +0.000 A 
ENDROOT
BRANCH   1   9
ATOM      7  C   UNL     1     -12.370   6.776 131.050  0.00  0.00    +0.000 C 
ATOM      8  O   UNL     1     -13.160   7.477 131.674  0.00  0.00    +0.000 OA
ATOM      9  N   UNL     1     -11.552   5.854 131.665  0.00  0.00    +0.000 N 
ATOM     10  H   UNL     1     -11.856   5.523 132.566  0.00  0.00    +0.000 HD
BRANCH   7  11
ATOM     11  O   UNL     1     -12.244   6.781 129.690  0.00  0.00    +0.000 OA
BRANCH  11  13
ATOM     12  C   UNL     1     -10.823   8.303 128.483  0.00  0.00    +0.000 C 
ATOM     13  C   UNL     1     -12.217   8.063 129.047  0.00  0.00    +0.000 C 
ENDBRANCH  11  13
ENDBRANCH   7  11
ENDBRANCH   1   9
BRANCH   2  14
ATOM     14  N   UNL     1     -10.563   3.218 130.932  0.00  0.00    +0.000 N 
ATOM     15  H   UNL     1     -11.498   3.248 130.555  0.00  0.00    +0.000 HD
ATOM     16  H   UNL     1     -10.157   2.302 131.086  0.00  0.00    +0.000 HD
ENDBRANCH   2  14
BRANCH   4  17
ATOM     17  N   UNL     1      -6.135   5.124 130.302  0.00  0.00    +0.000 N 
ATOM     18  H   UNL     1      -5.790   5.507 129.432  0.00  0.00    +0.000 HD
BRANCH  17  19
ATOM     19  C   UNL     1      -5.194   4.474 131.199  0.00  0.00    +0.000 C 
BRANCH  19  20
ATOM     20  C   UNL     1      -4.023   5.371 131.492  0.00  0.00    +0.000 A 
ATOM     21  C   UNL     1      -4.227   6.750 131.653  0.00  0.00    +0.000 A 
ATOM     22  C   UNL     1      -3.152   7.590 131.933  0.00  0.00    +0.000 A 
ATOM     23  C   UNL     1      -1.877   7.050 132.061  0.00  0.00    +0.000 A 
ATOM     24  F   UNL     1      -0.846   7.857 132.343  0.00  0.00    +0.000 F 
ATOM     25  C   UNL     1      -1.655   5.687 131.902  0.00  0.00    +0.000 A 
ATOM     26  C   UNL     1      -2.728   4.844 131.614  0.00  0.00    +0.000 A 
ENDBRANCH  19  20
ENDBRANCH  17  19
ENDBRANCH   4  17
TORSDOF 7
ENDMDL
