MODEL 1
REMARK VINA RESULT:      -6.0      0.000      0.000
REMARK  Name = Famciclovir
REMARK  11 active torsions:
REMARK  status: ('A' for Active; 'I' for Inactive)
REMARK    1  A    between atoms: C_1  and  C_2
REMARK    2  A    between atoms: C_2  and  O_4
REMARK    3  A    between atoms: O_4  and  C_5
REMARK    4  A    between atoms: C_5  and  C_6
REMARK    5  A    between atoms: C_6  and  C_7
REMARK    6  A    between atoms: C_6  and  C_19
REMARK    7  A    between atoms: C_7  and  C_8
REMARK    8  A    between atoms: C_8  and  N_9
REMARK    9  A    between atoms: C_19  and  O_20
REMARK   10  A    between atoms: O_20  and  C_21
REMARK   11  A    between atoms: C_21  and  C_22
REMARK                            x       y       z     vdW  Elec       q    Type
REMARK                         _______ _______ _______ _____ _____    ______ ____
ROOT
ATOM      1  C   UNL     1      -6.896   6.777 131.155  0.00  0.00    +0.000 C 
ENDROOT
BRANCH   1   2
ATOM      2  N   UNL     1      -8.303   6.611 131.447  0.00  0.00    +0.000 N 
ATOM      3  C   UNL     1      -8.812   5.933 132.521  0.00  0.00    +0.000 A 
ATOM      4  N   UNL     1     -10.121   5.884 132.496  0.00  0.00    +0.000 NA
ATOM      5  C   UNL     1     -10.469   6.566 131.361  0.00  0.00    +0.000 A 
ATOM      6  C   UNL     1     -11.701   6.860 130.807  0.00  0.00    +0.000 A 
ATOM      7  N   UNL     1     -11.765   7.563 129.653  0.00  0.00    +0.000 NA
ATOM      8  C   UNL     1     -10.619   7.956 129.066  0.00  0.00    +0.000 A 
ATOM      9  N   UNL     1     -10.785   8.653 127.900  0.00  0.00    +0.000 N 
ATOM     10  N   UNL     1      -9.364   7.727 129.514  0.00  0.00    +0.000 NA
ATOM     11  C   UNL     1      -9.359   7.031 130.672  0.00  0.00    +0.000 A 
ATOM     12  H   UNL     1     -11.735   8.824 127.606  0.00  0.00    +0.000 HD
ATOM     13  H   UNL     1      -9.989   9.000 127.401  0.00  0.00    +0.000 HD
ENDBRANCH   1   2
BRANCH   1  14
ATOM     14  C   UNL     1      -6.116   5.461 131.010  0.00  0.00    +0.000 C 
BRANCH  14  15
ATOM     15  C   UNL     1      -6.407   4.691 129.707  0.00  0.00    +0.000 C 
BRANCH  15  16
ATOM     16  C   UNL     1      -7.316   3.466 129.948  0.00  0.00    +0.000 C 
BRANCH  16  17
ATOM     17  O   UNL     1      -8.645   3.710 129.442  0.00  0.00    +0.000 OA
BRANCH  17  19
ATOM     18  C   UNL     1      -9.168   2.074 131.079  0.00  0.00    +0.000 C 
ATOM     19  C   UNL     1      -9.663   3.152 130.153  0.00  0.00    +0.000 C 
ATOM     20  O   UNL     1     -10.844   3.467 130.033  0.00  0.00    +0.000 OA
ENDBRANCH  17  19
ENDBRANCH  16  17
ENDBRANCH  15  16
BRANCH  15  21
ATOM     21  C   UNL     1      -5.079   4.238 129.058  0.00  0.00    +0.000 C 
BRANCH  21  22
ATOM     22  O   UNL     1      -4.061   5.251 129.203  0.00  0.00    +0.000 OA
BRANCH  22  23
ATOM     23  C   UNL     1      -3.690   6.065 128.181  0.00  0.00    +0.000 C 
ATOM     24  C   UNL     1      -2.342   6.731 128.231  0.00  0.00    +0.000 C 
ATOM     25  O   UNL     1      -4.441   6.252 127.226  0.00  0.00    +0.000 OA
ENDBRANCH  22  23
ENDBRANCH  21  22
ENDBRANCH  15  21
ENDBRANCH  14  15
ENDBRANCH   1  14
TORSDOF 9
ENDMDL
MODEL 2
REMARK VINA RESULT:      -5.9      8.089      9.856
REMARK  Name = Famciclovir
REMARK  11 active torsions:
REMARK  status: ('A' for Active; 'I' for Inactive)
REMARK    1  A    between atoms: C_1  and  C_2
REMARK    2  A    between atoms: C_2  and  O_4
REMARK    3  A    between atoms: O_4  and  C_5
REMARK    4  A    between atoms: C_5  and  C_6
REMARK    5  A    between atoms: C_6  and  C_7
REMARK    6  A    between atoms: C_6  and  C_19
REMARK    7  A    between atoms: C_7  and  C_8
REMARK    8  A    between atoms: C_8  and  N_9
REMARK    9  A    between atoms: C_19  and  O_20
REMARK   10  A    between atoms: O_20  and  C_21
REMARK   11  A    between atoms: C_21  and  C_22
REMARK                            x       y       z     vdW  Elec       q    Type
REMARK                         _______ _______ _______ _____ _____    ______ ____
ROOT
ATOM      1  C   UNL     1      -7.563   2.332 124.736  0.00  0.00    +0.000 C 
ENDROOT
BRANCH   1   2
ATOM      2  N   UNL     1      -7.853   2.744 123.380  0.00  0.00    +0.000 N 
ATOM      3  C   UNL     1      -9.020   2.494 122.711  0.00  0.00    +0.000 A 
ATOM      4  N   UNL     1      -8.979   2.922 121.473  0.00  0.00    +0.000 NA
ATOM      5  C   UNL     1      -7.735   3.480 121.344  0.00  0.00    +0.000 A 
ATOM      6  C   UNL     1      -7.115   4.104 120.278  0.00  0.00    +0.000 A 
ATOM      7  N   UNL     1      -5.854   4.573 120.418  0.00  0.00    +0.000 NA
ATOM      8  C   UNL     1      -5.228   4.414 121.600  0.00  0.00    +0.000 A 
ATOM      9  N   UNL     1      -3.955   4.912 121.643  0.00  0.00    +0.000 N 
ATOM     10  N   UNL     1      -5.734   3.822 122.706  0.00  0.00    +0.000 NA
ATOM     11  C   UNL     1      -6.996   3.382 122.512  0.00  0.00    +0.000 A 
ATOM     12  H   UNL     1      -3.618   5.365 120.808  0.00  0.00    +0.000 HD
ATOM     13  H   UNL     1      -3.417   4.854 122.487  0.00  0.00    +0.000 HD
ENDBRANCH   1   2
BRANCH   1  14
ATOM     14  C   UNL     1      -8.346   1.097 125.207  0.00  0.00    +0.000 C 
BRANCH  14  15
ATOM     15  C   UNL     1      -7.485  -0.168 125.392  0.00  0.00    +0.000 C 
BRANCH  15  16
ATOM     16  C   UNL     1      -6.770  -0.580 124.087  0.00  0.00    +0.000 C 
BRANCH  16  17
ATOM     17  O   UNL     1      -5.798  -1.614 124.342  0.00  0.00    +0.000 OA
BRANCH  17  19
ATOM     18  C   UNL     1      -4.766  -3.666 123.746  0.00  0.00    +0.000 C 
ATOM     19  C   UNL     1      -5.528  -2.448 123.300  0.00  0.00    +0.000 C 
ATOM     20  O   UNL     1      -5.843  -2.222 122.135  0.00  0.00    +0.000 OA
ENDBRANCH  17  19
ENDBRANCH  16  17
ENDBRANCH  15  16
BRANCH  15  21
ATOM     21  C   UNL     1      -8.367  -1.334 125.896  0.00  0.00    +0.000 C 
BRANCH  21  22
ATOM     22  O   UNL     1      -9.297  -1.756 124.875  0.00  0.00    +0.000 OA
BRANCH  22  23
ATOM     23  C   UNL     1      -9.247  -2.989 124.306  0.00  0.00    +0.000 C 
ATOM     24  C   UNL     1      -8.344  -4.033 124.903  0.00  0.00    +0.000 C 
ATOM     25  O   UNL     1      -9.934  -3.250 123.320  0.00  0.00    +0.000 OA
ENDBRANCH  22  23
ENDBRANCH  21  22
ENDBRANCH  15  21
ENDBRANCH  14  15
ENDBRANCH   1  14
TORSDOF 9
ENDMDL
MODEL 3
REMARK VINA RESULT:      -5.9      1.121      4.180
REMARK  Name = Famciclovir
REMARK  11 active torsions:
REMARK  status: ('A' for Active; 'I' for Inactive)
REMARK    1  A    between atoms: C_1  and  C_2
REMARK    2  A    between atoms: C_2  and  O_4
REMARK    3  A    between atoms: O_4  and  C_5
REMARK    4  A    between atoms: C_5  and  C_6
REMARK    5  A    between atoms: C_6  and  C_7
REMARK    6  A    between atoms: C_6  and  C_19
REMARK    7  A    between atoms: C_7  and  C_8
REMARK    8  A    between atoms: C_8  and  N_9
REMARK    9  A    between atoms: C_19  and  O_20
REMARK   10  A    between atoms: O_20  and  C_21
REMARK   11  A    between atoms: C_21  and  C_22
REMARK                            x       y       z     vdW  Elec       q    Type
REMARK                         _______ _______ _______ _____ _____    ______ ____
ROOT
ATOM      1  C   UNL     1      -7.493   6.842 131.180  0.00  0.00    +0.000 C 
ENDROOT
BRANCH   1   2
ATOM      2  N   UNL     1      -8.928   6.702 131.296  0.00  0.00    +0.000 N 
ATOM      3  C   UNL     1      -9.585   6.174 132.373  0.00  0.00    +0.000 A 
ATOM      4  N   UNL     1     -10.879   6.106 132.175  0.00  0.00    +0.000 NA
ATOM      5  C   UNL     1     -11.062   6.622 130.920  0.00  0.00    +0.000 A 
ATOM      6  C   UNL     1     -12.204   6.823 130.167  0.00  0.00    +0.000 A 
ATOM      7  N   UNL     1     -12.103   7.359 128.929  0.00  0.00    +0.000 NA
ATOM      8  C   UNL     1     -10.884   7.680 128.456  0.00  0.00    +0.000 A 
ATOM      9  N   UNL     1     -10.883   8.207 127.194  0.00  0.00    +0.000 N 
ATOM     10  N   UNL     1      -9.704   7.529 129.100  0.00  0.00    +0.000 NA
ATOM     11  C   UNL     1      -9.865   7.000 130.333  0.00  0.00    +0.000 A 
ATOM     12  H   UNL     1     -11.781   8.325 126.752  0.00  0.00    +0.000 HD
ATOM     13  H   UNL     1     -10.022   8.491 126.765  0.00  0.00    +0.000 HD
ENDBRANCH   1   2
BRANCH   1  14
ATOM     14  C   UNL     1      -6.688   6.010 132.190  0.00  0.00    +0.000 C 
BRANCH  14  15
ATOM     15  C   UNL     1      -5.996   4.773 131.585  0.00  0.00    +0.000 C 
BRANCH  15  16
ATOM     16  C   UNL     1      -5.549   5.013 130.126  0.00  0.00    +0.000 C 
BRANCH  16  17
ATOM     17  O   UNL     1      -4.240   5.617 130.087  0.00  0.00    +0.000 OA
BRANCH  17  19
ATOM     18  C   UNL     1      -4.032   7.977 130.222  0.00  0.00    +0.000 C 
ATOM     19  C   UNL     1      -4.132   6.756 129.348  0.00  0.00    +0.000 C 
ATOM     20  O   UNL     1      -4.142   6.787 128.121  0.00  0.00    +0.000 OA
ENDBRANCH  17  19
ENDBRANCH  16  17
ENDBRANCH  15  16
BRANCH  15  21
ATOM     21  C   UNL     1      -6.948   3.557 131.647  0.00  0.00    +0.000 C 
BRANCH  21  22
ATOM     22  O   UNL     1      -7.727   3.448 130.436  0.00  0.00    +0.000 OA
BRANCH  22  23
ATOM     23  C   UNL     1      -9.059   3.183 130.445  0.00  0.00    +0.000 C 
ATOM     24  C   UNL     1      -9.650   2.453 131.620  0.00  0.00    +0.000 C 
ATOM     25  O   UNL     1      -9.773   3.538 129.509  0.00  0.00    +0.000 OA
ENDBRANCH  22  23
ENDBRANCH  21  22
ENDBRANCH  15  21
ENDBRANCH  14  15
ENDBRANCH   1  14
TORSDOF 9
ENDMDL
MODEL 4
REMARK VINA RESULT:      -5.8      2.784      3.368
REMARK  Name = Famciclovir
REMARK  11 active torsions:
REMARK  status: ('A' for Active; 'I' for Inactive)
REMARK    1  A    between atoms: C_1  and  C_2
REMARK    2  A    between atoms: C_2  and  O_4
REMARK    3  A    between atoms: O_4  and  C_5
REMARK    4  A    between atoms: C_5  and  C_6
REMARK    5  A    between atoms: C_6  and  C_7
REMARK    6  A    between atoms: C_6  and  C_19
REMARK    7  A    between atoms: C_7  and  C_8
REMARK    8  A    between atoms: C_8  and  N_9
REMARK    9  A    between atoms: C_19  and  O_20
REMARK   10  A    between atoms: O_20  and  C_21
REMARK   11  A    between atoms: C_21  and  C_22
REMARK                            x       y       z     vdW  Elec       q    Type
REMARK                         _______ _______ _______ _____ _____    ______ ____
ROOT
ATOM      1  C   UNL     1     -10.348   4.521 130.453  0.00  0.00    +0.000 C 
ENDROOT
BRANCH   1   2
ATOM      2  N   UNL     1     -11.092   5.759 130.539  0.00  0.00    +0.000 N 
ATOM      3  C   UNL     1     -11.752   6.209 131.649  0.00  0.00    +0.000 A 
ATOM      4  N   UNL     1     -12.398   7.326 131.419  0.00  0.00    +0.000 NA
ATOM      5  C   UNL     1     -12.135   7.610 130.106  0.00  0.00    +0.000 A 
ATOM      6  C   UNL     1     -12.527   8.660 129.298  0.00  0.00    +0.000 A 
ATOM      7  N   UNL     1     -12.120   8.700 128.008  0.00  0.00    +0.000 NA
ATOM      8  C   UNL     1     -11.343   7.705 127.539  0.00  0.00    +0.000 A 
ATOM      9  N   UNL     1     -10.990   7.829 126.224  0.00  0.00    +0.000 N 
ATOM     10  N   UNL     1     -10.900   6.633 128.235  0.00  0.00    +0.000 NA
ATOM     11  C   UNL     1     -11.328   6.649 129.517  0.00  0.00    +0.000 A 
ATOM     12  H   UNL     1     -11.320   8.650 125.742  0.00  0.00    +0.000 HD
ATOM     13  H   UNL     1     -10.399   7.144 125.792  0.00  0.00    +0.000 HD
ENDBRANCH   1   2
BRANCH   1  14
ATOM     14  C   UNL     1      -8.831   4.700 130.287  0.00  0.00    +0.000 C 
BRANCH  14  15
ATOM     15  C   UNL     1      -8.080   3.415 129.889  0.00  0.00    +0.000 C 
BRANCH  15  16
ATOM     16  C   UNL     1      -7.104   2.948 130.991  0.00  0.00    +0.000 C 
BRANCH  16  17
ATOM     17  O   UNL     1      -7.380   3.623 132.236  0.00  0.00    +0.000 OA
BRANCH  17  19
ATOM     18  C   UNL     1      -9.076   3.742 133.891  0.00  0.00    +0.000 C 
ATOM     19  C   UNL     1      -8.061   2.899 133.166  0.00  0.00    +0.000 C 
ATOM     20  O   UNL     1      -7.856   1.713 133.407  0.00  0.00    +0.000 OA
ENDBRANCH  17  19
ENDBRANCH  16  17
ENDBRANCH  15  16
BRANCH  15  21
ATOM     21  C   UNL     1      -7.308   3.646 128.570  0.00  0.00    +0.000 C 
BRANCH  21  22
ATOM     22  O   UNL     1      -7.874   4.746 127.826  0.00  0.00    +0.000 OA
BRANCH  22  23
ATOM     23  C   UNL     1      -8.161   4.662 126.501  0.00  0.00    +0.000 C 
ATOM     24  C   UNL     1      -7.706   3.452 125.732  0.00  0.00    +0.000 C 
ATOM     25  O   UNL     1      -8.787   5.558 125.939  0.00  0.00    +0.000 OA
ENDBRANCH  22  23
ENDBRANCH  21  22
ENDBRANCH  15  21
ENDBRANCH  14  15
ENDBRANCH   1  14
TORSDOF 9
ENDMDL
MODEL 5
REMARK VINA RESULT:      -5.8      7.788      9.003
REMARK  Name = Famciclovir
REMARK  11 active torsions:
REMARK  status: ('A' for Active; 'I' for Inactive)
REMARK    1  A    between atoms: C_1  and  C_2
REMARK    2  A    between atoms: C_2  and  O_4
REMARK    3  A    between atoms: O_4  and  C_5
REMARK    4  A    between atoms: C_5  and  C_6
REMARK    5  A    between atoms: C_6  and  C_7
REMARK    6  A    between atoms: C_6  and  C_19
REMARK    7  A    between atoms: C_7  and  C_8
REMARK    8  A    between atoms: C_8  and  N_9
REMARK    9  A    between atoms: C_19  and  O_20
REMARK   10  A    between atoms: O_20  and  C_21
REMARK   11  A    between atoms: C_21  and  C_22
REMARK                            x       y       z     vdW  Elec       q    Type
REMARK                         _______ _______ _______ _____ _____    ______ ____
ROOT
ATOM      1  C   UNL     1      -8.142   2.796 123.473  0.00  0.00    +0.000 C 
ENDROOT
BRANCH   1   2
ATOM      2  N   UNL     1      -7.285   3.290 122.418  0.00  0.00    +0.000 N 
ATOM      3  C   UNL     1      -5.938   3.497 122.526  0.00  0.00    +0.000 A 
ATOM      4  N   UNL     1      -5.430   4.015 121.434  0.00  0.00    +0.000 NA
ATOM      5  C   UNL     1      -6.497   4.139 120.585  0.00  0.00    +0.000 A 
ATOM      6  C   UNL     1      -6.588   4.609 119.288  0.00  0.00    +0.000 A 
ATOM      7  N   UNL     1      -7.789   4.625 118.665  0.00  0.00    +0.000 NA
ATOM      8  C   UNL     1      -8.874   4.184 119.331  0.00  0.00    +0.000 A 
ATOM      9  N   UNL     1     -10.042   4.247 118.623  0.00  0.00    +0.000 N 
ATOM     10  N   UNL     1      -8.903   3.704 120.595  0.00  0.00    +0.000 NA
ATOM     11  C   UNL     1      -7.678   3.703 121.165  0.00  0.00    +0.000 A 
ATOM     12  H   UNL     1      -9.980   4.590 117.676  0.00  0.00    +0.000 HD
ATOM     13  H   UNL     1     -10.899   3.925 119.031  0.00  0.00    +0.000 HD
ENDBRANCH   1   2
BRANCH   1  14
ATOM     14  C   UNL     1      -8.199   1.265 123.583  0.00  0.00    +0.000 C 
BRANCH  14  15
ATOM     15  C   UNL     1      -6.970   0.630 124.263  0.00  0.00    +0.000 C 
BRANCH  15  16
ATOM     16  C   UNL     1      -7.106  -0.902 124.395  0.00  0.00    +0.000 C 
BRANCH  16  17
ATOM     17  O   UNL     1      -7.857  -1.444 123.289  0.00  0.00    +0.000 OA
BRANCH  17  19
ATOM     18  C   UNL     1      -7.996  -3.596 124.280  0.00  0.00    +0.000 C 
ATOM     19  C   UNL     1      -8.708  -2.463 123.591  0.00  0.00    +0.000 C 
ATOM     20  O   UNL     1      -9.904  -2.471 123.313  0.00  0.00    +0.000 OA
ENDBRANCH  17  19
ENDBRANCH  16  17
ENDBRANCH  15  16
BRANCH  15  21
ATOM     21  C   UNL     1      -6.760   1.260 125.659  0.00  0.00    +0.000 C 
BRANCH  21  22
ATOM     22  O   UNL     1      -5.376   1.614 125.864  0.00  0.00    +0.000 OA
BRANCH  22  23
ATOM     23  C   UNL     1      -4.978   2.887 126.123  0.00  0.00    +0.000 C 
ATOM     24  C   UNL     1      -3.527   3.152 126.417  0.00  0.00    +0.000 C 
ATOM     25  O   UNL     1      -5.789   3.810 126.112  0.00  0.00    +0.000 OA
ENDBRANCH  22  23
ENDBRANCH  21  22
ENDBRANCH  15  21
ENDBRANCH  14  15
ENDBRANCH   1  14
TORSDOF 9
ENDMDL
MODEL 6
REMARK VINA RESULT:      -5.7      2.613      5.466
REMARK  Name = Famciclovir
REMARK  11 active torsions:
REMARK  status: ('A' for Active; 'I' for Inactive)
REMARK    1  A    between atoms: C_1  and  C_2
REMARK    2  A    between atoms: C_2  and  O_4
REMARK    3  A    between atoms: O_4  and  C_5
REMARK    4  A    between atoms: C_5  and  C_6
REMARK    5  A    between atoms: C_6  and  C_7
REMARK    6  A    between atoms: C_6  and  C_19
REMARK    7  A    between atoms: C_7  and  C_8
REMARK    8  A    between atoms: C_8  and  N_9
REMARK    9  A    between atoms: C_19  and  O_20
REMARK   10  A    between atoms: O_20  and  C_21
REMARK   11  A    between atoms: C_21  and  C_22
REMARK                            x       y       z     vdW  Elec       q    Type
REMARK                         _______ _______ _______ _____ _____    ______ ____
ROOT
ATOM      1  C   UNL     1      -8.889   7.108 130.661  0.00  0.00    +0.000 C 
ENDROOT
BRANCH   1   2
ATOM      2  N   UNL     1      -7.797   6.622 131.476  0.00  0.00    +0.000 N 
ATOM      3  C   UNL     1      -7.934   5.914 132.639  0.00  0.00    +0.000 A 
ATOM      4  N   UNL     1      -6.777   5.666 133.203  0.00  0.00    +0.000 NA
ATOM      5  C   UNL     1      -5.857   6.232 132.361  0.00  0.00    +0.000 A 
ATOM      6  C   UNL     1      -4.477   6.289 132.415  0.00  0.00    +0.000 A 
ATOM      7  N   UNL     1      -3.794   6.925 131.436  0.00  0.00    +0.000 NA
ATOM      8  C   UNL     1      -4.482   7.496 130.429  0.00  0.00    +0.000 A 
ATOM      9  N   UNL     1      -3.707   8.122 129.492  0.00  0.00    +0.000 N 
ATOM     10  N   UNL     1      -5.826   7.503 130.273  0.00  0.00    +0.000 NA
ATOM     11  C   UNL     1      -6.455   6.847 131.273  0.00  0.00    +0.000 A 
ATOM     12  H   UNL     1      -2.709   8.079 129.628  0.00  0.00    +0.000 HD
ATOM     13  H   UNL     1      -4.131   8.562 128.697  0.00  0.00    +0.000 HD
ENDBRANCH   1   2
BRANCH   1  14
ATOM     14  C   UNL     1     -10.265   6.532 131.030  0.00  0.00    +0.000 C 
BRANCH  14  15
ATOM     15  C   UNL     1     -10.889   5.633 129.945  0.00  0.00    +0.000 C 
BRANCH  15  16
ATOM     16  C   UNL     1     -12.257   6.167 129.467  0.00  0.00    +0.000 C 
BRANCH  16  17
ATOM     17  O   UNL     1     -12.179   6.615 128.098  0.00  0.00    +0.000 OA
BRANCH  17  19
ATOM     18  C   UNL     1     -12.487   8.865 128.784  0.00  0.00    +0.000 C 
ATOM     19  C   UNL     1     -11.740   7.891 127.914  0.00  0.00    +0.000 C 
ATOM     20  O   UNL     1     -10.864   8.213 127.117  0.00  0.00    +0.000 OA
ENDBRANCH  17  19
ENDBRANCH  16  17
ENDBRANCH  15  16
BRANCH  15  21
ATOM     21  C   UNL     1     -11.049   4.193 130.485  0.00  0.00    +0.000 C 
BRANCH  21  22
ATOM     22  O   UNL     1     -10.265   3.261 129.711  0.00  0.00    +0.000 OA
BRANCH  22  23
ATOM     23  C   UNL     1      -8.929   3.416 129.514  0.00  0.00    +0.000 C 
ATOM     24  C   UNL     1      -7.980   3.029 130.614  0.00  0.00    +0.000 C 
ATOM     25  O   UNL     1      -8.502   3.862 128.451  0.00  0.00    +0.000 OA
ENDBRANCH  22  23
ENDBRANCH  21  22
ENDBRANCH  15  21
ENDBRANCH  14  15
ENDBRANCH   1  14
TORSDOF 9
ENDMDL
MODEL 7
REMARK VINA RESULT:      -5.7      8.040      9.779
REMARK  Name = Famciclovir
REMARK  11 active torsions:
REMARK  status: ('A' for Active; 'I' for Inactive)
REMARK    1  A    between atoms: C_1  and  C_2
REMARK    2  A    between atoms: C_2  and  O_4
REMARK    3  A    between atoms: O_4  and  C_5
REMARK    4  A    between atoms: C_5  and  C_6
REMARK    5  A    between atoms: C_6  and  C_7
REMARK    6  A    between atoms: C_6  and  C_19
REMARK    7  A    between atoms: C_7  and  C_8
REMARK    8  A    between atoms: C_8  and  N_9
REMARK    9  A    between atoms: C_19  and  O_20
REMARK   10  A    between atoms: O_20  and  C_21
REMARK   11  A    between atoms: C_21  and  C_22
REMARK                            x       y       z     vdW  Elec       q    Type
REMARK                         _______ _______ _______ _____ _____    ______ ____
ROOT
ATOM      1  C   UNL     1      -8.035   2.940 123.523  0.00  0.00    +0.000 C 
ENDROOT
BRANCH   1   2
ATOM      2  N   UNL     1      -7.201   3.368 122.422  0.00  0.00    +0.000 N 
ATOM      3  C   UNL     1      -5.844   3.534 122.477  0.00  0.00    +0.000 A 
ATOM      4  N   UNL     1      -5.359   3.997 121.351  0.00  0.00    +0.000 NA
ATOM      5  C   UNL     1      -6.451   4.126 120.534  0.00  0.00    +0.000 A 
ATOM      6  C   UNL     1      -6.572   4.553 119.225  0.00  0.00    +0.000 A 
ATOM      7  N   UNL     1      -7.793   4.587 118.643  0.00  0.00    +0.000 NA
ATOM      8  C   UNL     1      -8.867   4.206 119.361  0.00  0.00    +0.000 A 
ATOM      9  N   UNL     1     -10.057   4.282 118.690  0.00  0.00    +0.000 N 
ATOM     10  N   UNL     1      -8.868   3.771 120.642  0.00  0.00    +0.000 NA
ATOM     11  C   UNL     1      -7.624   3.750 121.169  0.00  0.00    +0.000 A 
ATOM     12  H   UNL     1     -10.017   4.589 117.731  0.00  0.00    +0.000 HD
ATOM     13  H   UNL     1     -10.909   4.003 119.139  0.00  0.00    +0.000 HD
ENDBRANCH   1   2
BRANCH   1  14
ATOM     14  C   UNL     1      -7.285   2.194 124.637  0.00  0.00    +0.000 C 
BRANCH  14  15
ATOM     15  C   UNL     1      -7.656   0.703 124.765  0.00  0.00    +0.000 C 
BRANCH  15  16
ATOM     16  C   UNL     1      -7.990   0.069 123.397  0.00  0.00    +0.000 C 
BRANCH  16  17
ATOM     17  O   UNL     1      -6.900  -0.756 122.937  0.00  0.00    +0.000 OA
BRANCH  17  19
ATOM     18  C   UNL     1      -8.446  -2.556 122.931  0.00  0.00    +0.000 C 
ATOM     19  C   UNL     1      -7.032  -2.093 123.158  0.00  0.00    +0.000 C 
ATOM     20  O   UNL     1      -6.119  -2.827 123.524  0.00  0.00    +0.000 OA
ENDBRANCH  17  19
ENDBRANCH  16  17
ENDBRANCH  15  16
BRANCH  15  21
ATOM     21  C   UNL     1      -8.858   0.542 125.724  0.00  0.00    +0.000 C 
BRANCH  21  22
ATOM     22  O   UNL     1      -9.221  -0.848 125.868  0.00  0.00    +0.000 OA
BRANCH  22  23
ATOM     23  C   UNL     1      -8.547  -1.699 126.685  0.00  0.00    +0.000 C 
ATOM     24  C   UNL     1      -8.673  -3.180 126.458  0.00  0.00    +0.000 C 
ATOM     25  O   UNL     1      -7.840  -1.266 127.593  0.00  0.00    +0.000 OA
ENDBRANCH  22  23
ENDBRANCH  21  22
ENDBRANCH  15  21
ENDBRANCH  14  15
ENDBRANCH   1  14
TORSDOF 9
ENDMDL
MODEL 8
REMARK VINA RESULT:      -5.7      2.388      3.950
REMARK  Name = Famciclovir
REMARK  11 active torsions:
REMARK  status: ('A' for Active; 'I' for Inactive)
REMARK    1  A    between atoms: C_1  and  C_2
REMARK    2  A    between atoms: C_2  and  O_4
REMARK    3  A    between atoms: O_4  and  C_5
REMARK    4  A    between atoms: C_5  and  C_6
REMARK    5  A    between atoms: C_6  and  C_7
REMARK    6  A    between atoms: C_6  and  C_19
REMARK    7  A    between atoms: C_7  and  C_8
REMARK    8  A    between atoms: C_8  and  N_9
REMARK    9  A    between atoms: C_19  and  O_20
REMARK   10  A    between atoms: O_20  and  C_21
REMARK   11  A    between atoms: C_21  and  C_22
REMARK                            x       y       z     vdW  Elec       q    Type
REMARK                         _______ _______ _______ _____ _____    ______ ____
ROOT
ATOM      1  C   UNL     1      -7.017   6.836 131.186  0.00  0.00    +0.000 C 
ENDROOT
BRANCH   1   2
ATOM      2  N   UNL     1      -8.426   6.621 131.434  0.00  0.00    +0.000 N 
ATOM      3  C   UNL     1      -8.944   5.902 132.476  0.00  0.00    +0.000 A 
ATOM      4  N   UNL     1     -10.250   5.815 132.414  0.00  0.00    +0.000 NA
ATOM      5  C   UNL     1     -10.587   6.517 131.287  0.00  0.00    +0.000 A 
ATOM      6  C   UNL     1     -11.811   6.789 130.707  0.00  0.00    +0.000 A 
ATOM      7  N   UNL     1     -11.865   7.520 129.569  0.00  0.00    +0.000 NA
ATOM      8  C   UNL     1     -10.716   7.961 129.024  0.00  0.00    +0.000 A 
ATOM      9  N   UNL     1     -10.871   8.682 127.873  0.00  0.00    +0.000 N 
ATOM     10  N   UNL     1      -9.467   7.757 129.501  0.00  0.00    +0.000 NA
ATOM     11  C   UNL     1      -9.473   7.031 130.641  0.00  0.00    +0.000 A 
ATOM     12  H   UNL     1     -11.817   8.833 127.557  0.00  0.00    +0.000 HD
ATOM     13  H   UNL     1     -10.072   9.065 127.404  0.00  0.00    +0.000 HD
ENDBRANCH   1   2
BRANCH   1  14
ATOM     14  C   UNL     1      -6.083   6.218 132.238  0.00  0.00    +0.000 C 
BRANCH  14  15
ATOM     15  C   UNL     1      -5.099   5.173 131.678  0.00  0.00    +0.000 C 
BRANCH  15  16
ATOM     16  C   UNL     1      -3.659   5.401 132.186  0.00  0.00    +0.000 C 
BRANCH  16  17
ATOM     17  O   UNL     1      -3.504   6.742 132.695  0.00  0.00    +0.000 OA
BRANCH  17  19
ATOM     18  C   UNL     1      -2.427   8.856 132.656  0.00  0.00    +0.000 C 
ATOM     19  C   UNL     1      -2.359   7.386 132.338  0.00  0.00    +0.000 C 
ATOM     20  O   UNL     1      -1.400   6.844 131.798  0.00  0.00    +0.000 OA
ENDBRANCH  17  19
ENDBRANCH  16  17
ENDBRANCH  15  16
BRANCH  15  21
ATOM     21  C   UNL     1      -5.120   5.208 130.132  0.00  0.00    +0.000 C 
BRANCH  21  22
ATOM     22  O   UNL     1      -3.811   5.508 129.604  0.00  0.00    +0.000 OA
BRANCH  22  23
ATOM     23  C   UNL     1      -3.525   6.682 128.983  0.00  0.00    +0.000 C 
ATOM     24  C   UNL     1      -2.263   6.790 128.172  0.00  0.00    +0.000 C 
ATOM     25  O   UNL     1      -4.288   7.641 129.078  0.00  0.00    +0.000 OA
ENDBRANCH  22  23
ENDBRANCH  21  22
ENDBRANCH  15  21
ENDBRANCH  14  15
ENDBRANCH   1  14
TORSDOF 9
ENDMDL
MODEL 9
REMARK VINA RESULT:      -5.7      2.670      5.026
REMARK  Name = Famciclovir
REMARK  11 active torsions:
REMARK  status: ('A' for Active; 'I' for Inactive)
REMARK    1  A    between atoms: C_1  and  C_2
REMARK    2  A    between atoms: C_2  and  O_4
REMARK    3  A    between atoms: O_4  and  C_5
REMARK    4  A    between atoms: C_5  and  C_6
REMARK    5  A    between atoms: C_6  and  C_7
REMARK    6  A    between atoms: C_6  and  C_19
REMARK    7  A    between atoms: C_7  and  C_8
REMARK    8  A    between atoms: C_8  and  N_9
REMARK    9  A    between atoms: C_19  and  O_20
REMARK   10  A    between atoms: O_20  and  C_21
REMARK   11  A    between atoms: C_21  and  C_22
REMARK                            x       y       z     vdW  Elec       q    Type
REMARK                         _______ _______ _______ _____ _____    ______ ____
ROOT
ATOM      1  C   UNL     1      -9.357   5.675 130.931  0.00  0.00    +0.000 C 
ENDROOT
BRANCH   1   2
ATOM      2  N   UNL     1     -10.667   6.270 130.785  0.00  0.00    +0.000 N 
ATOM      3  C   UNL     1     -11.594   6.394 131.784  0.00  0.00    +0.000 A 
ATOM      4  N   UNL     1     -12.719   6.909 131.350  0.00  0.00    +0.000 NA
ATOM      5  C   UNL     1     -12.502   7.134 130.017  0.00  0.00    +0.000 A 
ATOM      6  C   UNL     1     -13.311   7.671 129.033  0.00  0.00    +0.000 A 
ATOM      7  N   UNL     1     -12.842   7.782 127.769  0.00  0.00    +0.000 NA
ATOM      8  C   UNL     1     -11.593   7.358 127.498  0.00  0.00    +0.000 A 
ATOM      9  N   UNL     1     -11.213   7.503 126.192  0.00  0.00    +0.000 N 
ATOM     10  N   UNL     1     -10.717   6.819 128.376  0.00  0.00    +0.000 NA
ATOM     11  C   UNL     1     -11.233   6.741 129.622  0.00  0.00    +0.000 A 
ATOM     12  H   UNL     1     -11.883   7.927 125.569  0.00  0.00    +0.000 HD
ATOM     13  H   UNL     1     -10.294   7.229 125.899  0.00  0.00    +0.000 HD
ENDBRANCH   1   2
BRANCH   1  14
ATOM     14  C   UNL     1      -8.219   6.684 131.144  0.00  0.00    +0.000 C 
BRANCH  14  15
ATOM     15  C   UNL     1      -7.199   6.273 132.224  0.00  0.00    +0.000 C 
BRANCH  15  16
ATOM     16  C   UNL     1      -5.754   6.258 131.682  0.00  0.00    +0.000 C 
BRANCH  16  17
ATOM     17  O   UNL     1      -5.668   6.983 130.438  0.00  0.00    +0.000 OA
BRANCH  17  19
ATOM     18  C   UNL     1      -3.564   7.601 131.346  0.00  0.00    +0.000 C 
ATOM     19  C   UNL     1      -4.443   7.491 130.129  0.00  0.00    +0.000 C 
ATOM     20  O   UNL     1      -4.104   7.844 129.003  0.00  0.00    +0.000 OA
ENDBRANCH  17  19
ENDBRANCH  16  17
ENDBRANCH  15  16
BRANCH  15  21
ATOM     21  C   UNL     1      -7.563   4.879 132.785  0.00  0.00    +0.000 C 
BRANCH  21  22
ATOM     22  O   UNL     1      -8.118   4.984 134.113  0.00  0.00    +0.000 OA
BRANCH  22  23
ATOM     23  C   UNL     1      -7.342   5.067 135.225  0.00  0.00    +0.000 C 
ATOM     24  C   UNL     1      -7.685   6.082 136.280  0.00  0.00    +0.000 C 
ATOM     25  O   UNL     1      -6.377   4.319 135.370  0.00  0.00    +0.000 OA
ENDBRANCH  22  23
ENDBRANCH  21  22
ENDBRANCH  15  21
ENDBRANCH  14  15
ENDBRANCH   1  14
TORSDOF 9
ENDMDL
