MODEL 1
REMARK VINA RESULT:      -5.8      0.000      0.000
REMARK  Name = Famotidine
REMARK  8 active torsions:
REMARK  status: ('A' for Active; 'I' for Inactive)
REMARK    1  A    between atoms: N_4  and  C_5
REMARK    2  A    between atoms: C_7  and  C_8
REMARK    3  A    between atoms: C_8  and  S_9
REMARK    4  A    between atoms: S_9  and  C_10
REMARK    5  A    between atoms: C_10  and  C_11
REMARK    6  A    between atoms: C_11  and  C_12
REMARK    7  A    between atoms: N_14  and  S_15
REMARK    8  A    between atoms: S_15  and  N_16
REMARK                            x       y       z     vdW  Elec       q    Type
REMARK                         _______ _______ _______ _____ _____    ______ ____
ROOT
ATOM      1  C   UNL     1      -9.585   4.688 131.686  0.00  0.00    +0.000 C 
ENDROOT
BRANCH   1   4
ATOM      2  C   UNL     1     -12.071   6.252 129.490  0.00  0.00    +0.000 A 
ATOM      3  N   UNL     1     -11.098   5.425 129.816  0.00  0.00    +0.000 NA
ATOM      4  C   UNL     1     -10.725   5.531 131.153  0.00  0.00    +0.000 A 
ATOM      5  C   UNL     1     -11.490   6.438 131.861  0.00  0.00    +0.000 A 
ATOM      6  S   UNL     1     -12.636   7.194 130.823  0.00  0.00    +0.000 S 
BRANCH   2  10
ATOM      7  N   UNL     1     -12.440   7.351 126.165  0.00  0.00    +0.000 N 
ATOM      8  C   UNL     1     -11.953   7.125 127.405  0.00  0.00    +0.000 C 
ATOM      9  N   UNL     1     -10.716   7.664 127.561  0.00  0.00    +0.000 N 
ATOM     10  N   UNL     1     -12.620   6.405 128.254  0.00  0.00    +0.000 NA
ATOM     11  H   UNL     1     -12.008   7.981 125.510  0.00  0.00    +0.000 HD
ATOM     12  H   UNL     1     -13.364   7.002 125.943  0.00  0.00    +0.000 HD
ATOM     13  H   UNL     1     -10.401   8.418 126.972  0.00  0.00    +0.000 HD
ATOM     14  H   UNL     1     -10.418   7.744 128.534  0.00  0.00    +0.000 HD
ENDBRANCH   2  10
ENDBRANCH   1   4
BRANCH   1  15
ATOM     15  S   UNL     1      -9.816   2.911 131.239  0.00  0.00    +0.000 S 
BRANCH  15  16
ATOM     16  C   UNL     1      -8.192   2.447 130.583  0.00  0.00    +0.000 C 
BRANCH  16  17
ATOM     17  C   UNL     1      -8.303   2.127 129.085  0.00  0.00    +0.000 C 
BRANCH  17  18
ATOM     18  C   UNL     1      -8.009   3.329 128.158  0.00  0.00    +0.000 C 
ATOM     19  N   UNL     1      -7.535   4.495 128.720  0.00  0.00    +0.000 N 
ATOM     20  N   UNL     1      -8.255   3.164 126.895  0.00  0.00    +0.000 NA
ATOM     21  H   UNL     1      -7.128   4.462 129.646  0.00  0.00    +0.000 HD
ATOM     22  H   UNL     1      -6.956   5.066 128.102  0.00  0.00    +0.000 HD
BRANCH  20  23
ATOM     23  S   UNL     1      -7.933   4.332 125.822  0.00  0.00    +0.000 S 
ATOM     24  O   UNL     1      -6.613   4.849 126.095  0.00  0.00    +0.000 OA
ATOM     25  O   UNL     1      -8.311   3.889 124.495  0.00  0.00    +0.000 OA
BRANCH  23  26
ATOM     26  N   UNL     1      -8.962   5.618 126.153  0.00  0.00    +0.000 NA
ATOM     27  H   UNL     1      -9.543   5.860 125.354  0.00  0.00    +0.000 HD
ATOM     28  H   UNL     1      -8.448   6.402 126.545  0.00  0.00    +0.000 HD
ENDBRANCH  23  26
ENDBRANCH  20  23
ENDBRANCH  17  18
ENDBRANCH  16  17
ENDBRANCH  15  16
ENDBRANCH   1  15
TORSDOF 8
ENDMDL
MODEL 2
REMARK VINA RESULT:      -5.5      1.867      2.453
REMARK  Name = Famotidine
REMARK  8 active torsions:
REMARK  status: ('A' for Active; 'I' for Inactive)
REMARK    1  A    between atoms: N_4  and  C_5
REMARK    2  A    between atoms: C_7  and  C_8
REMARK    3  A    between atoms: C_8  and  S_9
REMARK    4  A    between atoms: S_9  and  C_10
REMARK    5  A    between atoms: C_10  and  C_11
REMARK    6  A    between atoms: C_11  and  C_12
REMARK    7  A    between atoms: N_14  and  S_15
REMARK    8  A    between atoms: S_15  and  N_16
REMARK                            x       y       z     vdW  Elec       q    Type
REMARK                         _______ _______ _______ _____ _____    ______ ____
ROOT
ATOM      1  C   UNL     1      -9.011   2.594 129.725  0.00  0.00    +0.000 C 
ENDROOT
BRANCH   1   4
ATOM      2  C   UNL     1      -9.546   6.221 129.796  0.00  0.00    +0.000 A 
ATOM      3  N   UNL     1      -9.398   5.033 129.245  0.00  0.00    +0.000 NA
ATOM      4  C   UNL     1      -9.245   4.018 130.185  0.00  0.00    +0.000 A 
ATOM      5  C   UNL     1      -9.335   4.466 131.490  0.00  0.00    +0.000 A 
ATOM      6  S   UNL     1      -9.556   6.172 131.522  0.00  0.00    +0.000 S 
BRANCH   2  10
ATOM      7  N   UNL     1     -11.045   8.788 127.906  0.00  0.00    +0.000 N 
ATOM      8  C   UNL     1     -10.836   7.648 128.603  0.00  0.00    +0.000 C 
ATOM      9  N   UNL     1     -11.973   6.911 128.706  0.00  0.00    +0.000 N 
ATOM     10  N   UNL     1      -9.679   7.405 129.137  0.00  0.00    +0.000 NA
ATOM     11  H   UNL     1     -11.891   8.973 127.393  0.00  0.00    +0.000 HD
ATOM     12  H   UNL     1     -10.259   9.408 127.758  0.00  0.00    +0.000 HD
ATOM     13  H   UNL     1     -12.727   7.028 128.049  0.00  0.00    +0.000 HD
ATOM     14  H   UNL     1     -11.815   5.944 128.992  0.00  0.00    +0.000 HD
ENDBRANCH   2  10
ENDBRANCH   1   4
BRANCH   1  15
ATOM     15  S   UNL     1      -7.255   2.093 130.006  0.00  0.00    +0.000 S 
BRANCH  15  16
ATOM     16  C   UNL     1      -6.789   1.354 128.418  0.00  0.00    +0.000 C 
BRANCH  16  17
ATOM     17  C   UNL     1      -5.674   2.183 127.762  0.00  0.00    +0.000 C 
BRANCH  17  18
ATOM     18  C   UNL     1      -6.145   3.038 126.563  0.00  0.00    +0.000 C 
ATOM     19  N   UNL     1      -5.472   2.923 125.366  0.00  0.00    +0.000 N 
ATOM     20  N   UNL     1      -7.145   3.836 126.775  0.00  0.00    +0.000 NA
ATOM     21  H   UNL     1      -4.891   2.110 125.207  0.00  0.00    +0.000 HD
ATOM     22  H   UNL     1      -6.033   3.123 124.536  0.00  0.00    +0.000 HD
BRANCH  20  23
ATOM     23  S   UNL     1      -7.762   4.739 125.581  0.00  0.00    +0.000 S 
ATOM     24  O   UNL     1      -6.758   5.691 125.168  0.00  0.00    +0.000 OA
ATOM     25  O   UNL     1      -8.432   3.884 124.623  0.00  0.00    +0.000 OA
BRANCH  23  26
ATOM     26  N   UNL     1      -8.985   5.682 126.242  0.00  0.00    +0.000 NA
ATOM     27  H   UNL     1      -8.700   6.651 126.362  0.00  0.00    +0.000 HD
ATOM     28  H   UNL     1      -9.358   5.253 127.084  0.00  0.00    +0.000 HD
ENDBRANCH  23  26
ENDBRANCH  20  23
ENDBRANCH  17  18
ENDBRANCH  16  17
ENDBRANCH  15  16
ENDBRANCH   1  15
TORSDOF 8
ENDMDL
MODEL 3
REMARK VINA RESULT:      -5.4      3.556      6.137
REMARK  Name = Famotidine
REMARK  8 active torsions:
REMARK  status: ('A' for Active; 'I' for Inactive)
REMARK    1  A    between atoms: N_4  and  C_5
REMARK    2  A    between atoms: C_7  and  C_8
REMARK    3  A    between atoms: C_8  and  S_9
REMARK    4  A    between atoms: S_9  and  C_10
REMARK    5  A    between atoms: C_10  and  C_11
REMARK    6  A    between atoms: C_11  and  C_12
REMARK    7  A    between atoms: N_14  and  S_15
REMARK    8  A    between atoms: S_15  and  N_16
REMARK                            x       y       z     vdW  Elec       q    Type
REMARK                         _______ _______ _______ _____ _____    ______ ____
ROOT
ATOM      1  C   UNL     1      -8.247   4.955 130.013  0.00  0.00    +0.000 C 
ENDROOT
BRANCH   1   4
ATOM      2  C   UNL     1      -4.649   5.631 130.239  0.00  0.00    +0.000 A 
ATOM      3  N   UNL     1      -5.886   5.804 129.818  0.00  0.00    +0.000 NA
ATOM      4  C   UNL     1      -6.787   4.929 130.417  0.00  0.00    +0.000 A 
ATOM      5  C   UNL     1      -6.201   4.106 131.361  0.00  0.00    +0.000 A 
ATOM      6  S   UNL     1      -4.508   4.402 131.445  0.00  0.00    +0.000 S 
BRANCH   2  10
ATOM      7  N   UNL     1      -2.052   6.677 128.103  0.00  0.00    +0.000 N 
ATOM      8  C   UNL     1      -3.153   6.069 128.598  0.00  0.00    +0.000 C 
ATOM      9  N   UNL     1      -3.763   5.299 127.659  0.00  0.00    +0.000 N 
ATOM     10  N   UNL     1      -3.549   6.308 129.810  0.00  0.00    +0.000 NA
ATOM     11  H   UNL     1      -1.652   6.449 127.207  0.00  0.00    +0.000 HD
ATOM     12  H   UNL     1      -1.512   7.267 128.723  0.00  0.00    +0.000 HD
ATOM     13  H   UNL     1      -3.254   4.958 126.859  0.00  0.00    +0.000 HD
ATOM     14  H   UNL     1      -4.434   4.632 128.041  0.00  0.00    +0.000 HD
ENDBRANCH   2  10
ENDBRANCH   1   4
BRANCH   1  15
ATOM     15  S   UNL     1      -9.341   4.767 131.489  0.00  0.00    +0.000 S 
BRANCH  15  16
ATOM     16  C   UNL     1     -10.304   6.302 131.472  0.00  0.00    +0.000 C 
BRANCH  16  17
ATOM     17  C   UNL     1     -11.638   6.077 130.744  0.00  0.00    +0.000 C 
BRANCH  17  18
ATOM     18  C   UNL     1     -11.722   6.754 129.357  0.00  0.00    +0.000 C 
ATOM     19  N   UNL     1     -12.740   7.654 129.123  0.00  0.00    +0.000 N 
ATOM     20  N   UNL     1     -10.828   6.406 128.484  0.00  0.00    +0.000 NA
ATOM     21  H   UNL     1     -13.224   8.062 129.912  0.00  0.00    +0.000 HD
ATOM     22  H   UNL     1     -12.526   8.375 128.431  0.00  0.00    +0.000 HD
BRANCH  20  23
ATOM     23  S   UNL     1     -10.782   7.089 127.017  0.00  0.00    +0.000 S 
ATOM     24  O   UNL     1     -10.840   8.522 127.182  0.00  0.00    +0.000 OA
ATOM     25  O   UNL     1      -9.745   6.461 126.222  0.00  0.00    +0.000 OA
BRANCH  23  26
ATOM     26  N   UNL     1     -12.216   6.699 126.234  0.00  0.00    +0.000 NA
ATOM     27  H   UNL     1     -13.032   7.046 126.733  0.00  0.00    +0.000 HD
ATOM     28  H   UNL     1     -12.253   5.707 126.018  0.00  0.00    +0.000 HD
ENDBRANCH  23  26
ENDBRANCH  20  23
ENDBRANCH  17  18
ENDBRANCH  16  17
ENDBRANCH  15  16
ENDBRANCH   1  15
TORSDOF 8
ENDMDL
MODEL 4
REMARK VINA RESULT:      -5.3      1.294      1.594
REMARK  Name = Famotidine
REMARK  8 active torsions:
REMARK  status: ('A' for Active; 'I' for Inactive)
REMARK    1  A    between atoms: N_4  and  C_5
REMARK    2  A    between atoms: C_7  and  C_8
REMARK    3  A    between atoms: C_8  and  S_9
REMARK    4  A    between atoms: S_9  and  C_10
REMARK    5  A    between atoms: C_10  and  C_11
REMARK    6  A    between atoms: C_11  and  C_12
REMARK    7  A    between atoms: N_14  and  S_15
REMARK    8  A    between atoms: S_15  and  N_16
REMARK                            x       y       z     vdW  Elec       q    Type
REMARK                         _______ _______ _______ _____ _____    ______ ____
ROOT
ATOM      1  C   UNL     1      -9.681   4.891 131.591  0.00  0.00    +0.000 C 
ENDROOT
BRANCH   1   4
ATOM      2  C   UNL     1     -12.203   6.342 129.358  0.00  0.00    +0.000 A 
ATOM      3  N   UNL     1     -11.211   5.546 129.704  0.00  0.00    +0.000 NA
ATOM      4  C   UNL     1     -10.840   5.694 131.037  0.00  0.00    +0.000 A 
ATOM      5  C   UNL     1     -11.626   6.601 131.723  0.00  0.00    +0.000 A 
ATOM      6  S   UNL     1     -12.789   7.304 130.667  0.00  0.00    +0.000 S 
BRANCH   2  10
ATOM      7  N   UNL     1     -12.504   7.173 125.949  0.00  0.00    +0.000 N 
ATOM      8  C   UNL     1     -12.022   6.999 127.200  0.00  0.00    +0.000 C 
ATOM      9  N   UNL     1     -10.723   7.387 127.292  0.00  0.00    +0.000 N 
ATOM     10  N   UNL     1     -12.755   6.451 128.119  0.00  0.00    +0.000 NA
ATOM     11  H   UNL     1     -12.010   7.680 125.233  0.00  0.00    +0.000 HD
ATOM     12  H   UNL     1     -13.469   6.926 125.771  0.00  0.00    +0.000 HD
ATOM     13  H   UNL     1     -10.329   8.038 126.632  0.00  0.00    +0.000 HD
ATOM     14  H   UNL     1     -10.396   7.516 128.250  0.00  0.00    +0.000 HD
ENDBRANCH   2  10
ENDBRANCH   1   4
BRANCH   1  15
ATOM     15  S   UNL     1      -9.526   3.272 130.716  0.00  0.00    +0.000 S 
BRANCH  15  16
ATOM     16  C   UNL     1      -8.120   3.548 129.606  0.00  0.00    +0.000 C 
BRANCH  16  17
ATOM     17  C   UNL     1      -7.811   2.265 128.821  0.00  0.00    +0.000 C 
BRANCH  17  18
ATOM     18  C   UNL     1      -7.665   2.476 127.297  0.00  0.00    +0.000 C 
ATOM     19  N   UNL     1      -6.459   2.932 126.806  0.00  0.00    +0.000 N 
ATOM     20  N   UNL     1      -8.711   2.228 126.572  0.00  0.00    +0.000 NA
ATOM     21  H   UNL     1      -5.633   2.850 127.385  0.00  0.00    +0.000 HD
ATOM     22  H   UNL     1      -6.248   2.645 125.849  0.00  0.00    +0.000 HD
BRANCH  20  23
ATOM     23  S   UNL     1      -8.661   2.359 124.959  0.00  0.00    +0.000 S 
ATOM     24  O   UNL     1      -8.525   3.756 124.621  0.00  0.00    +0.000 OA
ATOM     25  O   UNL     1      -7.761   1.360 124.419  0.00  0.00    +0.000 OA
BRANCH  23  26
ATOM     26  N   UNL     1     -10.176   1.932 124.372  0.00  0.00    +0.000 NA
ATOM     27  H   UNL     1     -10.601   2.679 123.828  0.00  0.00    +0.000 HD
ATOM     28  H   UNL     1     -10.766   1.575 125.117  0.00  0.00    +0.000 HD
ENDBRANCH  23  26
ENDBRANCH  20  23
ENDBRANCH  17  18
ENDBRANCH  16  17
ENDBRANCH  15  16
ENDBRANCH   1  15
TORSDOF 8
ENDMDL
MODEL 5
REMARK VINA RESULT:      -5.2      4.150      6.750
REMARK  Name = Famotidine
REMARK  8 active torsions:
REMARK  status: ('A' for Active; 'I' for Inactive)
REMARK    1  A    between atoms: N_4  and  C_5
REMARK    2  A    between atoms: C_7  and  C_8
REMARK    3  A    between atoms: C_8  and  S_9
REMARK    4  A    between atoms: S_9  and  C_10
REMARK    5  A    between atoms: C_10  and  C_11
REMARK    6  A    between atoms: C_11  and  C_12
REMARK    7  A    between atoms: N_14  and  S_15
REMARK    8  A    between atoms: S_15  and  N_16
REMARK                            x       y       z     vdW  Elec       q    Type
REMARK                         _______ _______ _______ _____ _____    ______ ____
ROOT
ATOM      1  C   UNL     1      -6.858   5.245 130.099  0.00  0.00    +0.000 C 
ENDROOT
BRANCH   1   4
ATOM      2  C   UNL     1      -3.431   5.085 128.804  0.00  0.00    +0.000 A 
ATOM      3  N   UNL     1      -4.747   5.111 128.737  0.00  0.00    +0.000 NA
ATOM      4  C   UNL     1      -5.348   5.248 129.985  0.00  0.00    +0.000 A 
ATOM      5  C   UNL     1      -4.437   5.382 131.017  0.00  0.00    +0.000 A 
ATOM      6  S   UNL     1      -2.829   5.275 130.412  0.00  0.00    +0.000 S 
BRANCH   2  10
ATOM      7  N   UNL     1      -1.519   3.458 126.335  0.00  0.00    +0.000 N 
ATOM      8  C   UNL     1      -2.377   3.709 127.348  0.00  0.00    +0.000 C 
ATOM      9  N   UNL     1      -3.005   2.578 127.763  0.00  0.00    +0.000 N 
ATOM     10  N   UNL     1      -2.573   4.924 127.760  0.00  0.00    +0.000 NA
ATOM     11  H   UNL     1      -1.262   2.528 126.049  0.00  0.00    +0.000 HD
ATOM     12  H   UNL     1      -0.987   4.231 125.956  0.00  0.00    +0.000 HD
ATOM     13  H   UNL     1      -2.604   1.670 127.589  0.00  0.00    +0.000 HD
ATOM     14  H   UNL     1      -3.459   2.666 128.673  0.00  0.00    +0.000 HD
ENDBRANCH   2  10
ENDBRANCH   1   4
BRANCH   1  15
ATOM     15  S   UNL     1      -7.465   3.625 130.746  0.00  0.00    +0.000 S 
BRANCH  15  16
ATOM     16  C   UNL     1      -9.249   3.714 130.441  0.00  0.00    +0.000 C 
BRANCH  16  17
ATOM     17  C   UNL     1      -9.844   4.934 131.160  0.00  0.00    +0.000 C 
BRANCH  17  18
ATOM     18  C   UNL     1     -10.464   5.985 130.211  0.00  0.00    +0.000 C 
ATOM     19  N   UNL     1     -11.346   6.907 130.733  0.00  0.00    +0.000 N 
ATOM     20  N   UNL     1     -10.123   5.915 128.962  0.00  0.00    +0.000 NA
ATOM     21  H   UNL     1     -11.356   7.062 131.733  0.00  0.00    +0.000 HD
ATOM     22  H   UNL     1     -11.380   7.799 130.238  0.00  0.00    +0.000 HD
BRANCH  20  23
ATOM     23  S   UNL     1     -10.663   6.996 127.885  0.00  0.00    +0.000 S 
ATOM     24  O   UNL     1     -12.079   6.783 127.699  0.00  0.00    +0.000 OA
ATOM     25  O   UNL     1     -10.132   8.306 128.205  0.00  0.00    +0.000 OA
BRANCH  23  26
ATOM     26  N   UNL     1      -9.984   6.610 126.398  0.00  0.00    +0.000 NA
ATOM     27  H   UNL     1      -9.549   7.415 125.955  0.00  0.00    +0.000 HD
ATOM     28  H   UNL     1     -10.654   6.124 125.809  0.00  0.00    +0.000 HD
ENDBRANCH  23  26
ENDBRANCH  20  23
ENDBRANCH  17  18
ENDBRANCH  16  17
ENDBRANCH  15  16
ENDBRANCH   1  15
TORSDOF 8
ENDMDL
MODEL 6
REMARK VINA RESULT:      -5.2      2.929      5.613
REMARK  Name = Famotidine
REMARK  8 active torsions:
REMARK  status: ('A' for Active; 'I' for Inactive)
REMARK    1  A    between atoms: N_4  and  C_5
REMARK    2  A    between atoms: C_7  and  C_8
REMARK    3  A    between atoms: C_8  and  S_9
REMARK    4  A    between atoms: S_9  and  C_10
REMARK    5  A    between atoms: C_10  and  C_11
REMARK    6  A    between atoms: C_11  and  C_12
REMARK    7  A    between atoms: N_14  and  S_15
REMARK    8  A    between atoms: S_15  and  N_16
REMARK                            x       y       z     vdW  Elec       q    Type
REMARK                         _______ _______ _______ _____ _____    ______ ____
ROOT
ATOM      1  C   UNL     1      -7.403   4.360 129.211  0.00  0.00    +0.000 C 
ENDROOT
BRANCH   1   4
ATOM      2  C   UNL     1      -8.370   1.901 126.667  0.00  0.00    +0.000 A 
ATOM      3  N   UNL     1      -8.475   3.002 127.384  0.00  0.00    +0.000 NA
ATOM      4  C   UNL     1      -7.417   3.172 128.271  0.00  0.00    +0.000 A 
ATOM      5  C   UNL     1      -6.458   2.181 128.171  0.00  0.00    +0.000 A 
ATOM      6  S   UNL     1      -6.927   1.011 126.999  0.00  0.00    +0.000 S 
BRANCH   2  10
ATOM      7  N   UNL     1     -10.169   1.695 123.647  0.00  0.00    +0.000 N 
ATOM      8  C   UNL     1      -9.290   2.063 124.605  0.00  0.00    +0.000 C 
ATOM      9  N   UNL     1      -8.456   3.043 124.170  0.00  0.00    +0.000 N 
ATOM     10  N   UNL     1      -9.265   1.448 125.748  0.00  0.00    +0.000 NA
ATOM     11  H   UNL     1     -10.291   2.204 122.787  0.00  0.00    +0.000 HD
ATOM     12  H   UNL     1     -10.846   0.977 123.870  0.00  0.00    +0.000 HD
ATOM     13  H   UNL     1      -8.715   3.638 123.398  0.00  0.00    +0.000 HD
ATOM     14  H   UNL     1      -7.956   3.525 124.917  0.00  0.00    +0.000 HD
ENDBRANCH   2  10
ENDBRANCH   1   4
BRANCH   1  15
ATOM     15  S   UNL     1      -8.876   4.332 130.326  0.00  0.00    +0.000 S 
BRANCH  15  16
ATOM     16  C   UNL     1      -8.540   5.699 131.468  0.00  0.00    +0.000 C 
BRANCH  16  17
ATOM     17  C   UNL     1      -8.648   7.040 130.726  0.00  0.00    +0.000 C 
BRANCH  17  18
ATOM     18  C   UNL     1      -9.979   7.236 129.966  0.00  0.00    +0.000 C 
ATOM     19  N   UNL     1     -11.161   7.148 130.670  0.00  0.00    +0.000 N 
ATOM     20  N   UNL     1      -9.894   7.450 128.689  0.00  0.00    +0.000 NA
ATOM     21  H   UNL     1     -11.139   7.241 131.677  0.00  0.00    +0.000 HD
ATOM     22  H   UNL     1     -11.934   7.692 130.284  0.00  0.00    +0.000 HD
BRANCH  20  23
ATOM     23  S   UNL     1     -11.217   7.726 127.798  0.00  0.00    +0.000 S 
ATOM     24  O   UNL     1     -10.798   8.169 126.489  0.00  0.00    +0.000 OA
ATOM     25  O   UNL     1     -12.150   6.629 127.962  0.00  0.00    +0.000 OA
BRANCH  23  26
ATOM     26  N   UNL     1     -12.001   9.057 128.458  0.00  0.00    +0.000 NA
ATOM     27  H   UNL     1     -12.914   9.212 128.037  0.00  0.00    +0.000 HD
ATOM     28  H   UNL     1     -11.397   9.874 128.450  0.00  0.00    +0.000 HD
ENDBRANCH  23  26
ENDBRANCH  20  23
ENDBRANCH  17  18
ENDBRANCH  16  17
ENDBRANCH  15  16
ENDBRANCH   1  15
TORSDOF 8
ENDMDL
MODEL 7
REMARK VINA RESULT:      -5.2      3.566      6.737
REMARK  Name = Famotidine
REMARK  8 active torsions:
REMARK  status: ('A' for Active; 'I' for Inactive)
REMARK    1  A    between atoms: N_4  and  C_5
REMARK    2  A    between atoms: C_7  and  C_8
REMARK    3  A    between atoms: C_8  and  S_9
REMARK    4  A    between atoms: S_9  and  C_10
REMARK    5  A    between atoms: C_10  and  C_11
REMARK    6  A    between atoms: C_11  and  C_12
REMARK    7  A    between atoms: N_14  and  S_15
REMARK    8  A    between atoms: S_15  and  N_16
REMARK                            x       y       z     vdW  Elec       q    Type
REMARK                         _______ _______ _______ _____ _____    ______ ____
ROOT
ATOM      1  C   UNL     1      -7.118   3.397 130.114  0.00  0.00    +0.000 C 
ENDROOT
BRANCH   1   4
ATOM      2  C   UNL     1      -4.799   3.088 127.291  0.00  0.00    +0.000 A 
ATOM      3  N   UNL     1      -5.226   2.921 128.526  0.00  0.00    +0.000 NA
ATOM      4  C   UNL     1      -6.494   3.455 128.736  0.00  0.00    +0.000 A 
ATOM      5  C   UNL     1      -7.054   3.995 127.592  0.00  0.00    +0.000 A 
ATOM      6  S   UNL     1      -5.952   3.877 126.275  0.00  0.00    +0.000 S 
BRANCH   2  10
ATOM      7  N   UNL     1      -1.353   3.204 126.572  0.00  0.00    +0.000 N 
ATOM      8  C   UNL     1      -2.585   3.491 127.050  0.00  0.00    +0.000 C 
ATOM      9  N   UNL     1      -2.569   4.597 127.839  0.00  0.00    +0.000 N 
ATOM     10  N   UNL     1      -3.589   2.709 126.797  0.00  0.00    +0.000 NA
ATOM     11  H   UNL     1      -0.569   3.829 126.659  0.00  0.00    +0.000 HD
ATOM     12  H   UNL     1      -1.253   2.404 125.961  0.00  0.00    +0.000 HD
ATOM     13  H   UNL     1      -1.833   5.280 127.758  0.00  0.00    +0.000 HD
ATOM     14  H   UNL     1      -3.492   4.997 128.011  0.00  0.00    +0.000 HD
ENDBRANCH   2  10
ENDBRANCH   1   4
BRANCH   1  15
ATOM     15  S   UNL     1      -8.754   4.256 130.131  0.00  0.00    +0.000 S 
BRANCH  15  16
ATOM     16  C   UNL     1      -8.502   5.576 131.347  0.00  0.00    +0.000 C 
BRANCH  16  17
ATOM     17  C   UNL     1      -8.619   6.947 130.663  0.00  0.00    +0.000 C 
BRANCH  17  18
ATOM     18  C   UNL     1      -9.957   7.171 129.923  0.00  0.00    +0.000 C 
ATOM     19  N   UNL     1     -11.132   7.075 130.639  0.00  0.00    +0.000 N 
ATOM     20  N   UNL     1      -9.885   7.417 128.651  0.00  0.00    +0.000 NA
ATOM     21  H   UNL     1     -11.096   7.144 131.648  0.00  0.00    +0.000 HD
ATOM     22  H   UNL     1     -11.905   7.635 130.275  0.00  0.00    +0.000 HD
BRANCH  20  23
ATOM     23  S   UNL     1     -11.216   7.724 127.783  0.00  0.00    +0.000 S 
ATOM     24  O   UNL     1     -10.809   8.209 126.485  0.00  0.00    +0.000 OA
ATOM     25  O   UNL     1     -12.150   6.624 127.919  0.00  0.00    +0.000 OA
BRANCH  23  26
ATOM     26  N   UNL     1     -11.991   9.034 128.494  0.00  0.00    +0.000 NA
ATOM     27  H   UNL     1     -11.492   9.906 128.337  0.00  0.00    +0.000 HD
ATOM     28  H   UNL     1     -12.199   8.845 129.470  0.00  0.00    +0.000 HD
ENDBRANCH  23  26
ENDBRANCH  20  23
ENDBRANCH  17  18
ENDBRANCH  16  17
ENDBRANCH  15  16
ENDBRANCH   1  15
TORSDOF 8
ENDMDL
MODEL 8
REMARK VINA RESULT:      -5.2      1.963      2.141
REMARK  Name = Famotidine
REMARK  8 active torsions:
REMARK  status: ('A' for Active; 'I' for Inactive)
REMARK    1  A    between atoms: N_4  and  C_5
REMARK    2  A    between atoms: C_7  and  C_8
REMARK    3  A    between atoms: C_8  and  S_9
REMARK    4  A    between atoms: S_9  and  C_10
REMARK    5  A    between atoms: C_10  and  C_11
REMARK    6  A    between atoms: C_11  and  C_12
REMARK    7  A    between atoms: N_14  and  S_15
REMARK    8  A    between atoms: S_15  and  N_16
REMARK                            x       y       z     vdW  Elec       q    Type
REMARK                         _______ _______ _______ _____ _____    ______ ____
ROOT
ATOM      1  C   UNL     1      -8.163   6.190 131.930  0.00  0.00    +0.000 C 
ENDROOT
BRANCH   1   4
ATOM      2  C   UNL     1     -11.380   7.033 130.384  0.00  0.00    +0.000 A 
ATOM      3  N   UNL     1     -10.224   7.269 130.970  0.00  0.00    +0.000 NA
ATOM      4  C   UNL     1      -9.496   6.108 131.215  0.00  0.00    +0.000 A 
ATOM      5  C   UNL     1     -10.117   4.966 130.743  0.00  0.00    +0.000 A 
ATOM      6  S   UNL     1     -11.640   5.359 130.045  0.00  0.00    +0.000 S 
BRANCH   2  10
ATOM      7  N   UNL     1     -12.911   9.711 128.685  0.00  0.00    +0.000 N 
ATOM      8  C   UNL     1     -12.044   8.744 129.060  0.00  0.00    +0.000 C 
ATOM      9  N   UNL     1     -10.968   8.691 128.232  0.00  0.00    +0.000 N 
ATOM     10  N   UNL     1     -12.322   7.959 130.054  0.00  0.00    +0.000 NA
ATOM     11  H   UNL     1     -12.697  10.403 127.987  0.00  0.00    +0.000 HD
ATOM     12  H   UNL     1     -13.746   9.845 129.242  0.00  0.00    +0.000 HD
ATOM     13  H   UNL     1     -10.702   9.488 127.677  0.00  0.00    +0.000 HD
ATOM     14  H   UNL     1     -10.179   8.166 128.611  0.00  0.00    +0.000 HD
ENDBRANCH   2  10
ENDBRANCH   1   4
BRANCH   1  15
ATOM     15  S   UNL     1      -7.182   4.646 131.672  0.00  0.00    +0.000 S 
BRANCH  15  16
ATOM     16  C   UNL     1      -6.420   4.922 130.051  0.00  0.00    +0.000 C 
BRANCH  16  17
ATOM     17  C   UNL     1      -6.372   3.604 129.263  0.00  0.00    +0.000 C 
BRANCH  17  18
ATOM     18  C   UNL     1      -6.945   3.704 127.831  0.00  0.00    +0.000 C 
ATOM     19  N   UNL     1      -7.944   2.830 127.457  0.00  0.00    +0.000 N 
ATOM     20  N   UNL     1      -6.423   4.603 127.056  0.00  0.00    +0.000 NA
ATOM     21  H   UNL     1      -8.468   2.350 128.178  0.00  0.00    +0.000 HD
ATOM     22  H   UNL     1      -8.577   3.182 126.737  0.00  0.00    +0.000 HD
BRANCH  20  23
ATOM     23  S   UNL     1      -6.980   4.839 125.555  0.00  0.00    +0.000 S 
ATOM     24  O   UNL     1      -6.268   5.953 124.975  0.00  0.00    +0.000 OA
ATOM     25  O   UNL     1      -7.078   3.566 124.868  0.00  0.00    +0.000 OA
BRANCH  23  26
ATOM     26  N   UNL     1      -8.566   5.379 125.684  0.00  0.00    +0.000 NA
ATOM     27  H   UNL     1      -8.618   6.345 125.998  0.00  0.00    +0.000 HD
ATOM     28  H   UNL     1      -9.124   4.733 126.235  0.00  0.00    +0.000 HD
ENDBRANCH  23  26
ENDBRANCH  20  23
ENDBRANCH  17  18
ENDBRANCH  16  17
ENDBRANCH  15  16
ENDBRANCH   1  15
TORSDOF 8
ENDMDL
MODEL 9
REMARK VINA RESULT:      -5.1      3.683      4.512
REMARK  Name = Famotidine
REMARK  8 active torsions:
REMARK  status: ('A' for Active; 'I' for Inactive)
REMARK    1  A    between atoms: N_4  and  C_5
REMARK    2  A    between atoms: C_7  and  C_8
REMARK    3  A    between atoms: C_8  and  S_9
REMARK    4  A    between atoms: S_9  and  C_10
REMARK    5  A    between atoms: C_10  and  C_11
REMARK    6  A    between atoms: C_11  and  C_12
REMARK    7  A    between atoms: N_14  and  S_15
REMARK    8  A    between atoms: S_15  and  N_16
REMARK                            x       y       z     vdW  Elec       q    Type
REMARK                         _______ _______ _______ _____ _____    ______ ____
ROOT
ATOM      1  C   UNL     1      -9.012   2.546 129.534  0.00  0.00    +0.000 C 
ENDROOT
BRANCH   1   4
ATOM      2  C   UNL     1      -9.404   6.186 129.753  0.00  0.00    +0.000 A 
ATOM      3  N   UNL     1      -9.402   5.005 129.169  0.00  0.00    +0.000 NA
ATOM      4  C   UNL     1      -9.107   3.968 130.049  0.00  0.00    +0.000 A 
ATOM      5  C   UNL     1      -8.934   4.393 131.353  0.00  0.00    +0.000 A 
ATOM      6  S   UNL     1      -9.088   6.104 131.450  0.00  0.00    +0.000 S 
BRANCH   2  10
ATOM      7  N   UNL     1     -11.132   8.796 128.140  0.00  0.00    +0.000 N 
ATOM      8  C   UNL     1     -10.836   7.640 128.775  0.00  0.00    +0.000 C 
ATOM      9  N   UNL     1     -11.951   6.898 129.006  0.00  0.00    +0.000 N 
ATOM     10  N   UNL     1      -9.620   7.386 129.148  0.00  0.00    +0.000 NA
ATOM     11  H   UNL     1     -12.038   8.992 127.746  0.00  0.00    +0.000 HD
ATOM     12  H   UNL     1     -10.371   9.422 127.907  0.00  0.00    +0.000 HD
ATOM     13  H   UNL     1     -12.784   7.030 128.456  0.00  0.00    +0.000 HD
ATOM     14  H   UNL     1     -11.759   5.924 129.244  0.00  0.00    +0.000 HD
ENDBRANCH   2  10
ENDBRANCH   1   4
BRANCH   1  15
ATOM     15  S   UNL     1      -7.507   2.327 128.485  0.00  0.00    +0.000 S 
BRANCH  15  16
ATOM     16  C   UNL     1      -8.204   2.089 126.829  0.00  0.00    +0.000 C 
BRANCH  16  17
ATOM     17  C   UNL     1      -8.610   0.620 126.636  0.00  0.00    +0.000 C 
BRANCH  17  18
ATOM     18  C   UNL     1      -8.616   0.154 125.163  0.00  0.00    +0.000 C 
ATOM     19  N   UNL     1      -8.088   0.992 124.203  0.00  0.00    +0.000 N 
ATOM     20  N   UNL     1      -9.146  -1.004 124.920  0.00  0.00    +0.000 NA
ATOM     21  H   UNL     1      -7.470   1.740 124.493  0.00  0.00    +0.000 HD
ATOM     22  H   UNL     1      -7.707   0.520 123.382  0.00  0.00    +0.000 HD
BRANCH  20  23
ATOM     23  S   UNL     1      -9.157  -1.622 123.424  0.00  0.00    +0.000 S 
ATOM     24  O   UNL     1     -10.034  -0.817 122.607  0.00  0.00    +0.000 OA
ATOM     25  O   UNL     1      -7.801  -1.919 123.010  0.00  0.00    +0.000 OA
BRANCH  23  26
ATOM     26  N   UNL     1      -9.917  -3.118 123.503  0.00  0.00    +0.000 NA
ATOM     27  H   UNL     1      -9.696  -3.703 122.700  0.00  0.00    +0.000 HD
ATOM     28  H   UNL     1     -10.912  -3.011 123.675  0.00  0.00    +0.000 HD
ENDBRANCH  23  26
ENDBRANCH  20  23
ENDBRANCH  17  18
ENDBRANCH  16  17
ENDBRANCH  15  16
ENDBRANCH   1  15
TORSDOF 8
ENDMDL
