MODEL 1
REMARK VINA RESULT:      -5.4      0.000      0.000
REMARK  Name = Favipiravir
REMARK  2 active torsions:
REMARK  status: ('A' for Active; 'I' for Inactive)
REMARK    1  A    between atoms: C_2  and  C_4
REMARK    2  A    between atoms: C_10  and  O_11
REMARK                            x       y       z     vdW  Elec       q    Type
REMARK                         _______ _______ _______ _____ _____    ______ ____
ROOT
ATOM      1  C   UNL     1     -11.190   6.382 129.430  0.00  0.00    +0.000 A 
ATOM      2  N   UNL     1     -12.236   6.374 128.555  0.00  0.00    +0.000 NA
ATOM      3  C   UNL     1     -12.197   7.333 127.611  0.00  0.00    +0.000 A 
ATOM      4  F   UNL     1     -13.201   7.393 126.726  0.00  0.00    +0.000 F 
ATOM      5  C   UNL     1     -11.164   8.261 127.533  0.00  0.00    +0.000 A 
ATOM      6  N   UNL     1     -10.111   8.279 128.399  0.00  0.00    +0.000 NA
ATOM      7  C   UNL     1     -10.157   7.315 129.345  0.00  0.00    +0.000 A 
ENDROOT
BRANCH   1   9
ATOM      8  N   UNL     1     -11.252   5.726 131.790  0.00  0.00    +0.000 N 
ATOM      9  C   UNL     1     -11.194   5.328 130.479  0.00  0.00    +0.000 C 
ATOM     10  O   UNL     1     -11.166   4.134 130.193  0.00  0.00    +0.000 OA
ATOM     11  H   UNL     1     -11.217   5.007 132.500  0.00  0.00    +0.000 HD
ATOM     12  H   UNL     1     -11.215   6.695 132.081  0.00  0.00    +0.000 HD
ENDBRANCH   1   9
BRANCH   7  13
ATOM     13  O   UNL     1      -9.105   7.325 130.211  0.00  0.00    +0.000 OA
ATOM     14  H   UNL     1      -8.363   7.627 129.659  0.00  0.00    +0.000 HD
ENDBRANCH   7  13
TORSDOF 2
ENDMDL
MODEL 2
REMARK VINA RESULT:      -5.3      1.839      2.061
REMARK  Name = Favipiravir
REMARK  2 active torsions:
REMARK  status: ('A' for Active; 'I' for Inactive)
REMARK    1  A    between atoms: C_2  and  C_4
REMARK    2  A    between atoms: C_10  and  O_11
REMARK                            x       y       z     vdW  Elec       q    Type
REMARK                         _______ _______ _______ _____ _____    ______ ____
ROOT
ATOM      1  C   UNL     1     -11.595   6.464 129.814  0.00  0.00    +0.000 A 
ATOM      2  N   UNL     1     -10.948   6.676 128.633  0.00  0.00    +0.000 NA
ATOM      3  C   UNL     1     -11.249   7.835 128.018  0.00  0.00    +0.000 A 
ATOM      4  F   UNL     1     -10.661   8.102 126.844  0.00  0.00    +0.000 F 
ATOM      5  C   UNL     1     -12.151   8.750 128.551  0.00  0.00    +0.000 A 
ATOM      6  N   UNL     1     -12.802   8.552 129.733  0.00  0.00    +0.000 NA
ATOM      7  C   UNL     1     -12.497   7.386 130.344  0.00  0.00    +0.000 A 
ENDROOT
BRANCH   1   9
ATOM      8  N   UNL     1     -10.844   5.283 131.826  0.00  0.00    +0.000 N 
ATOM      9  C   UNL     1     -11.277   5.198 130.527  0.00  0.00    +0.000 C 
ATOM     10  O   UNL     1     -11.410   4.103 129.987  0.00  0.00    +0.000 OA
ATOM     11  H   UNL     1     -10.595   4.422 132.294  0.00  0.00    +0.000 HD
ATOM     12  H   UNL     1     -10.659   6.160 132.296  0.00  0.00    +0.000 HD
ENDBRANCH   1   9
BRANCH   7  13
ATOM     13  O   UNL     1     -13.141   7.185 131.527  0.00  0.00    +0.000 OA
ATOM     14  H   UNL     1     -12.618   7.708 132.159  0.00  0.00    +0.000 HD
ENDBRANCH   7  13
TORSDOF 2
ENDMDL
MODEL 3
REMARK VINA RESULT:      -5.3      2.183      2.572
REMARK  Name = Favipiravir
REMARK  2 active torsions:
REMARK  status: ('A' for Active; 'I' for Inactive)
REMARK    1  A    between atoms: C_2  and  C_4
REMARK    2  A    between atoms: C_10  and  O_11
REMARK                            x       y       z     vdW  Elec       q    Type
REMARK                         _______ _______ _______ _____ _____    ______ ____
ROOT
ATOM      1  C   UNL     1     -11.375   5.373 130.388  0.00  0.00    +0.000 A 
ATOM      2  N   UNL     1     -12.032   5.677 129.233  0.00  0.00    +0.000 NA
ATOM      3  C   UNL     1     -12.897   6.706 129.322  0.00  0.00    +0.000 A 
ATOM      4  F   UNL     1     -13.589   7.049 128.227  0.00  0.00    +0.000 F 
ATOM      5  C   UNL     1     -13.102   7.407 130.505  0.00  0.00    +0.000 A 
ATOM      6  N   UNL     1     -12.449   7.116 131.667  0.00  0.00    +0.000 NA
ATOM      7  C   UNL     1     -11.584   6.082 131.571  0.00  0.00    +0.000 A 
ENDROOT
BRANCH   1   9
ATOM      8  N   UNL     1     -10.544   3.224 131.222  0.00  0.00    +0.000 N 
ATOM      9  C   UNL     1     -10.402   4.250 130.323  0.00  0.00    +0.000 C 
ATOM     10  O   UNL     1      -9.507   4.222 129.483  0.00  0.00    +0.000 OA
ATOM     11  H   UNL     1      -9.858   2.482 131.198  0.00  0.00    +0.000 HD
ATOM     12  H   UNL     1     -11.224   3.229 131.972  0.00  0.00    +0.000 HD
ENDBRANCH   1   9
BRANCH   7  13
ATOM     13  O   UNL     1     -10.926   5.790 132.727  0.00  0.00    +0.000 OA
ATOM     14  H   UNL     1     -10.350   6.563 132.859  0.00  0.00    +0.000 HD
ENDBRANCH   7  13
TORSDOF 2
ENDMDL
MODEL 4
REMARK VINA RESULT:      -5.1      2.963      3.761
REMARK  Name = Favipiravir
REMARK  2 active torsions:
REMARK  status: ('A' for Active; 'I' for Inactive)
REMARK    1  A    between atoms: C_2  and  C_4
REMARK    2  A    between atoms: C_10  and  O_11
REMARK                            x       y       z     vdW  Elec       q    Type
REMARK                         _______ _______ _______ _____ _____    ______ ____
ROOT
ATOM      1  C   UNL     1     -11.550   7.604 129.772  0.00  0.00    +0.000 A 
ATOM      2  N   UNL     1     -11.750   6.926 130.937  0.00  0.00    +0.000 NA
ATOM      3  C   UNL     1     -10.630   6.492 131.544  0.00  0.00    +0.000 A 
ATOM      4  F   UNL     1     -10.754   5.803 132.687  0.00  0.00    +0.000 F 
ATOM      5  C   UNL     1      -9.361   6.722 131.022  0.00  0.00    +0.000 A 
ATOM      6  N   UNL     1      -9.146   7.402 129.860  0.00  0.00    +0.000 NA
ATOM      7  C   UNL     1     -10.275   7.834 129.254  0.00  0.00    +0.000 A 
ENDROOT
BRANCH   1   9
ATOM      8  N   UNL     1     -12.839   9.452 128.807  0.00  0.00    +0.000 N 
ATOM      9  C   UNL     1     -12.766   8.110 129.080  0.00  0.00    +0.000 C 
ATOM     10  O   UNL     1     -13.674   7.356 128.742  0.00  0.00    +0.000 OA
ATOM     11  H   UNL     1     -13.683   9.795 128.369  0.00  0.00    +0.000 HD
ATOM     12  H   UNL     1     -12.148  10.123 129.118  0.00  0.00    +0.000 HD
ENDBRANCH   1   9
BRANCH   7  13
ATOM     13  O   UNL     1     -10.066   8.517 128.095  0.00  0.00    +0.000 OA
ATOM     14  H   UNL     1      -9.127   8.346 127.900  0.00  0.00    +0.000 HD
ENDBRANCH   7  13
TORSDOF 2
ENDMDL
MODEL 5
REMARK VINA RESULT:      -5.0      2.819      4.272
REMARK  Name = Favipiravir
REMARK  2 active torsions:
REMARK  status: ('A' for Active; 'I' for Inactive)
REMARK    1  A    between atoms: C_2  and  C_4
REMARK    2  A    between atoms: C_10  and  O_11
REMARK                            x       y       z     vdW  Elec       q    Type
REMARK                         _______ _______ _______ _____ _____    ______ ____
ROOT
ATOM      1  C   UNL     1     -10.657   7.561 129.256  0.00  0.00    +0.000 A 
ATOM      2  N   UNL     1      -9.372   7.822 129.628  0.00  0.00    +0.000 NA
ATOM      3  C   UNL     1      -8.894   7.041 130.616  0.00  0.00    +0.000 A 
ATOM      4  F   UNL     1      -7.641   7.253 131.042  0.00  0.00    +0.000 F 
ATOM      5  C   UNL     1      -9.655   6.040 131.210  0.00  0.00    +0.000 A 
ATOM      6  N   UNL     1     -10.940   5.765 130.845  0.00  0.00    +0.000 NA
ATOM      7  C   UNL     1     -11.414   6.554 129.854  0.00  0.00    +0.000 A 
ENDROOT
BRANCH   1   9
ATOM      8  N   UNL     1     -12.273   9.217 128.450  0.00  0.00    +0.000 N 
ATOM      9  C   UNL     1     -11.214   8.396 128.159  0.00  0.00    +0.000 C 
ATOM     10  O   UNL     1     -10.737   8.375 127.028  0.00  0.00    +0.000 OA
ATOM     11  H   UNL     1     -12.671   9.755 127.692  0.00  0.00    +0.000 HD
ATOM     12  H   UNL     1     -12.742   9.226 129.348  0.00  0.00    +0.000 HD
ENDBRANCH   1   9
BRANCH   7  13
ATOM     13  O   UNL     1     -12.696   6.282 129.484  0.00  0.00    +0.000 OA
ATOM     14  H   UNL     1     -12.901   6.990 128.848  0.00  0.00    +0.000 HD
ENDBRANCH   7  13
TORSDOF 2
ENDMDL
MODEL 6
REMARK VINA RESULT:      -4.9      2.345      3.100
REMARK  Name = Favipiravir
REMARK  2 active torsions:
REMARK  status: ('A' for Active; 'I' for Inactive)
REMARK    1  A    between atoms: C_2  and  C_4
REMARK    2  A    between atoms: C_10  and  O_11
REMARK                            x       y       z     vdW  Elec       q    Type
REMARK                         _______ _______ _______ _____ _____    ______ ____
ROOT
ATOM      1  C   UNL     1     -10.205   6.831 130.453  0.00  0.00    +0.000 A 
ATOM      2  N   UNL     1     -11.176   7.172 131.347  0.00  0.00    +0.000 NA
ATOM      3  C   UNL     1     -12.433   7.141 130.864  0.00  0.00    +0.000 A 
ATOM      4  F   UNL     1     -13.436   7.480 131.685  0.00  0.00    +0.000 F 
ATOM      5  C   UNL     1     -12.718   6.783 129.551  0.00  0.00    +0.000 A 
ATOM      6  N   UNL     1     -11.757   6.436 128.647  0.00  0.00    +0.000 NA
ATOM      7  C   UNL     1     -10.498   6.471 129.138  0.00  0.00    +0.000 A 
ENDROOT
BRANCH   1   9
ATOM      8  N   UNL     1      -8.533   6.161 132.115  0.00  0.00    +0.000 N 
ATOM      9  C   UNL     1      -8.805   6.842 130.956  0.00  0.00    +0.000 C 
ATOM     10  O   UNL     1      -7.909   7.425 130.352  0.00  0.00    +0.000 OA
ATOM     11  H   UNL     1      -7.588   6.203 132.472  0.00  0.00    +0.000 HD
ATOM     12  H   UNL     1      -9.245   5.718 132.682  0.00  0.00    +0.000 HD
ENDBRANCH   1   9
BRANCH   7  13
ATOM     13  O   UNL     1      -9.535   6.121 128.241  0.00  0.00    +0.000 OA
ATOM     14  H   UNL     1      -9.435   6.921 127.696  0.00  0.00    +0.000 HD
ENDBRANCH   7  13
TORSDOF 2
ENDMDL
MODEL 7
REMARK VINA RESULT:      -4.8      2.254      2.406
REMARK  Name = Favipiravir
REMARK  2 active torsions:
REMARK  status: ('A' for Active; 'I' for Inactive)
REMARK    1  A    between atoms: C_2  and  C_4
REMARK    2  A    between atoms: C_10  and  O_11
REMARK                            x       y       z     vdW  Elec       q    Type
REMARK                         _______ _______ _______ _____ _____    ______ ____
ROOT
ATOM      1  C   UNL     1     -10.555   6.781 129.198  0.00  0.00    +0.000 A 
ATOM      2  N   UNL     1     -11.335   7.388 130.137  0.00  0.00    +0.000 NA
ATOM      3  C   UNL     1     -12.140   8.360 129.668  0.00  0.00    +0.000 A 
ATOM      4  F   UNL     1     -12.924   9.010 130.540  0.00  0.00    +0.000 F 
ATOM      5  C   UNL     1     -12.175   8.717 128.324  0.00  0.00    +0.000 A 
ATOM      6  N   UNL     1     -11.403   8.116 127.374  0.00  0.00    +0.000 NA
ATOM      7  C   UNL     1     -10.596   7.142 127.851  0.00  0.00    +0.000 A 
ENDROOT
BRANCH   1   9
ATOM      8  N   UNL     1     -10.200   4.735 130.498  0.00  0.00    +0.000 N 
ATOM      9  C   UNL     1      -9.662   5.694 129.678  0.00  0.00    +0.000 C 
ATOM     10  O   UNL     1      -8.481   5.635 129.344  0.00  0.00    +0.000 OA
ATOM     11  H   UNL     1      -9.579   4.019 130.852  0.00  0.00    +0.000 HD
ATOM     12  H   UNL     1     -11.148   4.772 130.852  0.00  0.00    +0.000 HD
ENDBRANCH   1   9
BRANCH   7  13
ATOM     13  O   UNL     1      -9.826   6.536 126.906  0.00  0.00    +0.000 OA
ATOM     14  H   UNL     1      -8.926   6.610 127.269  0.00  0.00    +0.000 HD
ENDBRANCH   7  13
TORSDOF 2
ENDMDL
MODEL 8
REMARK VINA RESULT:      -4.7      1.456      2.626
REMARK  Name = Favipiravir
REMARK  2 active torsions:
REMARK  status: ('A' for Active; 'I' for Inactive)
REMARK    1  A    between atoms: C_2  and  C_4
REMARK    2  A    between atoms: C_10  and  O_11
REMARK                            x       y       z     vdW  Elec       q    Type
REMARK                         _______ _______ _______ _____ _____    ______ ____
ROOT
ATOM      1  C   UNL     1     -10.031   6.673 129.890  0.00  0.00    +0.000 A 
ATOM      2  N   UNL     1      -9.940   7.653 128.946  0.00  0.00    +0.000 NA
ATOM      3  C   UNL     1     -11.002   7.753 128.124  0.00  0.00    +0.000 A 
ATOM      4  F   UNL     1     -10.974   8.685 127.163  0.00  0.00    +0.000 F 
ATOM      5  C   UNL     1     -12.111   6.920 128.233  0.00  0.00    +0.000 A 
ATOM      6  N   UNL     1     -12.216   5.938 129.174  0.00  0.00    +0.000 NA
ATOM      7  C   UNL     1     -11.147   5.842 129.995  0.00  0.00    +0.000 A 
ENDROOT
BRANCH   1   9
ATOM      8  N   UNL     1      -9.151   6.279 132.143  0.00  0.00    +0.000 N 
ATOM      9  C   UNL     1      -8.881   6.542 130.824  0.00  0.00    +0.000 C 
ATOM     10  O   UNL     1      -7.721   6.645 130.435  0.00  0.00    +0.000 OA
ATOM     11  H   UNL     1      -8.367   6.227 132.779  0.00  0.00    +0.000 HD
ATOM     12  H   UNL     1     -10.087   6.246 132.525  0.00  0.00    +0.000 HD
ENDBRANCH   1   9
BRANCH   7  13
ATOM     13  O   UNL     1     -11.248   4.866 130.939  0.00  0.00    +0.000 OA
ATOM     14  H   UNL     1     -11.309   4.050 130.412  0.00  0.00    +0.000 HD
ENDBRANCH   7  13
TORSDOF 2
ENDMDL
MODEL 9
REMARK VINA RESULT:      -4.4      2.874      3.543
REMARK  Name = Favipiravir
REMARK  2 active torsions:
REMARK  status: ('A' for Active; 'I' for Inactive)
REMARK    1  A    between atoms: C_2  and  C_4
REMARK    2  A    between atoms: C_10  and  O_11
REMARK                            x       y       z     vdW  Elec       q    Type
REMARK                         _______ _______ _______ _____ _____    ______ ____
ROOT
ATOM      1  C   UNL     1     -11.236   6.180 130.116  0.00  0.00    +0.000 A 
ATOM      2  N   UNL     1     -11.347   4.882 130.520  0.00  0.00    +0.000 NA
ATOM      3  C   UNL     1     -10.246   4.131 130.331  0.00  0.00    +0.000 A 
ATOM      4  F   UNL     1     -10.289   2.841 130.692  0.00  0.00    +0.000 F 
ATOM      5  C   UNL     1      -9.081   4.641 129.767  0.00  0.00    +0.000 A 
ATOM      6  N   UNL     1      -8.956   5.937 129.361  0.00  0.00    +0.000 NA
ATOM      7  C   UNL     1     -10.065   6.686 129.552  0.00  0.00    +0.000 A 
ENDROOT
BRANCH   1   9
ATOM      8  N   UNL     1     -12.891   7.767 129.252  0.00  0.00    +0.000 N 
ATOM      9  C   UNL     1     -12.430   7.043 130.322  0.00  0.00    +0.000 C 
ATOM     10  O   UNL     1     -13.003   7.101 131.406  0.00  0.00    +0.000 OA
ATOM     11  H   UNL     1     -13.680   8.381 129.408  0.00  0.00    +0.000 HD
ATOM     12  H   UNL     1     -12.420   7.803 128.357  0.00  0.00    +0.000 HD
ENDBRANCH   1   9
BRANCH   7  13
ATOM     13  O   UNL     1      -9.945   7.983 129.153  0.00  0.00    +0.000 OA
ATOM     14  H   UNL     1     -10.776   8.389 129.456  0.00  0.00    +0.000 HD
ENDBRANCH   7  13
TORSDOF 2
ENDMDL
