MODEL 1
REMARK VINA RESULT:      -6.5      0.000      0.000
REMARK  Name = Febuxostat
REMARK  10 active torsions:
REMARK  status: ('A' for Active; 'I' for Inactive)
REMARK    1  A    between atoms: C_1  and  C_2
REMARK    2  A    between atoms: C_2  and  C_3
REMARK    3  A    between atoms: C_2  and  C_4
REMARK    4  A    between atoms: C_4  and  O_5
REMARK    5  A    between atoms: O_5  and  C_6
REMARK    6  A    between atoms: C_7  and  C_21
REMARK    7  A    between atoms: C_9  and  C_12
REMARK    8  A    between atoms: C_14  and  C_15
REMARK    9  A    between atoms: C_16  and  C_18
REMARK   10  A    between atoms: C_18  and  O_19
REMARK                            x       y       z     vdW  Elec       q    Type
REMARK                         _______ _______ _______ _____ _____    ______ ____
ROOT
ATOM      1  C   UNL     1      -4.747   6.096 132.616  0.00  0.00    +0.000 A 
ATOM      2  C   UNL     1      -4.901   6.598 131.319  0.00  0.00    +0.000 A 
ATOM      3  C   UNL     1      -6.191   6.846 130.813  0.00  0.00    +0.000 A 
ATOM      4  C   UNL     1      -7.348   6.554 131.557  0.00  0.00    +0.000 A 
ATOM      5  C   UNL     1      -7.183   5.955 132.812  0.00  0.00    +0.000 A 
ATOM      6  C   UNL     1      -5.896   5.734 133.338  0.00  0.00    +0.000 A 
ENDROOT
BRANCH   4   7
ATOM      7  C   UNL     1      -8.676   6.791 130.961  0.00  0.00    +0.000 A 
ATOM      8  N   UNL     1      -8.867   7.540 129.898  0.00  0.00    +0.000 NA
ATOM      9  C   UNL     1     -10.215   7.608 129.582  0.00  0.00    +0.000 A 
ATOM     10  C   UNL     1     -10.618   8.380 128.373  0.00  0.00    +0.000 C 
ATOM     11  C   UNL     1     -11.071   6.939 130.450  0.00  0.00    +0.000 A 
ATOM     12  S   UNL     1     -10.131   6.167 131.666  0.00  0.00    +0.000 S 
BRANCH  11  13
ATOM     13  C   UNL     1     -12.522   6.901 130.334  0.00  0.00    +0.000 C 
ATOM     14  O   UNL     1     -13.125   6.578 129.319  0.00  0.00    +0.000 OA
BRANCH  13  15
ATOM     15  O   UNL     1     -13.212   7.255 131.448  0.00  0.00    +0.000 OA
ATOM     16  H   UNL     1     -13.836   7.993 131.346  0.00  0.00    +0.000 HD
ENDBRANCH  13  15
ENDBRANCH  11  13
ENDBRANCH   4   7
BRANCH   2  17
ATOM     17  C   UNL     1      -3.782   6.810 130.442  0.00  0.00    +0.000 C 
ATOM     18  N   UNL     1      -2.865   7.018 129.768  0.00  0.00    +0.000 NA
ENDBRANCH   2  17
BRANCH   1  19
ATOM     19  O   UNL     1      -3.545   5.815 133.220  0.00  0.00    +0.000 OA
BRANCH  19  20
ATOM     20  C   UNL     1      -3.081   6.788 134.173  0.00  0.00    +0.000 C 
BRANCH  20  22
ATOM     21  C   UNL     1      -0.983   6.322 132.881  0.00  0.00    +0.000 C 
ATOM     22  C   UNL     1      -1.727   7.351 133.734  0.00  0.00    +0.000 C 
ATOM     23  C   UNL     1      -1.928   8.640 132.955  0.00  0.00    +0.000 C 
ENDBRANCH  20  22
ENDBRANCH  19  20
ENDBRANCH   1  19
TORSDOF 7
ENDMDL
MODEL 2
REMARK VINA RESULT:      -6.3     10.261     12.475
REMARK  Name = Febuxostat
REMARK  10 active torsions:
REMARK  status: ('A' for Active; 'I' for Inactive)
REMARK    1  A    between atoms: C_1  and  C_2
REMARK    2  A    between atoms: C_2  and  C_3
REMARK    3  A    between atoms: C_2  and  C_4
REMARK    4  A    between atoms: C_4  and  O_5
REMARK    5  A    between atoms: O_5  and  C_6
REMARK    6  A    between atoms: C_7  and  C_21
REMARK    7  A    between atoms: C_9  and  C_12
REMARK    8  A    between atoms: C_14  and  C_15
REMARK    9  A    between atoms: C_16  and  C_18
REMARK   10  A    between atoms: C_18  and  O_19
REMARK                            x       y       z     vdW  Elec       q    Type
REMARK                         _______ _______ _______ _____ _____    ______ ____
ROOT
ATOM      1  C   UNL     1      -8.943  -2.496 126.241  0.00  0.00    +0.000 A 
ATOM      2  C   UNL     1      -8.074  -1.553 126.799  0.00  0.00    +0.000 A 
ATOM      3  C   UNL     1      -7.400  -1.846 128.000  0.00  0.00    +0.000 A 
ATOM      4  C   UNL     1      -7.613  -3.050 128.694  0.00  0.00    +0.000 A 
ATOM      5  C   UNL     1      -8.562  -3.941 128.180  0.00  0.00    +0.000 A 
ATOM      6  C   UNL     1      -9.216  -3.669 126.963  0.00  0.00    +0.000 A 
ENDROOT
BRANCH   4   7
ATOM      7  C   UNL     1      -6.915  -3.287 129.972  0.00  0.00    +0.000 A 
ATOM      8  N   UNL     1      -7.443  -3.015 131.144  0.00  0.00    +0.000 NA
ATOM      9  C   UNL     1      -6.551  -3.311 132.164  0.00  0.00    +0.000 A 
ATOM     10  C   UNL     1      -6.997  -3.110 133.571  0.00  0.00    +0.000 C 
ATOM     11  C   UNL     1      -5.303  -3.770 131.758  0.00  0.00    +0.000 A 
ATOM     12  S   UNL     1      -5.285  -3.872 130.041  0.00  0.00    +0.000 S 
BRANCH  11  13
ATOM     13  C   UNL     1      -4.203  -4.110 132.648  0.00  0.00    +0.000 C 
ATOM     14  O   UNL     1      -4.165  -5.116 133.345  0.00  0.00    +0.000 OA
BRANCH  13  15
ATOM     15  O   UNL     1      -3.173  -3.226 132.680  0.00  0.00    +0.000 OA
ATOM     16  H   UNL     1      -3.310  -2.395 132.196  0.00  0.00    +0.000 HD
ENDBRANCH  13  15
ENDBRANCH  11  13
ENDBRANCH   4   7
BRANCH   2  17
ATOM     17  C   UNL     1      -7.889  -0.247 126.227  0.00  0.00    +0.000 C 
ATOM     18  N   UNL     1      -7.789   0.801 125.747  0.00  0.00    +0.000 NA
ENDBRANCH   2  17
BRANCH   1  19
ATOM     19  O   UNL     1      -9.654  -2.328 125.078  0.00  0.00    +0.000 OA
BRANCH  19  20
ATOM     20  C   UNL     1      -9.245  -3.149 123.969  0.00  0.00    +0.000 C 
BRANCH  20  22
ATOM     21  C   UNL     1      -9.383  -0.927 122.816  0.00  0.00    +0.000 C 
ATOM     22  C   UNL     1      -8.665  -2.277 122.853  0.00  0.00    +0.000 C 
ATOM     23  C   UNL     1      -7.174  -2.079 123.070  0.00  0.00    +0.000 C 
ENDBRANCH  20  22
ENDBRANCH  19  20
ENDBRANCH   1  19
TORSDOF 7
ENDMDL
MODEL 3
REMARK VINA RESULT:      -6.2      2.015      7.978
REMARK  Name = Febuxostat
REMARK  10 active torsions:
REMARK  status: ('A' for Active; 'I' for Inactive)
REMARK    1  A    between atoms: C_1  and  C_2
REMARK    2  A    between atoms: C_2  and  C_3
REMARK    3  A    between atoms: C_2  and  C_4
REMARK    4  A    between atoms: C_4  and  O_5
REMARK    5  A    between atoms: O_5  and  C_6
REMARK    6  A    between atoms: C_7  and  C_21
REMARK    7  A    between atoms: C_9  and  C_12
REMARK    8  A    between atoms: C_14  and  C_15
REMARK    9  A    between atoms: C_16  and  C_18
REMARK   10  A    between atoms: C_18  and  O_19
REMARK                            x       y       z     vdW  Elec       q    Type
REMARK                         _______ _______ _______ _____ _____    ______ ____
ROOT
ATOM      1  C   UNL     1     -10.666   6.056 130.969  0.00  0.00    +0.000 A 
ATOM      2  C   UNL     1      -9.605   6.193 130.067  0.00  0.00    +0.000 A 
ATOM      3  C   UNL     1      -8.279   6.191 130.541  0.00  0.00    +0.000 A 
ATOM      4  C   UNL     1      -7.982   6.105 131.912  0.00  0.00    +0.000 A 
ATOM      5  C   UNL     1      -9.055   6.071 132.812  0.00  0.00    +0.000 A 
ATOM      6  C   UNL     1     -10.382   6.041 132.344  0.00  0.00    +0.000 A 
ENDROOT
BRANCH   4   7
ATOM      7  C   UNL     1      -6.577   6.152 132.358  0.00  0.00    +0.000 A 
ATOM      8  N   UNL     1      -5.612   6.691 131.647  0.00  0.00    +0.000 NA
ATOM      9  C   UNL     1      -4.394   6.565 132.297  0.00  0.00    +0.000 A 
ATOM     10  C   UNL     1      -3.188   7.162 131.658  0.00  0.00    +0.000 C 
ATOM     11  C   UNL     1      -4.425   5.873 133.502  0.00  0.00    +0.000 A 
ATOM     12  S   UNL     1      -6.050   5.417 133.836  0.00  0.00    +0.000 S 
BRANCH  11  13
ATOM     13  C   UNL     1      -3.267   5.592 134.339  0.00  0.00    +0.000 C 
ATOM     14  O   UNL     1      -2.798   6.376 135.153  0.00  0.00    +0.000 OA
BRANCH  13  15
ATOM     15  O   UNL     1      -2.700   4.370 134.172  0.00  0.00    +0.000 OA
ATOM     16  H   UNL     1      -1.804   4.364 133.795  0.00  0.00    +0.000 HD
ENDBRANCH  13  15
ENDBRANCH  11  13
ENDBRANCH   4   7
BRANCH   2  17
ATOM     17  C   UNL     1      -9.817   6.411 128.663  0.00  0.00    +0.000 C 
ATOM     18  N   UNL     1      -9.937   6.598 127.527  0.00  0.00    +0.000 NA
ENDBRANCH   2  17
BRANCH   1  19
ATOM     19  O   UNL     1     -11.998   6.042 130.630  0.00  0.00    +0.000 OA
BRANCH  19  20
ATOM     20  C   UNL     1     -12.729   7.247 130.920  0.00  0.00    +0.000 C 
BRANCH  20  22
ATOM     21  C   UNL     1     -12.285   8.951 129.135  0.00  0.00    +0.000 C 
ATOM     22  C   UNL     1     -13.251   7.871 129.623  0.00  0.00    +0.000 C 
ATOM     23  C   UNL     1     -13.425   6.796 128.562  0.00  0.00    +0.000 C 
ENDBRANCH  20  22
ENDBRANCH  19  20
ENDBRANCH   1  19
TORSDOF 7
ENDMDL
MODEL 4
REMARK VINA RESULT:      -6.1      2.812      3.614
REMARK  Name = Febuxostat
REMARK  10 active torsions:
REMARK  status: ('A' for Active; 'I' for Inactive)
REMARK    1  A    between atoms: C_1  and  C_2
REMARK    2  A    between atoms: C_2  and  C_3
REMARK    3  A    between atoms: C_2  and  C_4
REMARK    4  A    between atoms: C_4  and  O_5
REMARK    5  A    between atoms: O_5  and  C_6
REMARK    6  A    between atoms: C_7  and  C_21
REMARK    7  A    between atoms: C_9  and  C_12
REMARK    8  A    between atoms: C_14  and  C_15
REMARK    9  A    between atoms: C_16  and  C_18
REMARK   10  A    between atoms: C_18  and  O_19
REMARK                            x       y       z     vdW  Elec       q    Type
REMARK                         _______ _______ _______ _____ _____    ______ ____
ROOT
ATOM      1  C   UNL     1      -5.999   5.090 130.627  0.00  0.00    +0.000 A 
ATOM      2  C   UNL     1      -7.004   4.464 129.882  0.00  0.00    +0.000 A 
ATOM      3  C   UNL     1      -8.245   5.104 129.702  0.00  0.00    +0.000 A 
ATOM      4  C   UNL     1      -8.531   6.345 130.298  0.00  0.00    +0.000 A 
ATOM      5  C   UNL     1      -7.555   6.912 131.126  0.00  0.00    +0.000 A 
ATOM      6  C   UNL     1      -6.301   6.294 131.284  0.00  0.00    +0.000 A 
ENDROOT
BRANCH   4   7
ATOM      7  C   UNL     1      -9.863   6.950 130.114  0.00  0.00    +0.000 A 
ATOM      8  N   UNL     1     -10.839   6.826 130.985  0.00  0.00    +0.000 NA
ATOM      9  C   UNL     1     -11.981   7.471 130.538  0.00  0.00    +0.000 A 
ATOM     10  C   UNL     1     -13.181   7.476 131.421  0.00  0.00    +0.000 C 
ATOM     11  C   UNL     1     -11.888   8.057 129.280  0.00  0.00    +0.000 A 
ATOM     12  S   UNL     1     -10.294   7.819 128.678  0.00  0.00    +0.000 S 
BRANCH  11  13
ATOM     13  C   UNL     1     -12.967   8.757 128.598  0.00  0.00    +0.000 C 
ATOM     14  O   UNL     1     -13.781   8.218 127.860  0.00  0.00    +0.000 OA
BRANCH  13  15
ATOM     15  O   UNL     1     -13.037  10.095 128.821  0.00  0.00    +0.000 OA
ATOM     16  H   UNL     1     -12.256  10.611 128.561  0.00  0.00    +0.000 HD
ENDBRANCH  13  15
ENDBRANCH  11  13
ENDBRANCH   4   7
BRANCH   2  17
ATOM     17  C   UNL     1      -6.845   3.142 129.340  0.00  0.00    +0.000 C 
ATOM     18  N   UNL     1      -6.697   2.063 128.949  0.00  0.00    +0.000 NA
ENDBRANCH   2  17
BRANCH   1  19
ATOM     19  O   UNL     1      -4.751   4.569 130.871  0.00  0.00    +0.000 OA
BRANCH  19  20
ATOM     20  C   UNL     1      -3.641   5.415 130.523  0.00  0.00    +0.000 C 
BRANCH  20  22
ATOM     21  C   UNL     1      -2.244   6.302 128.640  0.00  0.00    +0.000 C 
ATOM     22  C   UNL     1      -3.416   5.393 129.009  0.00  0.00    +0.000 C 
ATOM     23  C   UNL     1      -3.151   3.970 128.544  0.00  0.00    +0.000 C 
ENDBRANCH  20  22
ENDBRANCH  19  20
ENDBRANCH   1  19
TORSDOF 7
ENDMDL
MODEL 5
REMARK VINA RESULT:      -6.1     10.111     10.717
REMARK  Name = Febuxostat
REMARK  10 active torsions:
REMARK  status: ('A' for Active; 'I' for Inactive)
REMARK    1  A    between atoms: C_1  and  C_2
REMARK    2  A    between atoms: C_2  and  C_3
REMARK    3  A    between atoms: C_2  and  C_4
REMARK    4  A    between atoms: C_4  and  O_5
REMARK    5  A    between atoms: O_5  and  C_6
REMARK    6  A    between atoms: C_7  and  C_21
REMARK    7  A    between atoms: C_9  and  C_12
REMARK    8  A    between atoms: C_14  and  C_15
REMARK    9  A    between atoms: C_16  and  C_18
REMARK   10  A    between atoms: C_18  and  O_19
REMARK                            x       y       z     vdW  Elec       q    Type
REMARK                         _______ _______ _______ _____ _____    ______ ____
ROOT
ATOM      1  C   UNL     1      -6.217  -3.323 130.468  0.00  0.00    +0.000 A 
ATOM      2  C   UNL     1      -5.411  -3.032 129.362  0.00  0.00    +0.000 A 
ATOM      3  C   UNL     1      -6.005  -2.650 128.144  0.00  0.00    +0.000 A 
ATOM      4  C   UNL     1      -7.401  -2.600 127.984  0.00  0.00    +0.000 A 
ATOM      5  C   UNL     1      -8.197  -2.993 129.068  0.00  0.00    +0.000 A 
ATOM      6  C   UNL     1      -7.610  -3.345 130.298  0.00  0.00    +0.000 A 
ENDROOT
BRANCH   4   7
ATOM      7  C   UNL     1      -7.972  -2.237 126.674  0.00  0.00    +0.000 A 
ATOM      8  N   UNL     1      -8.437  -3.121 125.819  0.00  0.00    +0.000 NA
ATOM      9  C   UNL     1      -8.881  -2.498 124.663  0.00  0.00    +0.000 A 
ATOM     10  C   UNL     1      -9.487  -3.342 123.595  0.00  0.00    +0.000 C 
ATOM     11  C   UNL     1      -8.705  -1.120 124.616  0.00  0.00    +0.000 A 
ATOM     12  S   UNL     1      -8.003  -0.603 126.099  0.00  0.00    +0.000 S 
BRANCH  11  13
ATOM     13  C   UNL     1      -9.065  -0.265 123.494  0.00  0.00    +0.000 C 
ATOM     14  O   UNL     1     -10.089  -0.388 122.833  0.00  0.00    +0.000 OA
BRANCH  13  15
ATOM     15  O   UNL     1      -8.180   0.719 123.193  0.00  0.00    +0.000 OA
ATOM     16  H   UNL     1      -7.312   0.658 123.625  0.00  0.00    +0.000 HD
ENDBRANCH  13  15
ENDBRANCH  11  13
ENDBRANCH   4   7
BRANCH   2  17
ATOM     17  C   UNL     1      -3.981  -3.177 129.396  0.00  0.00    +0.000 C 
ATOM     18  N   UNL     1      -2.827  -3.257 129.386  0.00  0.00    +0.000 NA
ENDBRANCH   2  17
BRANCH   1  19
ATOM     19  O   UNL     1      -5.757  -3.704 131.705  0.00  0.00    +0.000 OA
BRANCH  19  20
ATOM     20  C   UNL     1      -5.999  -2.775 132.777  0.00  0.00    +0.000 C 
BRANCH  20  22
ATOM     21  C   UNL     1      -8.130  -3.345 133.969  0.00  0.00    +0.000 C 
ATOM     22  C   UNL     1      -6.609  -3.503 133.977  0.00  0.00    +0.000 C 
ATOM     23  C   UNL     1      -6.228  -4.974 133.942  0.00  0.00    +0.000 C 
ENDBRANCH  20  22
ENDBRANCH  19  20
ENDBRANCH   1  19
TORSDOF 7
ENDMDL
MODEL 6
REMARK VINA RESULT:      -6.1      1.857      2.544
REMARK  Name = Febuxostat
REMARK  10 active torsions:
REMARK  status: ('A' for Active; 'I' for Inactive)
REMARK    1  A    between atoms: C_1  and  C_2
REMARK    2  A    between atoms: C_2  and  C_3
REMARK    3  A    between atoms: C_2  and  C_4
REMARK    4  A    between atoms: C_4  and  O_5
REMARK    5  A    between atoms: O_5  and  C_6
REMARK    6  A    between atoms: C_7  and  C_21
REMARK    7  A    between atoms: C_9  and  C_12
REMARK    8  A    between atoms: C_14  and  C_15
REMARK    9  A    between atoms: C_16  and  C_18
REMARK   10  A    between atoms: C_18  and  O_19
REMARK                            x       y       z     vdW  Elec       q    Type
REMARK                         _______ _______ _______ _____ _____    ______ ____
ROOT
ATOM      1  C   UNL     1      -5.045   5.285 132.466  0.00  0.00    +0.000 A 
ATOM      2  C   UNL     1      -6.214   4.584 132.784  0.00  0.00    +0.000 A 
ATOM      3  C   UNL     1      -7.446   4.996 132.242  0.00  0.00    +0.000 A 
ATOM      4  C   UNL     1      -7.551   6.133 131.422  0.00  0.00    +0.000 A 
ATOM      5  C   UNL     1      -6.392   6.885 131.195  0.00  0.00    +0.000 A 
ATOM      6  C   UNL     1      -5.151   6.462 131.708  0.00  0.00    +0.000 A 
ENDROOT
BRANCH   4   7
ATOM      7  C   UNL     1      -8.874   6.546 130.917  0.00  0.00    +0.000 A 
ATOM      8  N   UNL     1      -9.036   7.360 129.897  0.00  0.00    +0.000 NA
ATOM      9  C   UNL     1     -10.382   7.594 129.666  0.00  0.00    +0.000 A 
ATOM     10  C   UNL     1     -10.760   8.461 128.514  0.00  0.00    +0.000 C 
ATOM     11  C   UNL     1     -11.261   6.987 130.556  0.00  0.00    +0.000 A 
ATOM     12  S   UNL     1     -10.350   6.059 131.682  0.00  0.00    +0.000 S 
BRANCH  11  13
ATOM     13  C   UNL     1     -12.711   7.118 130.527  0.00  0.00    +0.000 C 
ATOM     14  O   UNL     1     -13.393   7.444 131.489  0.00  0.00    +0.000 OA
BRANCH  13  15
ATOM     15  O   UNL     1     -13.304   6.850 129.335  0.00  0.00    +0.000 OA
ATOM     16  H   UNL     1     -12.857   6.195 128.775  0.00  0.00    +0.000 HD
ENDBRANCH  13  15
ENDBRANCH  11  13
ENDBRANCH   4   7
BRANCH   2  17
ATOM     17  C   UNL     1      -6.221   3.486 133.711  0.00  0.00    +0.000 C 
ATOM     18  N   UNL     1      -6.189   2.580 134.431  0.00  0.00    +0.000 NA
ENDBRANCH   2  17
BRANCH   1  19
ATOM     19  O   UNL     1      -3.787   4.981 132.930  0.00  0.00    +0.000 OA
BRANCH  19  20
ATOM     20  C   UNL     1      -2.819   4.625 131.927  0.00  0.00    +0.000 C 
BRANCH  20  22
ATOM     21  C   UNL     1      -1.431   6.535 131.082  0.00  0.00    +0.000 C 
ATOM     22  C   UNL     1      -1.531   5.426 132.131  0.00  0.00    +0.000 C 
ATOM     23  C   UNL     1      -1.502   6.016 133.531  0.00  0.00    +0.000 C 
ENDBRANCH  20  22
ENDBRANCH  19  20
ENDBRANCH   1  19
TORSDOF 7
ENDMDL
MODEL 7
REMARK VINA RESULT:      -6.0      6.805      8.113
REMARK  Name = Febuxostat
REMARK  10 active torsions:
REMARK  status: ('A' for Active; 'I' for Inactive)
REMARK    1  A    between atoms: C_1  and  C_2
REMARK    2  A    between atoms: C_2  and  C_3
REMARK    3  A    between atoms: C_2  and  C_4
REMARK    4  A    between atoms: C_4  and  O_5
REMARK    5  A    between atoms: O_5  and  C_6
REMARK    6  A    between atoms: C_7  and  C_21
REMARK    7  A    between atoms: C_9  and  C_12
REMARK    8  A    between atoms: C_14  and  C_15
REMARK    9  A    between atoms: C_16  and  C_18
REMARK   10  A    between atoms: C_18  and  O_19
REMARK                            x       y       z     vdW  Elec       q    Type
REMARK                         _______ _______ _______ _____ _____    ______ ____
ROOT
ATOM      1  C   UNL     1      -7.357  -0.412 128.277  0.00  0.00    +0.000 A 
ATOM      2  C   UNL     1      -7.748  -0.285 129.614  0.00  0.00    +0.000 A 
ATOM      3  C   UNL     1      -8.348   0.909 130.058  0.00  0.00    +0.000 A 
ATOM      4  C   UNL     1      -8.522   2.012 129.204  0.00  0.00    +0.000 A 
ATOM      5  C   UNL     1      -8.032   1.909 127.896  0.00  0.00    +0.000 A 
ATOM      6  C   UNL     1      -7.461   0.708 127.437  0.00  0.00    +0.000 A 
ENDROOT
BRANCH   4   7
ATOM      7  C   UNL     1      -9.114   3.255 129.732  0.00  0.00    +0.000 A 
ATOM      8  N   UNL     1      -9.175   4.375 129.045  0.00  0.00    +0.000 NA
ATOM      9  C   UNL     1      -9.754   5.383 129.801  0.00  0.00    +0.000 A 
ATOM     10  C   UNL     1      -9.948   6.717 129.167  0.00  0.00    +0.000 C 
ATOM     11  C   UNL     1     -10.097   5.037 131.103  0.00  0.00    +0.000 A 
ATOM     12  S   UNL     1      -9.715   3.378 131.352  0.00  0.00    +0.000 S 
BRANCH  11  13
ATOM     13  C   UNL     1     -10.686   5.938 132.084  0.00  0.00    +0.000 C 
ATOM     14  O   UNL     1     -10.048   6.537 132.940  0.00  0.00    +0.000 OA
BRANCH  13  15
ATOM     15  O   UNL     1     -12.032   6.094 132.009  0.00  0.00    +0.000 OA
ATOM     16  H   UNL     1     -12.347   6.798 131.417  0.00  0.00    +0.000 HD
ENDBRANCH  13  15
ENDBRANCH  11  13
ENDBRANCH   4   7
BRANCH   2  17
ATOM     17  C   UNL     1      -7.497  -1.313 130.587  0.00  0.00    +0.000 C 
ATOM     18  N   UNL     1      -7.346  -2.152 131.370  0.00  0.00    +0.000 NA
ENDBRANCH   2  17
BRANCH   1  19
ATOM     19  O   UNL     1      -6.765  -1.523 127.727  0.00  0.00    +0.000 OA
BRANCH  19  20
ATOM     20  C   UNL     1      -7.362  -2.015 126.514  0.00  0.00    +0.000 C 
BRANCH  20  22
ATOM     21  C   UNL     1      -9.408  -3.059 125.506  0.00  0.00    +0.000 C 
ATOM     22  C   UNL     1      -8.754  -2.582 126.804  0.00  0.00    +0.000 C 
ATOM     23  C   UNL     1      -8.651  -3.728 127.798  0.00  0.00    +0.000 C 
ENDBRANCH  20  22
ENDBRANCH  19  20
ENDBRANCH   1  19
TORSDOF 7
ENDMDL
MODEL 8
REMARK VINA RESULT:      -6.0      7.567      8.772
REMARK  Name = Febuxostat
REMARK  10 active torsions:
REMARK  status: ('A' for Active; 'I' for Inactive)
REMARK    1  A    between atoms: C_1  and  C_2
REMARK    2  A    between atoms: C_2  and  C_3
REMARK    3  A    between atoms: C_2  and  C_4
REMARK    4  A    between atoms: C_4  and  O_5
REMARK    5  A    between atoms: O_5  and  C_6
REMARK    6  A    between atoms: C_7  and  C_21
REMARK    7  A    between atoms: C_9  and  C_12
REMARK    8  A    between atoms: C_14  and  C_15
REMARK    9  A    between atoms: C_16  and  C_18
REMARK   10  A    between atoms: C_18  and  O_19
REMARK                            x       y       z     vdW  Elec       q    Type
REMARK                         _______ _______ _______ _____ _____    ______ ____
ROOT
ATOM      1  C   UNL     1      -7.768  -0.939 127.224  0.00  0.00    +0.000 A 
ATOM      2  C   UNL     1      -8.478   0.083 126.586  0.00  0.00    +0.000 A 
ATOM      3  C   UNL     1      -8.697   1.305 127.251  0.00  0.00    +0.000 A 
ATOM      4  C   UNL     1      -8.266   1.516 128.572  0.00  0.00    +0.000 A 
ATOM      5  C   UNL     1      -7.647   0.450 129.235  0.00  0.00    +0.000 A 
ATOM      6  C   UNL     1      -7.396  -0.763 128.566  0.00  0.00    +0.000 A 
ENDROOT
BRANCH   4   7
ATOM      7  C   UNL     1      -8.561   2.799 129.238  0.00  0.00    +0.000 A 
ATOM      8  N   UNL     1      -9.778   3.192 129.540  0.00  0.00    +0.000 NA
ATOM      9  C   UNL     1      -9.756   4.447 130.129  0.00  0.00    +0.000 A 
ATOM     10  C   UNL     1     -11.047   5.036 130.582  0.00  0.00    +0.000 C 
ATOM     11  C   UNL     1      -8.503   5.041 130.233  0.00  0.00    +0.000 A 
ATOM     12  S   UNL     1      -7.324   3.955 129.610  0.00  0.00    +0.000 S 
BRANCH  11  13
ATOM     13  C   UNL     1      -8.244   6.363 130.786  0.00  0.00    +0.000 C 
ATOM     14  O   UNL     1      -8.501   7.413 130.212  0.00  0.00    +0.000 OA
BRANCH  13  15
ATOM     15  O   UNL     1      -7.678   6.386 132.019  0.00  0.00    +0.000 OA
ATOM     16  H   UNL     1      -7.124   7.159 132.219  0.00  0.00    +0.000 HD
ENDBRANCH  13  15
ENDBRANCH  11  13
ENDBRANCH   4   7
BRANCH   2  17
ATOM     17  C   UNL     1      -9.064  -0.088 125.284  0.00  0.00    +0.000 C 
ATOM     18  N   UNL     1      -9.494  -0.204 124.216  0.00  0.00    +0.000 NA
ENDBRANCH   2  17
BRANCH   1  19
ATOM     19  O   UNL     1      -7.490  -2.170 126.680  0.00  0.00    +0.000 OA
BRANCH  19  20
ATOM     20  C   UNL     1      -6.224  -2.285 126.006  0.00  0.00    +0.000 C 
BRANCH  20  22
ATOM     21  C   UNL     1      -5.197  -3.501 124.068  0.00  0.00    +0.000 C 
ATOM     22  C   UNL     1      -6.437  -2.756 124.565  0.00  0.00    +0.000 C 
ATOM     23  C   UNL     1      -7.661  -3.653 124.486  0.00  0.00    +0.000 C 
ENDBRANCH  20  22
ENDBRANCH  19  20
ENDBRANCH   1  19
TORSDOF 7
ENDMDL
MODEL 9
REMARK VINA RESULT:      -6.0     10.306     12.655
REMARK  Name = Febuxostat
REMARK  10 active torsions:
REMARK  status: ('A' for Active; 'I' for Inactive)
REMARK    1  A    between atoms: C_1  and  C_2
REMARK    2  A    between atoms: C_2  and  C_3
REMARK    3  A    between atoms: C_2  and  C_4
REMARK    4  A    between atoms: C_4  and  O_5
REMARK    5  A    between atoms: O_5  and  C_6
REMARK    6  A    between atoms: C_7  and  C_21
REMARK    7  A    between atoms: C_9  and  C_12
REMARK    8  A    between atoms: C_14  and  C_15
REMARK    9  A    between atoms: C_16  and  C_18
REMARK   10  A    between atoms: C_18  and  O_19
REMARK                            x       y       z     vdW  Elec       q    Type
REMARK                         _______ _______ _______ _____ _____    ______ ____
ROOT
ATOM      1  C   UNL     1      -7.814  -2.322 127.708  0.00  0.00    +0.000 A 
ATOM      2  C   UNL     1      -6.471  -1.929 127.710  0.00  0.00    +0.000 A 
ATOM      3  C   UNL     1      -5.645  -2.262 128.800  0.00  0.00    +0.000 A 
ATOM      4  C   UNL     1      -6.143  -2.940 129.926  0.00  0.00    +0.000 A 
ATOM      5  C   UNL     1      -7.511  -3.237 129.958  0.00  0.00    +0.000 A 
ATOM      6  C   UNL     1      -8.336  -2.936 128.858  0.00  0.00    +0.000 A 
ENDROOT
BRANCH   4   7
ATOM      7  C   UNL     1      -5.244  -3.225 131.060  0.00  0.00    +0.000 A 
ATOM      8  N   UNL     1      -4.450  -2.325 131.595  0.00  0.00    +0.000 NA
ATOM      9  C   UNL     1      -3.700  -2.880 132.621  0.00  0.00    +0.000 A 
ATOM     10  C   UNL     1      -2.774  -1.992 133.378  0.00  0.00    +0.000 C 
ATOM     11  C   UNL     1      -3.892  -4.240 132.839  0.00  0.00    +0.000 A 
ATOM     12  S   UNL     1      -5.089  -4.810 131.743  0.00  0.00    +0.000 S 
BRANCH  11  13
ATOM     13  C   UNL     1      -3.194  -5.037 133.837  0.00  0.00    +0.000 C 
ATOM     14  O   UNL     1      -3.674  -5.373 134.911  0.00  0.00    +0.000 OA
BRANCH  13  15
ATOM     15  O   UNL     1      -1.929  -5.410 133.515  0.00  0.00    +0.000 OA
ATOM     16  H   UNL     1      -1.336  -5.598 134.262  0.00  0.00    +0.000 HD
ENDBRANCH  13  15
ENDBRANCH  11  13
ENDBRANCH   4   7
BRANCH   2  17
ATOM     17  C   UNL     1      -5.907  -1.125 126.660  0.00  0.00    +0.000 C 
ATOM     18  N   UNL     1      -5.425  -0.519 125.800  0.00  0.00    +0.000 NA
ENDBRANCH   2  17
BRANCH   1  19
ATOM     19  O   UNL     1      -8.716  -2.058 126.706  0.00  0.00    +0.000 OA
BRANCH  19  20
ATOM     20  C   UNL     1      -9.063  -3.174 125.867  0.00  0.00    +0.000 C 
BRANCH  20  22
ATOM     21  C   UNL     1      -7.198  -3.702 124.277  0.00  0.00    +0.000 C 
ATOM     22  C   UNL     1      -8.522  -2.957 124.451  0.00  0.00    +0.000 C 
ATOM     23  C   UNL     1      -9.538  -3.435 123.427  0.00  0.00    +0.000 C 
ENDBRANCH  20  22
ENDBRANCH  19  20
ENDBRANCH   1  19
TORSDOF 7
ENDMDL
