MODEL 1
REMARK VINA RESULT:      -9.3      0.000      0.000
REMARK  Name = Fedratinib
REMARK  13 active torsions:
REMARK  status: ('A' for Active; 'I' for Inactive)
REMARK    1  A    between atoms: C_1  and  C_2
REMARK    2  A    between atoms: N_6  and  C_7
REMARK    3  A    between atoms: C_10  and  O_11
REMARK    4  A    between atoms: O_11  and  C_12
REMARK    5  A    between atoms: C_12  and  C_13
REMARK    6  A    between atoms: C_13  and  N_14
REMARK    7  A    between atoms: N_23  and  C_24
REMARK    8  A    between atoms: C_28  and  S_30
REMARK    9  A    between atoms: S_30  and  N_33
REMARK   10  A    between atoms: N_33  and  C_34
REMARK   11  A    between atoms: C_34  and  C_35
REMARK   12  A    between atoms: C_34  and  C_36
REMARK   13  A    between atoms: C_34  and  C_37
REMARK                            x       y       z     vdW  Elec       q    Type
REMARK                         _______ _______ _______ _____ _____    ______ ____
ROOT
ATOM      1  C   UNL     1      -8.225   1.930 132.908  0.00  0.00    +0.000 C 
ATOM      2  C   UNL     1      -8.001   0.785 131.981  0.00  0.00    +0.000 A 
ATOM      3  C   UNL     1      -7.609  -0.423 132.518  0.00  0.00    +0.000 A 
ATOM      4  N   UNL     1      -7.410  -1.538 131.804  0.00  0.00    +0.000 NA
ATOM      5  C   UNL     1      -7.611  -1.430 130.488  0.00  0.00    +0.000 A 
ATOM      6  N   UNL     1      -7.539  -2.605 129.749  0.00  0.00    +0.000 N 
ATOM      7  N   UNL     1      -7.946  -0.283 129.867  0.00  0.00    +0.000 NA
ATOM      8  C   UNL     1      -8.138   0.823 130.599  0.00  0.00    +0.000 A 
ATOM      9  N   UNL     1      -8.520   1.962 129.874  0.00  0.00    +0.000 N 
ATOM     10  H   UNL     1      -7.237  -3.399 130.292  0.00  0.00    +0.000 HD
ATOM     11  H   UNL     1      -8.651   1.780 128.885  0.00  0.00    +0.000 HD
ENDROOT
BRANCH   6  12
ATOM     12  C   UNL     1      -7.529  -2.713 128.361  0.00  0.00    +0.000 A 
ATOM     13  C   UNL     1      -8.600  -3.311 127.696  0.00  0.00    +0.000 A 
ATOM     14  C   UNL     1      -8.600  -3.420 126.303  0.00  0.00    +0.000 A 
ATOM     15  C   UNL     1      -7.548  -2.892 125.554  0.00  0.00    +0.000 A 
ATOM     16  C   UNL     1      -6.473  -2.295 126.219  0.00  0.00    +0.000 A 
ATOM     17  C   UNL     1      -6.463  -2.215 127.609  0.00  0.00    +0.000 A 
BRANCH  15  18
ATOM     18  O   UNL     1      -7.682  -3.009 124.190  0.00  0.00    +0.000 OA
BRANCH  18  19
ATOM     19  C   UNL     1      -8.872  -2.410 123.683  0.00  0.00    +0.000 C 
BRANCH  19  20
ATOM     20  C   UNL     1      -8.678  -0.931 123.320  0.00  0.00    +0.000 C 
BRANCH  20  21
ATOM     21  N   UNL     1      -9.846  -0.087 123.688  0.00  0.00    +0.000 NA
ATOM     22  C   UNL     1     -10.185   0.905 122.651  0.00  0.00    +0.000 C 
ATOM     23  C   UNL     1      -9.188   2.017 122.887  0.00  0.00    +0.000 C 
ATOM     24  C   UNL     1      -9.260   2.149 124.395  0.00  0.00    +0.000 C 
ATOM     25  C   UNL     1      -9.543   0.726 124.890  0.00  0.00    +0.000 C 
ENDBRANCH  20  21
ENDBRANCH  19  20
ENDBRANCH  18  19
ENDBRANCH  15  18
ENDBRANCH   6  12
BRANCH   9  26
ATOM     26  C   UNL     1      -8.636   3.287 130.303  0.00  0.00    +0.000 A 
ATOM     27  C   UNL     1      -7.500   4.092 130.461  0.00  0.00    +0.000 A 
ATOM     28  C   UNL     1      -7.628   5.464 130.687  0.00  0.00    +0.000 A 
ATOM     29  C   UNL     1      -8.886   6.050 130.649  0.00  0.00    +0.000 A 
ATOM     30  C   UNL     1     -10.016   5.238 130.518  0.00  0.00    +0.000 A 
ATOM     31  C   UNL     1      -9.903   3.858 130.441  0.00  0.00    +0.000 A 
BRANCH  30  32
ATOM     32  S   UNL     1     -11.566   6.056 130.428  0.00  0.00    +0.000 S 
ATOM     33  O   UNL     1     -12.281   5.312 129.424  0.00  0.00    +0.000 OA
ATOM     34  O   UNL     1     -12.036   6.174 131.796  0.00  0.00    +0.000 OA
BRANCH  32  35
ATOM     35  N   UNL     1     -11.300   7.647 129.821  0.00  0.00    +0.000 NA
ATOM     36  H   UNL     1     -10.341   7.735 129.481  0.00  0.00    +0.000 HD
BRANCH  35  37
ATOM     37  C   UNL     1     -12.276   8.122 128.761  0.00  0.00    +0.000 C 
ATOM     38  C   UNL     1     -11.563   8.188 127.407  0.00  0.00    +0.000 C 
ATOM     39  C   UNL     1     -13.506   7.214 128.700  0.00  0.00    +0.000 C 
ATOM     40  C   UNL     1     -12.762   9.546 129.096  0.00  0.00    +0.000 C 
ENDBRANCH  35  37
ENDBRANCH  32  35
ENDBRANCH  30  32
ENDBRANCH   9  26
TORSDOF 9
ENDMDL
MODEL 2
REMARK VINA RESULT:      -8.9      3.139      9.256
REMARK  Name = Fedratinib
REMARK  13 active torsions:
REMARK  status: ('A' for Active; 'I' for Inactive)
REMARK    1  A    between atoms: C_1  and  C_2
REMARK    2  A    between atoms: N_6  and  C_7
REMARK    3  A    between atoms: C_10  and  O_11
REMARK    4  A    between atoms: O_11  and  C_12
REMARK    5  A    between atoms: C_12  and  C_13
REMARK    6  A    between atoms: C_13  and  N_14
REMARK    7  A    between atoms: N_23  and  C_24
REMARK    8  A    between atoms: C_28  and  S_30
REMARK    9  A    between atoms: S_30  and  N_33
REMARK   10  A    between atoms: N_33  and  C_34
REMARK   11  A    between atoms: C_34  and  C_35
REMARK   12  A    between atoms: C_34  and  C_36
REMARK   13  A    between atoms: C_34  and  C_37
REMARK                            x       y       z     vdW  Elec       q    Type
REMARK                         _______ _______ _______ _____ _____    ______ ____
ROOT
ATOM      1  C   UNL     1      -4.607   1.934 126.049  0.00  0.00    +0.000 C 
ATOM      2  C   UNL     1      -5.093   2.502 127.337  0.00  0.00    +0.000 A 
ATOM      3  C   UNL     1      -4.351   2.267 128.475  0.00  0.00    +0.000 A 
ATOM      4  N   UNL     1      -4.654   2.748 129.688  0.00  0.00    +0.000 NA
ATOM      5  C   UNL     1      -5.757   3.499 129.757  0.00  0.00    +0.000 A 
ATOM      6  N   UNL     1      -6.014   4.116 130.975  0.00  0.00    +0.000 N 
ATOM      7  N   UNL     1      -6.571   3.743 128.712  0.00  0.00    +0.000 NA
ATOM      8  C   UNL     1      -6.251   3.249 127.508  0.00  0.00    +0.000 A 
ATOM      9  N   UNL     1      -7.136   3.583 126.471  0.00  0.00    +0.000 N 
ATOM     10  H   UNL     1      -5.378   3.836 131.706  0.00  0.00    +0.000 HD
ATOM     11  H   UNL     1      -7.880   4.205 126.766  0.00  0.00    +0.000 HD
ENDROOT
BRANCH   6  12
ATOM     12  C   UNL     1      -7.182   4.784 131.337  0.00  0.00    +0.000 A 
ATOM     13  C   UNL     1      -8.259   4.075 131.869  0.00  0.00    +0.000 A 
ATOM     14  C   UNL     1      -9.433   4.738 132.237  0.00  0.00    +0.000 A 
ATOM     15  C   UNL     1      -9.527   6.124 132.120  0.00  0.00    +0.000 A 
ATOM     16  C   UNL     1      -8.449   6.836 131.585  0.00  0.00    +0.000 A 
ATOM     17  C   UNL     1      -7.292   6.168 131.190  0.00  0.00    +0.000 A 
BRANCH  15  18
ATOM     18  O   UNL     1     -10.707   6.672 132.564  0.00  0.00    +0.000 OA
BRANCH  18  19
ATOM     19  C   UNL     1     -11.849   6.234 131.831  0.00  0.00    +0.000 C 
BRANCH  19  20
ATOM     20  C   UNL     1     -12.618   7.398 131.191  0.00  0.00    +0.000 C 
BRANCH  20  21
ATOM     21  N   UNL     1     -12.888   7.185 129.743  0.00  0.00    +0.000 NA
ATOM     22  C   UNL     1     -11.776   6.512 129.047  0.00  0.00    +0.000 C 
ATOM     23  C   UNL     1     -10.789   7.629 128.795  0.00  0.00    +0.000 C 
ATOM     24  C   UNL     1     -11.714   8.718 128.289  0.00  0.00    +0.000 C 
ATOM     25  C   UNL     1     -13.028   8.485 129.044  0.00  0.00    +0.000 C 
ENDBRANCH  20  21
ENDBRANCH  19  20
ENDBRANCH  18  19
ENDBRANCH  15  18
ENDBRANCH   6  12
BRANCH   9  26
ATOM     26  C   UNL     1      -7.183   3.105 125.159  0.00  0.00    +0.000 A 
ATOM     27  C   UNL     1      -6.515   3.777 124.126  0.00  0.00    +0.000 A 
ATOM     28  C   UNL     1      -6.389   3.193 122.863  0.00  0.00    +0.000 A 
ATOM     29  C   UNL     1      -6.837   1.895 122.662  0.00  0.00    +0.000 A 
ATOM     30  C   UNL     1      -7.525   1.240 123.687  0.00  0.00    +0.000 A 
ATOM     31  C   UNL     1      -7.782   1.871 124.895  0.00  0.00    +0.000 A 
BRANCH  30  32
ATOM     32  S   UNL     1      -8.013  -0.416 123.374  0.00  0.00    +0.000 S 
ATOM     33  O   UNL     1      -9.296  -0.273 122.738  0.00  0.00    +0.000 OA
ATOM     34  O   UNL     1      -6.883  -1.049 122.718  0.00  0.00    +0.000 OA
BRANCH  32  35
ATOM     35  N   UNL     1      -8.254  -1.202 124.888  0.00  0.00    +0.000 NA
ATOM     36  H   UNL     1      -9.025  -0.760 125.392  0.00  0.00    +0.000 HD
BRANCH  35  37
ATOM     37  C   UNL     1      -8.462  -2.704 124.828  0.00  0.00    +0.000 C 
ATOM     38  C   UNL     1      -9.069  -3.187 126.148  0.00  0.00    +0.000 C 
ATOM     39  C   UNL     1      -9.340  -3.090 123.636  0.00  0.00    +0.000 C 
ATOM     40  C   UNL     1      -7.104  -3.415 124.658  0.00  0.00    +0.000 C 
ENDBRANCH  35  37
ENDBRANCH  32  35
ENDBRANCH  30  32
ENDBRANCH   9  26
TORSDOF 9
ENDMDL
MODEL 3
REMARK VINA RESULT:      -8.9      2.968      9.206
REMARK  Name = Fedratinib
REMARK  13 active torsions:
REMARK  status: ('A' for Active; 'I' for Inactive)
REMARK    1  A    between atoms: C_1  and  C_2
REMARK    2  A    between atoms: N_6  and  C_7
REMARK    3  A    between atoms: C_10  and  O_11
REMARK    4  A    between atoms: O_11  and  C_12
REMARK    5  A    between atoms: C_12  and  C_13
REMARK    6  A    between atoms: C_13  and  N_14
REMARK    7  A    between atoms: N_23  and  C_24
REMARK    8  A    between atoms: C_28  and  S_30
REMARK    9  A    between atoms: S_30  and  N_33
REMARK   10  A    between atoms: N_33  and  C_34
REMARK   11  A    between atoms: C_34  and  C_35
REMARK   12  A    between atoms: C_34  and  C_36
REMARK   13  A    between atoms: C_34  and  C_37
REMARK                            x       y       z     vdW  Elec       q    Type
REMARK                         _______ _______ _______ _____ _____    ______ ____
ROOT
ATOM      1  C   UNL     1      -5.340  -2.241 130.504  0.00  0.00    +0.000 C 
ATOM      2  C   UNL     1      -5.642  -0.946 131.175  0.00  0.00    +0.000 A 
ATOM      3  C   UNL     1      -4.856  -0.564 132.241  0.00  0.00    +0.000 A 
ATOM      4  N   UNL     1      -4.996   0.589 132.908  0.00  0.00    +0.000 NA
ATOM      5  C   UNL     1      -5.974   1.393 132.482  0.00  0.00    +0.000 A 
ATOM      6  N   UNL     1      -6.050   2.648 133.073  0.00  0.00    +0.000 N 
ATOM      7  N   UNL     1      -6.823   1.085 131.482  0.00  0.00    +0.000 NA
ATOM      8  C   UNL     1      -6.668  -0.075 130.830  0.00  0.00    +0.000 A 
ATOM      9  N   UNL     1      -7.573  -0.296 129.781  0.00  0.00    +0.000 N 
ATOM     10  H   UNL     1      -5.406   2.767 133.840  0.00  0.00    +0.000 HD
ATOM     11  H   UNL     1      -8.198   0.486 129.621  0.00  0.00    +0.000 HD
ENDROOT
BRANCH   6  12
ATOM     12  C   UNL     1      -7.081   3.573 132.928  0.00  0.00    +0.000 A 
ATOM     13  C   UNL     1      -6.962   4.618 132.011  0.00  0.00    +0.000 A 
ATOM     14  C   UNL     1      -7.993   5.549 131.857  0.00  0.00    +0.000 A 
ATOM     15  C   UNL     1      -9.175   5.419 132.586  0.00  0.00    +0.000 A 
ATOM     16  C   UNL     1      -9.295   4.374 133.507  0.00  0.00    +0.000 A 
ATOM     17  C   UNL     1      -8.253   3.467 133.681  0.00  0.00    +0.000 A 
BRANCH  15  18
ATOM     18  O   UNL     1     -10.140   6.360 132.312  0.00  0.00    +0.000 OA
BRANCH  18  19
ATOM     19  C   UNL     1     -10.564   6.359 130.951  0.00  0.00    +0.000 C 
BRANCH  19  20
ATOM     20  C   UNL     1     -11.785   7.258 130.714  0.00  0.00    +0.000 C 
BRANCH  20  21
ATOM     21  N   UNL     1     -11.605   8.188 129.567  0.00  0.00    +0.000 NA
ATOM     22  C   UNL     1     -12.874   8.779 129.103  0.00  0.00    +0.000 C 
ATOM     23  C   UNL     1     -13.478   7.689 128.247  0.00  0.00    +0.000 C 
ATOM     24  C   UNL     1     -12.271   7.262 127.437  0.00  0.00    +0.000 C 
ATOM     25  C   UNL     1     -11.084   7.460 128.385  0.00  0.00    +0.000 C 
ENDBRANCH  20  21
ENDBRANCH  19  20
ENDBRANCH  18  19
ENDBRANCH  15  18
ENDBRANCH   6  12
BRANCH   9  26
ATOM     26  C   UNL     1      -7.786  -1.451 129.024  0.00  0.00    +0.000 A 
ATOM     27  C   UNL     1      -8.265  -2.624 129.623  0.00  0.00    +0.000 A 
ATOM     28  C   UNL     1      -8.671  -3.707 128.841  0.00  0.00    +0.000 A 
ATOM     29  C   UNL     1      -8.699  -3.580 127.458  0.00  0.00    +0.000 A 
ATOM     30  C   UNL     1      -8.196  -2.419 126.866  0.00  0.00    +0.000 A 
ATOM     31  C   UNL     1      -7.654  -1.399 127.634  0.00  0.00    +0.000 A 
BRANCH  30  32
ATOM     32  S   UNL     1      -8.314  -2.313 125.118  0.00  0.00    +0.000 S 
ATOM     33  O   UNL     1      -9.607  -2.876 124.835  0.00  0.00    +0.000 OA
ATOM     34  O   UNL     1      -7.966  -0.946 124.777  0.00  0.00    +0.000 OA
BRANCH  32  35
ATOM     35  N   UNL     1      -7.120  -3.349 124.435  0.00  0.00    +0.000 NA
ATOM     36  H   UNL     1      -7.546  -3.957 123.733  0.00  0.00    +0.000 HD
BRANCH  35  37
ATOM     37  C   UNL     1      -5.898  -2.659 123.856  0.00  0.00    +0.000 C 
ATOM     38  C   UNL     1      -5.419  -1.576 124.827  0.00  0.00    +0.000 C 
ATOM     39  C   UNL     1      -4.789  -3.668 123.554  0.00  0.00    +0.000 C 
ATOM     40  C   UNL     1      -6.268  -1.961 122.532  0.00  0.00    +0.000 C 
ENDBRANCH  35  37
ENDBRANCH  32  35
ENDBRANCH  30  32
ENDBRANCH   9  26
TORSDOF 9
ENDMDL
MODEL 4
REMARK VINA RESULT:      -8.7      1.406      2.054
REMARK  Name = Fedratinib
REMARK  13 active torsions:
REMARK  status: ('A' for Active; 'I' for Inactive)
REMARK    1  A    between atoms: C_1  and  C_2
REMARK    2  A    between atoms: N_6  and  C_7
REMARK    3  A    between atoms: C_10  and  O_11
REMARK    4  A    between atoms: O_11  and  C_12
REMARK    5  A    between atoms: C_12  and  C_13
REMARK    6  A    between atoms: C_13  and  N_14
REMARK    7  A    between atoms: N_23  and  C_24
REMARK    8  A    between atoms: C_28  and  S_30
REMARK    9  A    between atoms: S_30  and  N_33
REMARK   10  A    between atoms: N_33  and  C_34
REMARK   11  A    between atoms: C_34  and  C_35
REMARK   12  A    between atoms: C_34  and  C_36
REMARK   13  A    between atoms: C_34  and  C_37
REMARK                            x       y       z     vdW  Elec       q    Type
REMARK                         _______ _______ _______ _____ _____    ______ ____
ROOT
ATOM      1  C   UNL     1      -7.808   3.176 133.788  0.00  0.00    +0.000 C 
ATOM      2  C   UNL     1      -7.380   1.970 133.025  0.00  0.00    +0.000 A 
ATOM      3  C   UNL     1      -6.790   0.934 133.718  0.00  0.00    +0.000 A 
ATOM      4  N   UNL     1      -6.394  -0.218 133.162  0.00  0.00    +0.000 NA
ATOM      5  C   UNL     1      -6.598  -0.330 131.847  0.00  0.00    +0.000 A 
ATOM      6  N   UNL     1      -6.316  -1.566 131.276  0.00  0.00    +0.000 N 
ATOM      7  N   UNL     1      -7.121   0.645 131.078  0.00  0.00    +0.000 NA
ATOM      8  C   UNL     1      -7.509   1.791 131.653  0.00  0.00    +0.000 A 
ATOM      9  N   UNL     1      -8.074   2.735 130.783  0.00  0.00    +0.000 N 
ATOM     10  H   UNL     1      -5.887  -2.212 131.919  0.00  0.00    +0.000 HD
ATOM     11  H   UNL     1      -8.163   2.398 129.831  0.00  0.00    +0.000 HD
ENDROOT
BRANCH   6  12
ATOM     12  C   UNL     1      -6.275  -1.861 129.916  0.00  0.00    +0.000 A 
ATOM     13  C   UNL     1      -7.448  -2.181 129.231  0.00  0.00    +0.000 A 
ATOM     14  C   UNL     1      -7.415  -2.476 127.866  0.00  0.00    +0.000 A 
ATOM     15  C   UNL     1      -6.215  -2.411 127.159  0.00  0.00    +0.000 A 
ATOM     16  C   UNL     1      -5.038  -2.093 127.843  0.00  0.00    +0.000 A 
ATOM     17  C   UNL     1      -5.070  -1.830 129.210  0.00  0.00    +0.000 A 
BRANCH  15  18
ATOM     18  O   UNL     1      -6.314  -2.667 125.811  0.00  0.00    +0.000 OA
BRANCH  18  19
ATOM     19  C   UNL     1      -5.604  -1.732 125.001  0.00  0.00    +0.000 C 
BRANCH  19  20
ATOM     20  C   UNL     1      -6.398  -0.440 124.762  0.00  0.00    +0.000 C 
BRANCH  20  21
ATOM     21  N   UNL     1      -6.917  -0.330 123.372  0.00  0.00    +0.000 NA
ATOM     22  C   UNL     1      -8.354   0.001 123.323  0.00  0.00    +0.000 C 
ATOM     23  C   UNL     1      -9.031  -1.327 123.572  0.00  0.00    +0.000 C 
ATOM     24  C   UNL     1      -8.227  -2.232 122.660  0.00  0.00    +0.000 C 
ATOM     25  C   UNL     1      -6.816  -1.635 122.675  0.00  0.00    +0.000 C 
ENDBRANCH  20  21
ENDBRANCH  19  20
ENDBRANCH  18  19
ENDBRANCH  15  18
ENDBRANCH   6  12
BRANCH   9  26
ATOM     26  C   UNL     1      -8.422   4.067 131.026  0.00  0.00    +0.000 A 
ATOM     27  C   UNL     1      -7.435   5.047 131.195  0.00  0.00    +0.000 A 
ATOM     28  C   UNL     1      -7.777   6.401 131.231  0.00  0.00    +0.000 A 
ATOM     29  C   UNL     1      -9.091   6.781 130.993  0.00  0.00    +0.000 A 
ATOM     30  C   UNL     1     -10.075   5.799 130.852  0.00  0.00    +0.000 A 
ATOM     31  C   UNL     1      -9.764   4.452 130.962  0.00  0.00    +0.000 A 
BRANCH  30  32
ATOM     32  S   UNL     1     -11.700   6.358 130.502  0.00  0.00    +0.000 S 
ATOM     33  O   UNL     1     -12.142   5.474 129.455  0.00  0.00    +0.000 OA
ATOM     34  O   UNL     1     -12.376   6.449 131.784  0.00  0.00    +0.000 OA
BRANCH  32  35
ATOM     35  N   UNL     1     -11.593   7.947 129.846  0.00  0.00    +0.000 NA
ATOM     36  H   UNL     1     -10.620   8.171 129.630  0.00  0.00    +0.000 HD
BRANCH  35  37
ATOM     37  C   UNL     1     -12.474   8.227 128.643  0.00  0.00    +0.000 C 
ATOM     38  C   UNL     1     -11.626   8.178 127.369  0.00  0.00    +0.000 C 
ATOM     39  C   UNL     1     -13.641   7.239 128.574  0.00  0.00    +0.000 C 
ATOM     40  C   UNL     1     -13.069   9.646 128.746  0.00  0.00    +0.000 C 
ENDBRANCH  35  37
ENDBRANCH  32  35
ENDBRANCH  30  32
ENDBRANCH   9  26
TORSDOF 9
ENDMDL
MODEL 5
REMARK VINA RESULT:      -8.6      2.490      3.787
REMARK  Name = Fedratinib
REMARK  13 active torsions:
REMARK  status: ('A' for Active; 'I' for Inactive)
REMARK    1  A    between atoms: C_1  and  C_2
REMARK    2  A    between atoms: N_6  and  C_7
REMARK    3  A    between atoms: C_10  and  O_11
REMARK    4  A    between atoms: O_11  and  C_12
REMARK    5  A    between atoms: C_12  and  C_13
REMARK    6  A    between atoms: C_13  and  N_14
REMARK    7  A    between atoms: N_23  and  C_24
REMARK    8  A    between atoms: C_28  and  S_30
REMARK    9  A    between atoms: S_30  and  N_33
REMARK   10  A    between atoms: N_33  and  C_34
REMARK   11  A    between atoms: C_34  and  C_35
REMARK   12  A    between atoms: C_34  and  C_36
REMARK   13  A    between atoms: C_34  and  C_37
REMARK                            x       y       z     vdW  Elec       q    Type
REMARK                         _______ _______ _______ _____ _____    ______ ____
ROOT
ATOM      1  C   UNL     1      -8.494   2.039 132.620  0.00  0.00    +0.000 C 
ATOM      2  C   UNL     1      -8.209   0.885 131.722  0.00  0.00    +0.000 A 
ATOM      3  C   UNL     1      -7.787  -0.298 132.291  0.00  0.00    +0.000 A 
ATOM      4  N   UNL     1      -7.531  -1.418 131.605  0.00  0.00    +0.000 NA
ATOM      5  C   UNL     1      -7.707  -1.344 130.282  0.00  0.00    +0.000 A 
ATOM      6  N   UNL     1      -7.576  -2.529 129.569  0.00  0.00    +0.000 N 
ATOM      7  N   UNL     1      -8.068  -0.221 129.631  0.00  0.00    +0.000 NA
ATOM      8  C   UNL     1      -8.317   0.891 130.337  0.00  0.00    +0.000 A 
ATOM      9  N   UNL     1      -8.722   2.001 129.580  0.00  0.00    +0.000 N 
ATOM     10  H   UNL     1      -7.259  -3.301 130.135  0.00  0.00    +0.000 HD
ATOM     11  H   UNL     1      -8.825   1.795 128.593  0.00  0.00    +0.000 HD
ENDROOT
BRANCH   6  12
ATOM     12  C   UNL     1      -7.531  -2.663 128.183  0.00  0.00    +0.000 A 
ATOM     13  C   UNL     1      -8.595  -3.254 127.501  0.00  0.00    +0.000 A 
ATOM     14  C   UNL     1      -8.560  -3.389 126.111  0.00  0.00    +0.000 A 
ATOM     15  C   UNL     1      -7.479  -2.895 125.381  0.00  0.00    +0.000 A 
ATOM     16  C   UNL     1      -6.410  -2.305 126.064  0.00  0.00    +0.000 A 
ATOM     17  C   UNL     1      -6.436  -2.200 127.452  0.00  0.00    +0.000 A 
BRANCH  15  18
ATOM     18  O   UNL     1      -7.578  -3.035 124.017  0.00  0.00    +0.000 OA
BRANCH  18  19
ATOM     19  C   UNL     1      -8.807  -2.547 123.483  0.00  0.00    +0.000 C 
BRANCH  19  20
ATOM     20  C   UNL     1      -8.723  -1.072 123.067  0.00  0.00    +0.000 C 
BRANCH  20  21
ATOM     21  N   UNL     1      -9.816  -0.245 123.646  0.00  0.00    +0.000 NA
ATOM     22  C   UNL     1     -10.236   0.853 122.755  0.00  0.00    +0.000 C 
ATOM     23  C   UNL     1      -9.184   1.914 122.984  0.00  0.00    +0.000 C 
ATOM     24  C   UNL     1      -9.083   1.896 124.495  0.00  0.00    +0.000 C 
ATOM     25  C   UNL     1      -9.354   0.437 124.879  0.00  0.00    +0.000 C 
ENDBRANCH  20  21
ENDBRANCH  19  20
ENDBRANCH  18  19
ENDBRANCH  15  18
ENDBRANCH   6  12
BRANCH   9  26
ATOM     26  C   UNL     1      -8.895   3.329 129.980  0.00  0.00    +0.000 A 
ATOM     27  C   UNL     1     -10.146   3.791 130.411  0.00  0.00    +0.000 A 
ATOM     28  C   UNL     1     -10.273   5.050 131.001  0.00  0.00    +0.000 A 
ATOM     29  C   UNL     1      -9.135   5.804 131.258  0.00  0.00    +0.000 A 
ATOM     30  C   UNL     1      -7.894   5.350 130.802  0.00  0.00    +0.000 A 
ATOM     31  C   UNL     1      -7.783   4.168 130.085  0.00  0.00    +0.000 A 
BRANCH  30  32
ATOM     32  S   UNL     1      -6.499   6.332 131.210  0.00  0.00    +0.000 S 
ATOM     33  O   UNL     1      -6.769   7.586 130.557  0.00  0.00    +0.000 OA
ATOM     34  O   UNL     1      -6.338   6.220 132.648  0.00  0.00    +0.000 OA
BRANCH  32  35
ATOM     35  N   UNL     1      -5.112   5.632 130.466  0.00  0.00    +0.000 NA
ATOM     36  H   UNL     1      -5.326   5.375 129.501  0.00  0.00    +0.000 HD
BRANCH  35  37
ATOM     37  C   UNL     1      -3.844   6.464 130.518  0.00  0.00    +0.000 C 
ATOM     38  C   UNL     1      -3.783   7.216 131.850  0.00  0.00    +0.000 C 
ATOM     39  C   UNL     1      -2.605   5.590 130.314  0.00  0.00    +0.000 C 
ATOM     40  C   UNL     1      -3.862   7.518 129.393  0.00  0.00    +0.000 C 
ENDBRANCH  35  37
ENDBRANCH  32  35
ENDBRANCH  30  32
ENDBRANCH   9  26
TORSDOF 9
ENDMDL
MODEL 6
REMARK VINA RESULT:      -8.6      4.678      8.571
REMARK  Name = Fedratinib
REMARK  13 active torsions:
REMARK  status: ('A' for Active; 'I' for Inactive)
REMARK    1  A    between atoms: C_1  and  C_2
REMARK    2  A    between atoms: N_6  and  C_7
REMARK    3  A    between atoms: C_10  and  O_11
REMARK    4  A    between atoms: O_11  and  C_12
REMARK    5  A    between atoms: C_12  and  C_13
REMARK    6  A    between atoms: C_13  and  N_14
REMARK    7  A    between atoms: N_23  and  C_24
REMARK    8  A    between atoms: C_28  and  S_30
REMARK    9  A    between atoms: S_30  and  N_33
REMARK   10  A    between atoms: N_33  and  C_34
REMARK   11  A    between atoms: C_34  and  C_35
REMARK   12  A    between atoms: C_34  and  C_36
REMARK   13  A    between atoms: C_34  and  C_37
REMARK                            x       y       z     vdW  Elec       q    Type
REMARK                         _______ _______ _______ _____ _____    ______ ____
ROOT
ATOM      1  C   UNL     1      -8.896  -4.230 128.029  0.00  0.00    +0.000 C 
ATOM      2  C   UNL     1      -8.852  -3.117 127.040  0.00  0.00    +0.000 A 
ATOM      3  C   UNL     1      -9.543  -3.268 125.856  0.00  0.00    +0.000 A 
ATOM      4  N   UNL     1      -9.616  -2.333 124.900  0.00  0.00    +0.000 NA
ATOM      5  C   UNL     1      -8.961  -1.195 125.147  0.00  0.00    +0.000 A 
ATOM      6  N   UNL     1      -9.135  -0.166 124.229  0.00  0.00    +0.000 N 
ATOM      7  N   UNL     1      -8.220  -0.974 126.250  0.00  0.00    +0.000 NA
ATOM      8  C   UNL     1      -8.158  -1.923 127.194  0.00  0.00    +0.000 A 
ATOM      9  N   UNL     1      -7.394  -1.594 128.324  0.00  0.00    +0.000 N 
ATOM     10  H   UNL     1      -9.665  -0.441 123.418  0.00  0.00    +0.000 HD
ATOM     11  H   UNL     1      -7.030  -0.648 128.297  0.00  0.00    +0.000 HD
ENDROOT
BRANCH   6  12
ATOM     12  C   UNL     1      -8.420   1.028 124.177  0.00  0.00    +0.000 A 
ATOM     13  C   UNL     1      -8.947   2.187 124.749  0.00  0.00    +0.000 A 
ATOM     14  C   UNL     1      -8.235   3.389 124.703  0.00  0.00    +0.000 A 
ATOM     15  C   UNL     1      -6.966   3.435 124.125  0.00  0.00    +0.000 A 
ATOM     16  C   UNL     1      -6.438   2.276 123.550  0.00  0.00    +0.000 A 
ATOM     17  C   UNL     1      -7.164   1.088 123.570  0.00  0.00    +0.000 A 
BRANCH  15  18
ATOM     18  O   UNL     1      -6.338   4.657 124.188  0.00  0.00    +0.000 OA
BRANCH  18  19
ATOM     19  C   UNL     1      -5.915   5.012 125.502  0.00  0.00    +0.000 C 
BRANCH  19  20
ATOM     20  C   UNL     1      -4.669   4.234 125.949  0.00  0.00    +0.000 C 
BRANCH  20  21
ATOM     21  N   UNL     1      -4.778   3.718 127.340  0.00  0.00    +0.000 NA
ATOM     22  C   UNL     1      -4.192   2.375 127.501  0.00  0.00    +0.000 C 
ATOM     23  C   UNL     1      -5.270   1.455 126.975  0.00  0.00    +0.000 C 
ATOM     24  C   UNL     1      -6.498   2.046 127.637  0.00  0.00    +0.000 C 
ATOM     25  C   UNL     1      -6.201   3.547 127.721  0.00  0.00    +0.000 C 
ENDBRANCH  20  21
ENDBRANCH  19  20
ENDBRANCH  18  19
ENDBRANCH  15  18
ENDBRANCH   6  12
BRANCH   9  26
ATOM     26  C   UNL     1      -6.998  -2.403 129.392  0.00  0.00    +0.000 A 
ATOM     27  C   UNL     1      -5.920  -3.290 129.259  0.00  0.00    +0.000 A 
ATOM     28  C   UNL     1      -5.396  -3.943 130.376  0.00  0.00    +0.000 A 
ATOM     29  C   UNL     1      -5.877  -3.630 131.641  0.00  0.00    +0.000 A 
ATOM     30  C   UNL     1      -6.969  -2.765 131.764  0.00  0.00    +0.000 A 
ATOM     31  C   UNL     1      -7.588  -2.228 130.646  0.00  0.00    +0.000 A 
BRANCH  30  32
ATOM     32  S   UNL     1      -7.485  -2.380 133.396  0.00  0.00    +0.000 S 
ATOM     33  O   UNL     1      -6.262  -2.420 134.154  0.00  0.00    +0.000 OA
ATOM     34  O   UNL     1      -8.296  -1.180 133.285  0.00  0.00    +0.000 OA
BRANCH  32  35
ATOM     35  N   UNL     1      -8.500  -3.654 133.955  0.00  0.00    +0.000 NA
ATOM     36  H   UNL     1      -8.630  -4.347 133.215  0.00  0.00    +0.000 HD
BRANCH  35  37
ATOM     37  C   UNL     1      -8.060  -4.336 135.237  0.00  0.00    +0.000 C 
ATOM     38  C   UNL     1      -6.843  -5.220 134.951  0.00  0.00    +0.000 C 
ATOM     39  C   UNL     1      -7.759  -3.309 136.330  0.00  0.00    +0.000 C 
ATOM     40  C   UNL     1      -9.185  -5.254 135.756  0.00  0.00    +0.000 C 
ENDBRANCH  35  37
ENDBRANCH  32  35
ENDBRANCH  30  32
ENDBRANCH   9  26
TORSDOF 9
ENDMDL
MODEL 7
REMARK VINA RESULT:      -8.5      2.603      5.382
REMARK  Name = Fedratinib
REMARK  13 active torsions:
REMARK  status: ('A' for Active; 'I' for Inactive)
REMARK    1  A    between atoms: C_1  and  C_2
REMARK    2  A    between atoms: N_6  and  C_7
REMARK    3  A    between atoms: C_10  and  O_11
REMARK    4  A    between atoms: O_11  and  C_12
REMARK    5  A    between atoms: C_12  and  C_13
REMARK    6  A    between atoms: C_13  and  N_14
REMARK    7  A    between atoms: N_23  and  C_24
REMARK    8  A    between atoms: C_28  and  S_30
REMARK    9  A    between atoms: S_30  and  N_33
REMARK   10  A    between atoms: N_33  and  C_34
REMARK   11  A    between atoms: C_34  and  C_35
REMARK   12  A    between atoms: C_34  and  C_36
REMARK   13  A    between atoms: C_34  and  C_37
REMARK                            x       y       z     vdW  Elec       q    Type
REMARK                         _______ _______ _______ _____ _____    ______ ____
ROOT
ATOM      1  C   UNL     1      -7.836   4.346 127.613  0.00  0.00    +0.000 C 
ATOM      2  C   UNL     1      -7.590   2.877 127.571  0.00  0.00    +0.000 A 
ATOM      3  C   UNL     1      -7.797   2.214 126.380  0.00  0.00    +0.000 A 
ATOM      4  N   UNL     1      -7.579   0.905 126.197  0.00  0.00    +0.000 NA
ATOM      5  C   UNL     1      -7.134   0.234 127.263  0.00  0.00    +0.000 A 
ATOM      6  N   UNL     1      -6.776  -1.093 127.058  0.00  0.00    +0.000 N 
ATOM      7  N   UNL     1      -6.950   0.784 128.479  0.00  0.00    +0.000 NA
ATOM      8  C   UNL     1      -7.176   2.095 128.642  0.00  0.00    +0.000 A 
ATOM      9  N   UNL     1      -6.924   2.589 129.930  0.00  0.00    +0.000 N 
ATOM     10  H   UNL     1      -6.994  -1.425 126.132  0.00  0.00    +0.000 HD
ATOM     11  H   UNL     1      -6.548   1.889 130.560  0.00  0.00    +0.000 HD
ENDROOT
BRANCH   6  12
ATOM     12  C   UNL     1      -6.468  -2.030 128.041  0.00  0.00    +0.000 A 
ATOM     13  C   UNL     1      -5.136  -2.312 128.348  0.00  0.00    +0.000 A 
ATOM     14  C   UNL     1      -4.818  -3.249 129.335  0.00  0.00    +0.000 A 
ATOM     15  C   UNL     1      -5.828  -3.883 130.058  0.00  0.00    +0.000 A 
ATOM     16  C   UNL     1      -7.163  -3.603 129.750  0.00  0.00    +0.000 A 
ATOM     17  C   UNL     1      -7.476  -2.692 128.744  0.00  0.00    +0.000 A 
BRANCH  15  18
ATOM     18  O   UNL     1      -5.396  -4.742 131.040  0.00  0.00    +0.000 OA
BRANCH  18  19
ATOM     19  C   UNL     1      -4.851  -4.078 132.178  0.00  0.00    +0.000 C 
BRANCH  19  20
ATOM     20  C   UNL     1      -5.923  -3.352 133.004  0.00  0.00    +0.000 C 
BRANCH  20  21
ATOM     21  N   UNL     1      -5.493  -1.998 133.445  0.00  0.00    +0.000 NA
ATOM     22  C   UNL     1      -6.587  -1.009 133.407  0.00  0.00    +0.000 C 
ATOM     23  C   UNL     1      -6.656  -0.615 131.949  0.00  0.00    +0.000 C 
ATOM     24  C   UNL     1      -5.187  -0.426 131.634  0.00  0.00    +0.000 C 
ATOM     25  C   UNL     1      -4.470  -1.450 132.521  0.00  0.00    +0.000 C 
ENDBRANCH  20  21
ENDBRANCH  19  20
ENDBRANCH  18  19
ENDBRANCH  15  18
ENDBRANCH   6  12
BRANCH   9  26
ATOM     26  C   UNL     1      -7.209   3.848 130.468  0.00  0.00    +0.000 A 
ATOM     27  C   UNL     1      -6.226   4.845 130.520  0.00  0.00    +0.000 A 
ATOM     28  C   UNL     1      -6.562   6.157 130.863  0.00  0.00    +0.000 A 
ATOM     29  C   UNL     1      -7.896   6.495 131.050  0.00  0.00    +0.000 A 
ATOM     30  C   UNL     1      -8.868   5.491 131.023  0.00  0.00    +0.000 A 
ATOM     31  C   UNL     1      -8.521   4.162 130.828  0.00  0.00    +0.000 A 
BRANCH  30  32
ATOM     32  S   UNL     1     -10.534   6.004 131.216  0.00  0.00    +0.000 S 
ATOM     33  O   UNL     1     -11.291   4.861 130.779  0.00  0.00    +0.000 OA
ATOM     34  O   UNL     1     -10.634   6.538 132.563  0.00  0.00    +0.000 OA
BRANCH  32  35
ATOM     35  N   UNL     1     -10.832   7.293 130.113  0.00  0.00    +0.000 NA
ATOM     36  H   UNL     1     -10.386   7.094 129.216  0.00  0.00    +0.000 HD
BRANCH  35  37
ATOM     37  C   UNL     1     -12.289   7.660 129.902  0.00  0.00    +0.000 C 
ATOM     38  C   UNL     1     -13.027   7.602 131.243  0.00  0.00    +0.000 C 
ATOM     39  C   UNL     1     -12.421   9.039 129.253  0.00  0.00    +0.000 C 
ATOM     40  C   UNL     1     -12.958   6.635 128.964  0.00  0.00    +0.000 C 
ENDBRANCH  35  37
ENDBRANCH  32  35
ENDBRANCH  30  32
ENDBRANCH   9  26
TORSDOF 9
ENDMDL
MODEL 8
REMARK VINA RESULT:      -8.3      7.018     11.664
REMARK  Name = Fedratinib
REMARK  13 active torsions:
REMARK  status: ('A' for Active; 'I' for Inactive)
REMARK    1  A    between atoms: C_1  and  C_2
REMARK    2  A    between atoms: N_6  and  C_7
REMARK    3  A    between atoms: C_10  and  O_11
REMARK    4  A    between atoms: O_11  and  C_12
REMARK    5  A    between atoms: C_12  and  C_13
REMARK    6  A    between atoms: C_13  and  N_14
REMARK    7  A    between atoms: N_23  and  C_24
REMARK    8  A    between atoms: C_28  and  S_30
REMARK    9  A    between atoms: S_30  and  N_33
REMARK   10  A    between atoms: N_33  and  C_34
REMARK   11  A    between atoms: C_34  and  C_35
REMARK   12  A    between atoms: C_34  and  C_36
REMARK   13  A    between atoms: C_34  and  C_37
REMARK                            x       y       z     vdW  Elec       q    Type
REMARK                         _______ _______ _______ _____ _____    ______ ____
ROOT
ATOM      1  C   UNL     1      -5.773   3.987 130.594  0.00  0.00    +0.000 C 
ATOM      2  C   UNL     1      -4.790   5.003 131.061  0.00  0.00    +0.000 A 
ATOM      3  C   UNL     1      -3.477   4.874 130.661  0.00  0.00    +0.000 A 
ATOM      4  N   UNL     1      -2.502   5.736 130.979  0.00  0.00    +0.000 NA
ATOM      5  C   UNL     1      -2.866   6.774 131.736  0.00  0.00    +0.000 A 
ATOM      6  N   UNL     1      -1.901   7.747 131.964  0.00  0.00    +0.000 N 
ATOM      7  N   UNL     1      -4.112   6.959 132.215  0.00  0.00    +0.000 NA
ATOM      8  C   UNL     1      -5.073   6.083 131.888  0.00  0.00    +0.000 A 
ATOM      9  N   UNL     1      -6.346   6.373 132.401  0.00  0.00    +0.000 N 
ATOM     10  H   UNL     1      -0.992   7.498 131.607  0.00  0.00    +0.000 HD
ATOM     11  H   UNL     1      -6.380   7.247 132.915  0.00  0.00    +0.000 HD
ENDROOT
BRANCH   6  12
ATOM     12  C   UNL     1      -1.989   8.809 132.861  0.00  0.00    +0.000 A 
ATOM     13  C   UNL     1      -1.770   8.598 134.223  0.00  0.00    +0.000 A 
ATOM     14  C   UNL     1      -1.853   9.658 135.129  0.00  0.00    +0.000 A 
ATOM     15  C   UNL     1      -2.113  10.952 134.678  0.00  0.00    +0.000 A 
ATOM     16  C   UNL     1      -2.336  11.165 133.315  0.00  0.00    +0.000 A 
ATOM     17  C   UNL     1      -2.283  10.101 132.419  0.00  0.00    +0.000 A 
BRANCH  15  18
ATOM     18  O   UNL     1      -2.117  11.923 135.652  0.00  0.00    +0.000 OA
BRANCH  18  19
ATOM     19  C   UNL     1      -0.812  12.313 136.071  0.00  0.00    +0.000 C 
BRANCH  19  20
ATOM     20  C   UNL     1      -0.137  13.270 135.078  0.00  0.00    +0.000 C 
BRANCH  20  21
ATOM     21  N   UNL     1       1.251  12.859 134.733  0.00  0.00    +0.000 NA
ATOM     22  C   UNL     1       1.697  13.387 133.430  0.00  0.00    +0.000 C 
ATOM     23  C   UNL     1       1.067  12.442 132.432  0.00  0.00    +0.000 C 
ATOM     24  C   UNL     1       1.372  11.105 133.074  0.00  0.00    +0.000 C 
ATOM     25  C   UNL     1       1.335  11.386 134.580  0.00  0.00    +0.000 C 
ENDBRANCH  20  21
ENDBRANCH  19  20
ENDBRANCH  18  19
ENDBRANCH  15  18
ENDBRANCH   6  12
BRANCH   9  26
ATOM     26  C   UNL     1      -7.505   5.593 132.387  0.00  0.00    +0.000 A 
ATOM     27  C   UNL     1      -7.707   4.590 133.344  0.00  0.00    +0.000 A 
ATOM     28  C   UNL     1      -8.945   3.954 133.457  0.00  0.00    +0.000 A 
ATOM     29  C   UNL     1     -10.013   4.394 132.686  0.00  0.00    +0.000 A 
ATOM     30  C   UNL     1      -9.799   5.377 131.715  0.00  0.00    +0.000 A 
ATOM     31  C   UNL     1      -8.536   5.907 131.498  0.00  0.00    +0.000 A 
BRANCH  30  32
ATOM     32  S   UNL     1     -11.207   5.916 130.818  0.00  0.00    +0.000 S 
ATOM     33  O   UNL     1     -11.471   4.823 129.919  0.00  0.00    +0.000 OA
ATOM     34  O   UNL     1     -12.168   6.359 131.811  0.00  0.00    +0.000 OA
BRANCH  32  35
ATOM     35  N   UNL     1     -10.753   7.283 129.874  0.00  0.00    +0.000 NA
ATOM     36  H   UNL     1      -9.886   7.088 129.371  0.00  0.00    +0.000 HD
BRANCH  35  37
ATOM     37  C   UNL     1     -11.808   7.804 128.915  0.00  0.00    +0.000 C 
ATOM     38  C   UNL     1     -12.553   8.973 129.565  0.00  0.00    +0.000 C 
ATOM     39  C   UNL     1     -11.182   8.215 127.581  0.00  0.00    +0.000 C 
ATOM     40  C   UNL     1     -12.845   6.700 128.625  0.00  0.00    +0.000 C 
ENDBRANCH  35  37
ENDBRANCH  32  35
ENDBRANCH  30  32
ENDBRANCH   9  26
TORSDOF 9
ENDMDL
MODEL 9
REMARK VINA RESULT:      -8.0      4.183      9.192
REMARK  Name = Fedratinib
REMARK  13 active torsions:
REMARK  status: ('A' for Active; 'I' for Inactive)
REMARK    1  A    between atoms: C_1  and  C_2
REMARK    2  A    between atoms: N_6  and  C_7
REMARK    3  A    between atoms: C_10  and  O_11
REMARK    4  A    between atoms: O_11  and  C_12
REMARK    5  A    between atoms: C_12  and  C_13
REMARK    6  A    between atoms: C_13  and  N_14
REMARK    7  A    between atoms: N_23  and  C_24
REMARK    8  A    between atoms: C_28  and  S_30
REMARK    9  A    between atoms: S_30  and  N_33
REMARK   10  A    between atoms: N_33  and  C_34
REMARK   11  A    between atoms: C_34  and  C_35
REMARK   12  A    between atoms: C_34  and  C_36
REMARK   13  A    between atoms: C_34  and  C_37
REMARK                            x       y       z     vdW  Elec       q    Type
REMARK                         _______ _______ _______ _____ _____    ______ ____
ROOT
ATOM      1  C   UNL     1      -9.207  -0.209 131.768  0.00  0.00    +0.000 C 
ATOM      2  C   UNL     1      -8.753   1.203 131.905  0.00  0.00    +0.000 A 
ATOM      3  C   UNL     1      -9.624   2.119 132.457  0.00  0.00    +0.000 A 
ATOM      4  N   UNL     1      -9.330   3.407 132.669  0.00  0.00    +0.000 NA
ATOM      5  C   UNL     1      -8.103   3.792 132.307  0.00  0.00    +0.000 A 
ATOM      6  N   UNL     1      -7.734   5.090 132.642  0.00  0.00    +0.000 N 
ATOM      7  N   UNL     1      -7.201   2.984 131.717  0.00  0.00    +0.000 NA
ATOM      8  C   UNL     1      -7.516   1.698 131.510  0.00  0.00    +0.000 A 
ATOM      9  N   UNL     1      -6.505   0.922 130.923  0.00  0.00    +0.000 N 
ATOM     10  H   UNL     1      -8.488   5.629 133.036  0.00  0.00    +0.000 HD
ATOM     11  H   UNL     1      -5.641   1.433 130.781  0.00  0.00    +0.000 HD
ENDROOT
BRANCH   6  12
ATOM     12  C   UNL     1      -6.594   5.765 132.212  0.00  0.00    +0.000 A 
ATOM     13  C   UNL     1      -5.369   5.547 132.845  0.00  0.00    +0.000 A 
ATOM     14  C   UNL     1      -4.220   6.218 132.419  0.00  0.00    +0.000 A 
ATOM     15  C   UNL     1      -4.272   7.080 131.324  0.00  0.00    +0.000 A 
ATOM     16  C   UNL     1      -5.498   7.301 130.690  0.00  0.00    +0.000 A 
ATOM     17  C   UNL     1      -6.648   6.655 131.137  0.00  0.00    +0.000 A 
BRANCH  15  18
ATOM     18  O   UNL     1      -3.070   7.640 130.960  0.00  0.00    +0.000 OA
BRANCH  18  19
ATOM     19  C   UNL     1      -2.233   6.757 130.218  0.00  0.00    +0.000 C 
BRANCH  19  20
ATOM     20  C   UNL     1      -2.644   6.659 128.742  0.00  0.00    +0.000 C 
BRANCH  20  21
ATOM     21  N   UNL     1      -2.645   5.261 128.234  0.00  0.00    +0.000 NA
ATOM     22  C   UNL     1      -3.734   5.001 127.275  0.00  0.00    +0.000 C 
ATOM     23  C   UNL     1      -4.940   4.781 128.160  0.00  0.00    +0.000 C 
ATOM     24  C   UNL     1      -4.356   3.862 129.213  0.00  0.00    +0.000 C 
ATOM     25  C   UNL     1      -2.895   4.306 129.342  0.00  0.00    +0.000 C 
ENDBRANCH  20  21
ENDBRANCH  19  20
ENDBRANCH  18  19
ENDBRANCH  15  18
ENDBRANCH   6  12
BRANCH   9  26
ATOM     26  C   UNL     1      -6.565  -0.386 130.433  0.00  0.00    +0.000 A 
ATOM     27  C   UNL     1      -6.548  -1.481 131.307  0.00  0.00    +0.000 A 
ATOM     28  C   UNL     1      -6.813  -2.769 130.837  0.00  0.00    +0.000 A 
ATOM     29  C   UNL     1      -7.200  -2.949 129.516  0.00  0.00    +0.000 A 
ATOM     30  C   UNL     1      -7.189  -1.857 128.643  0.00  0.00    +0.000 A 
ATOM     31  C   UNL     1      -6.784  -0.602 129.070  0.00  0.00    +0.000 A 
BRANCH  30  32
ATOM     32  S   UNL     1      -7.740  -2.155 127.004  0.00  0.00    +0.000 S 
ATOM     33  O   UNL     1      -8.534  -3.349 127.129  0.00  0.00    +0.000 OA
ATOM     34  O   UNL     1      -8.289  -0.897 126.532  0.00  0.00    +0.000 OA
BRANCH  32  35
ATOM     35  N   UNL     1      -6.366  -2.529 126.035  0.00  0.00    +0.000 NA
ATOM     36  H   UNL     1      -5.924  -3.386 126.371  0.00  0.00    +0.000 HD
BRANCH  35  37
ATOM     37  C   UNL     1      -6.616  -2.622 124.541  0.00  0.00    +0.000 C 
ATOM     38  C   UNL     1      -6.761  -1.211 123.961  0.00  0.00    +0.000 C 
ATOM     39  C   UNL     1      -5.498  -3.398 123.843  0.00  0.00    +0.000 C 
ATOM     40  C   UNL     1      -7.939  -3.367 124.275  0.00  0.00    +0.000 C 
ENDBRANCH  35  37
ENDBRANCH  32  35
ENDBRANCH  30  32
ENDBRANCH   9  26
TORSDOF 9
ENDMDL
