MODEL 1
REMARK VINA RESULT:      -6.1      0.000      0.000
REMARK  Name = Felbamate
REMARK  7 active torsions:
REMARK  status: ('A' for Active; 'I' for Inactive)
REMARK    1  A    between atoms: C_2  and  O_4
REMARK    2  A    between atoms: O_4  and  C_5
REMARK    3  A    between atoms: C_5  and  C_6
REMARK    4  A    between atoms: C_6  and  C_7
REMARK    5  A    between atoms: C_6  and  C_12
REMARK    6  A    between atoms: C_7  and  O_8
REMARK    7  A    between atoms: O_8  and  C_9
REMARK                            x       y       z     vdW  Elec       q    Type
REMARK                         _______ _______ _______ _____ _____    ______ ____
ROOT
ATOM      1  C   UNL     1      -7.221   2.808 122.583  0.00  0.00    +0.000 C 
ENDROOT
BRANCH   1   2
ATOM      2  C   UNL     1      -6.728   3.692 121.430  0.00  0.00    +0.000 A 
ATOM      3  C   UNL     1      -7.524   3.917 120.289  0.00  0.00    +0.000 A 
ATOM      4  C   UNL     1      -7.027   4.626 119.192  0.00  0.00    +0.000 A 
ATOM      5  C   UNL     1      -5.755   5.186 119.239  0.00  0.00    +0.000 A 
ATOM      6  C   UNL     1      -4.962   5.000 120.363  0.00  0.00    +0.000 A 
ATOM      7  C   UNL     1      -5.441   4.257 121.439  0.00  0.00    +0.000 A 
ENDBRANCH   1   2
BRANCH   1   8
ATOM      8  C   UNL     1      -6.694   3.267 123.970  0.00  0.00    +0.000 C 
BRANCH   8   9
ATOM      9  O   UNL     1      -7.743   3.545 124.908  0.00  0.00    +0.000 OA
BRANCH   9  11
ATOM     10  N   UNL     1      -6.602   5.452 125.048  0.00  0.00    +0.000 N 
ATOM     11  C   UNL     1      -7.753   4.819 125.362  0.00  0.00    +0.000 C 
ATOM     12  O   UNL     1      -8.666   5.358 125.974  0.00  0.00    +0.000 OA
ATOM     13  H   UNL     1      -6.475   6.408 125.344  0.00  0.00    +0.000 HD
ATOM     14  H   UNL     1      -5.853   4.957 124.584  0.00  0.00    +0.000 HD
ENDBRANCH   9  11
ENDBRANCH   8   9
ENDBRANCH   1   8
BRANCH   1  15
ATOM     15  C   UNL     1      -8.759   2.725 122.582  0.00  0.00    +0.000 C 
BRANCH  15  16
ATOM     16  O   UNL     1      -9.204   1.416 122.966  0.00  0.00    +0.000 OA
BRANCH  16  17
ATOM     17  C   UNL     1     -10.060   1.217 123.994  0.00  0.00    +0.000 C 
ATOM     18  N   UNL     1      -9.520   1.121 125.237  0.00  0.00    +0.000 N 
ATOM     19  O   UNL     1     -11.270   1.138 123.823  0.00  0.00    +0.000 OA
ATOM     20  H   UNL     1      -8.539   1.177 125.448  0.00  0.00    +0.000 HD
ATOM     21  H   UNL     1     -10.169   0.992 126.001  0.00  0.00    +0.000 HD
ENDBRANCH  16  17
ENDBRANCH  15  16
ENDBRANCH   1  15
TORSDOF 7
ENDMDL
MODEL 2
REMARK VINA RESULT:      -6.0      1.535      4.180
REMARK  Name = Felbamate
REMARK  7 active torsions:
REMARK  status: ('A' for Active; 'I' for Inactive)
REMARK    1  A    between atoms: C_2  and  O_4
REMARK    2  A    between atoms: O_4  and  C_5
REMARK    3  A    between atoms: C_5  and  C_6
REMARK    4  A    between atoms: C_6  and  C_7
REMARK    5  A    between atoms: C_6  and  C_12
REMARK    6  A    between atoms: C_7  and  O_8
REMARK    7  A    between atoms: O_8  and  C_9
REMARK                            x       y       z     vdW  Elec       q    Type
REMARK                         _______ _______ _______ _____ _____    ______ ____
ROOT
ATOM      1  C   UNL     1      -8.959   2.695 123.085  0.00  0.00    +0.000 C 
ENDROOT
BRANCH   1   2
ATOM      2  C   UNL     1      -8.145   3.212 121.890  0.00  0.00    +0.000 A 
ATOM      3  C   UNL     1      -6.740   3.303 121.948  0.00  0.00    +0.000 A 
ATOM      4  C   UNL     1      -6.013   3.882 120.903  0.00  0.00    +0.000 A 
ATOM      5  C   UNL     1      -6.664   4.313 119.753  0.00  0.00    +0.000 A 
ATOM      6  C   UNL     1      -8.045   4.209 119.663  0.00  0.00    +0.000 A 
ATOM      7  C   UNL     1      -8.774   3.672 120.721  0.00  0.00    +0.000 A 
ENDBRANCH   1   2
BRANCH   1   8
ATOM      8  C   UNL     1      -9.525   1.266 122.862  0.00  0.00    +0.000 C 
BRANCH   8   9
ATOM      9  O   UNL     1      -9.270   0.381 123.962  0.00  0.00    +0.000 OA
BRANCH   9  11
ATOM     10  N   UNL     1      -7.664  -1.161 123.913  0.00  0.00    +0.000 N 
ATOM     11  C   UNL     1      -8.944  -0.879 123.590  0.00  0.00    +0.000 C 
ATOM     12  O   UNL     1      -9.686  -1.681 123.038  0.00  0.00    +0.000 OA
ATOM     13  H   UNL     1      -7.290  -2.067 123.675  0.00  0.00    +0.000 HD
ATOM     14  H   UNL     1      -7.070  -0.456 124.325  0.00  0.00    +0.000 HD
ENDBRANCH   9  11
ENDBRANCH   8   9
ENDBRANCH   1   8
BRANCH   1  15
ATOM     15  C   UNL     1      -8.122   2.757 124.377  0.00  0.00    +0.000 C 
BRANCH  15  16
ATOM     16  O   UNL     1      -8.737   3.618 125.346  0.00  0.00    +0.000 OA
BRANCH  16  17
ATOM     17  C   UNL     1      -8.180   4.790 125.727  0.00  0.00    +0.000 C 
ATOM     18  N   UNL     1      -7.072   5.194 125.054  0.00  0.00    +0.000 N 
ATOM     19  O   UNL     1      -8.653   5.469 126.630  0.00  0.00    +0.000 OA
ATOM     20  H   UNL     1      -6.632   4.688 124.305  0.00  0.00    +0.000 HD
ATOM     21  H   UNL     1      -6.674   6.080 125.333  0.00  0.00    +0.000 HD
ENDBRANCH  16  17
ENDBRANCH  15  16
ENDBRANCH   1  15
TORSDOF 7
ENDMDL
MODEL 3
REMARK VINA RESULT:      -5.9      1.700      2.078
REMARK  Name = Felbamate
REMARK  7 active torsions:
REMARK  status: ('A' for Active; 'I' for Inactive)
REMARK    1  A    between atoms: C_2  and  O_4
REMARK    2  A    between atoms: O_4  and  C_5
REMARK    3  A    between atoms: C_5  and  C_6
REMARK    4  A    between atoms: C_6  and  C_7
REMARK    5  A    between atoms: C_6  and  C_12
REMARK    6  A    between atoms: C_7  and  O_8
REMARK    7  A    between atoms: O_8  and  C_9
REMARK                            x       y       z     vdW  Elec       q    Type
REMARK                         _______ _______ _______ _____ _____    ______ ____
ROOT
ATOM      1  C   UNL     1      -7.311   2.885 122.147  0.00  0.00    +0.000 C 
ENDROOT
BRANCH   1   2
ATOM      2  C   UNL     1      -6.701   3.758 121.042  0.00  0.00    +0.000 A 
ATOM      3  C   UNL     1      -5.431   4.349 121.195  0.00  0.00    +0.000 A 
ATOM      4  C   UNL     1      -4.929   5.235 120.237  0.00  0.00    +0.000 A 
ATOM      5  C   UNL     1      -5.649   5.491 119.075  0.00  0.00    +0.000 A 
ATOM      6  C   UNL     1      -6.891   4.900 118.890  0.00  0.00    +0.000 A 
ATOM      7  C   UNL     1      -7.410   4.050 119.865  0.00  0.00    +0.000 A 
ENDBRANCH   1   2
BRANCH   1   8
ATOM      8  C   UNL     1      -6.807   3.263 123.567  0.00  0.00    +0.000 C 
BRANCH   8   9
ATOM      9  O   UNL     1      -6.494   2.120 124.376  0.00  0.00    +0.000 OA
BRANCH   9  11
ATOM     10  N   UNL     1      -8.100   2.678 125.814  0.00  0.00    +0.000 N 
ATOM     11  C   UNL     1      -6.823   2.263 125.681  0.00  0.00    +0.000 C 
ATOM     12  O   UNL     1      -6.087   2.049 126.636  0.00  0.00    +0.000 OA
ATOM     13  H   UNL     1      -8.467   2.839 126.740  0.00  0.00    +0.000 HD
ATOM     14  H   UNL     1      -8.660   2.889 124.999  0.00  0.00    +0.000 HD
ENDBRANCH   9  11
ENDBRANCH   8   9
ENDBRANCH   1   8
BRANCH   1  15
ATOM     15  C   UNL     1      -8.848   2.926 122.083  0.00  0.00    +0.000 C 
BRANCH  15  16
ATOM     16  O   UNL     1      -9.429   2.169 123.155  0.00  0.00    +0.000 OA
BRANCH  16  17
ATOM     17  C   UNL     1      -9.707   0.850 123.039  0.00  0.00    +0.000 C 
ATOM     18  N   UNL     1      -8.811  -0.018 123.577  0.00  0.00    +0.000 N 
ATOM     19  O   UNL     1     -10.723   0.448 122.487  0.00  0.00    +0.000 OA
ATOM     20  H   UNL     1      -7.959   0.242 124.042  0.00  0.00    +0.000 HD
ATOM     21  H   UNL     1      -9.036  -1.000 123.502  0.00  0.00    +0.000 HD
ENDBRANCH  16  17
ENDBRANCH  15  16
ENDBRANCH   1  15
TORSDOF 7
ENDMDL
MODEL 4
REMARK VINA RESULT:      -5.9      8.115      9.746
REMARK  Name = Felbamate
REMARK  7 active torsions:
REMARK  status: ('A' for Active; 'I' for Inactive)
REMARK    1  A    between atoms: C_2  and  O_4
REMARK    2  A    between atoms: O_4  and  C_5
REMARK    3  A    between atoms: C_5  and  C_6
REMARK    4  A    between atoms: C_6  and  C_7
REMARK    5  A    between atoms: C_6  and  C_12
REMARK    6  A    between atoms: C_7  and  O_8
REMARK    7  A    between atoms: O_8  and  C_9
REMARK                            x       y       z     vdW  Elec       q    Type
REMARK                         _______ _______ _______ _____ _____    ______ ____
ROOT
ATOM      1  C   UNL     1     -11.496   5.865 130.589  0.00  0.00    +0.000 C 
ENDROOT
BRANCH   1   2
ATOM      2  C   UNL     1     -12.270   6.923 129.791  0.00  0.00    +0.000 A 
ATOM      3  C   UNL     1     -13.044   6.569 128.668  0.00  0.00    +0.000 A 
ATOM      4  C   UNL     1     -13.653   7.547 127.876  0.00  0.00    +0.000 A 
ATOM      5  C   UNL     1     -13.564   8.889 128.230  0.00  0.00    +0.000 A 
ATOM      6  C   UNL     1     -12.830   9.259 129.347  0.00  0.00    +0.000 A 
ATOM      7  C   UNL     1     -12.186   8.288 130.112  0.00  0.00    +0.000 A 
ENDBRANCH   1   2
BRANCH   1   8
ATOM      8  C   UNL     1     -10.204   5.387 129.871  0.00  0.00    +0.000 C 
BRANCH   8   9
ATOM      9  O   UNL     1     -10.219   3.987 129.557  0.00  0.00    +0.000 OA
BRANCH   9  11
ATOM     10  N   UNL     1      -8.285   3.231 130.360  0.00  0.00    +0.000 N 
ATOM     11  C   UNL     1      -9.628   3.207 130.490  0.00  0.00    +0.000 C 
ATOM     12  O   UNL     1     -10.204   2.556 131.353  0.00  0.00    +0.000 OA
ATOM     13  H   UNL     1      -7.724   2.676 130.988  0.00  0.00    +0.000 HD
ATOM     14  H   UNL     1      -7.851   3.743 129.605  0.00  0.00    +0.000 HD
ENDBRANCH   9  11
ENDBRANCH   8   9
ENDBRANCH   1   8
BRANCH   1  15
ATOM     15  C   UNL     1     -11.177   6.380 132.005  0.00  0.00    +0.000 C 
BRANCH  15  16
ATOM     16  O   UNL     1      -9.761   6.434 132.226  0.00  0.00    +0.000 OA
BRANCH  16  17
ATOM     17  C   UNL     1      -9.149   5.683 133.170  0.00  0.00    +0.000 C 
ATOM     18  N   UNL     1      -9.833   4.609 133.643  0.00  0.00    +0.000 N 
ATOM     19  O   UNL     1      -8.024   5.944 133.577  0.00  0.00    +0.000 OA
ATOM     20  H   UNL     1     -10.757   4.338 133.355  0.00  0.00    +0.000 HD
ATOM     21  H   UNL     1      -9.361   4.043 134.334  0.00  0.00    +0.000 HD
ENDBRANCH  16  17
ENDBRANCH  15  16
ENDBRANCH   1  15
TORSDOF 7
ENDMDL
MODEL 5
REMARK VINA RESULT:      -5.8      4.692      7.776
REMARK  Name = Felbamate
REMARK  7 active torsions:
REMARK  status: ('A' for Active; 'I' for Inactive)
REMARK    1  A    between atoms: C_2  and  O_4
REMARK    2  A    between atoms: O_4  and  C_5
REMARK    3  A    between atoms: C_5  and  C_6
REMARK    4  A    between atoms: C_6  and  C_7
REMARK    5  A    between atoms: C_6  and  C_12
REMARK    6  A    between atoms: C_7  and  O_8
REMARK    7  A    between atoms: O_8  and  C_9
REMARK                            x       y       z     vdW  Elec       q    Type
REMARK                         _______ _______ _______ _____ _____    ______ ____
ROOT
ATOM      1  C   UNL     1      -8.985  -1.774 125.078  0.00  0.00    +0.000 C 
ENDROOT
BRANCH   1   2
ATOM      2  C   UNL     1      -8.636  -2.317 126.471  0.00  0.00    +0.000 A 
ATOM      3  C   UNL     1      -9.113  -3.570 126.907  0.00  0.00    +0.000 A 
ATOM      4  C   UNL     1      -8.891  -4.009 128.215  0.00  0.00    +0.000 A 
ATOM      5  C   UNL     1      -8.128  -3.243 129.090  0.00  0.00    +0.000 A 
ATOM      6  C   UNL     1      -7.626  -2.018 128.675  0.00  0.00    +0.000 A 
ATOM      7  C   UNL     1      -7.884  -1.560 127.385  0.00  0.00    +0.000 A 
ENDBRANCH   1   2
BRANCH   1   8
ATOM      8  C   UNL     1      -8.571  -0.290 124.883  0.00  0.00    +0.000 C 
BRANCH   8   9
ATOM      9  O   UNL     1      -8.686   0.153 123.524  0.00  0.00    +0.000 OA
BRANCH   9  11
ATOM     10  N   UNL     1     -10.047   1.869 123.924  0.00  0.00    +0.000 N 
ATOM     11  C   UNL     1      -9.877   0.724 123.229  0.00  0.00    +0.000 C 
ATOM     12  O   UNL     1     -10.708   0.290 122.443  0.00  0.00    +0.000 OA
ATOM     13  H   UNL     1     -10.905   2.387 123.807  0.00  0.00    +0.000 HD
ATOM     14  H   UNL     1      -9.358   2.169 124.599  0.00  0.00    +0.000 HD
ENDBRANCH   9  11
ENDBRANCH   8   9
ENDBRANCH   1   8
BRANCH   1  15
ATOM     15  C   UNL     1      -8.370  -2.663 123.981  0.00  0.00    +0.000 C 
BRANCH  15  16
ATOM     16  O   UNL     1      -6.986  -2.929 124.250  0.00  0.00    +0.000 OA
BRANCH  16  17
ATOM     17  C   UNL     1      -5.999  -2.528 123.417  0.00  0.00    +0.000 C 
ATOM     18  N   UNL     1      -6.337  -1.651 122.437  0.00  0.00    +0.000 N 
ATOM     19  O   UNL     1      -4.846  -2.924 123.540  0.00  0.00    +0.000 OA
ATOM     20  H   UNL     1      -7.261  -1.287 122.279  0.00  0.00    +0.000 HD
ATOM     21  H   UNL     1      -5.590  -1.343 121.831  0.00  0.00    +0.000 HD
ENDBRANCH  16  17
ENDBRANCH  15  16
ENDBRANCH   1  15
TORSDOF 7
ENDMDL
MODEL 6
REMARK VINA RESULT:      -5.8      7.966      9.477
REMARK  Name = Felbamate
REMARK  7 active torsions:
REMARK  status: ('A' for Active; 'I' for Inactive)
REMARK    1  A    between atoms: C_2  and  O_4
REMARK    2  A    between atoms: O_4  and  C_5
REMARK    3  A    between atoms: C_5  and  C_6
REMARK    4  A    between atoms: C_6  and  C_7
REMARK    5  A    between atoms: C_6  and  C_12
REMARK    6  A    between atoms: C_7  and  O_8
REMARK    7  A    between atoms: O_8  and  C_9
REMARK                            x       y       z     vdW  Elec       q    Type
REMARK                         _______ _______ _______ _____ _____    ______ ____
ROOT
ATOM      1  C   UNL     1      -9.278   6.577 131.186  0.00  0.00    +0.000 C 
ENDROOT
BRANCH   1   2
ATOM      2  C   UNL     1     -10.389   7.166 130.307  0.00  0.00    +0.000 A 
ATOM      3  C   UNL     1     -10.088   7.866 129.121  0.00  0.00    +0.000 A 
ATOM      4  C   UNL     1     -11.093   8.500 128.384  0.00  0.00    +0.000 A 
ATOM      5  C   UNL     1     -12.423   8.388 128.774  0.00  0.00    +0.000 A 
ATOM      6  C   UNL     1     -12.746   7.682 129.924  0.00  0.00    +0.000 A 
ATOM      7  C   UNL     1     -11.740   7.086 130.682  0.00  0.00    +0.000 A 
ENDBRANCH   1   2
BRANCH   1   8
ATOM      8  C   UNL     1      -9.789   6.099 132.573  0.00  0.00    +0.000 C 
BRANCH   8   9
ATOM      9  O   UNL     1      -8.767   6.098 133.580  0.00  0.00    +0.000 OA
BRANCH   9  11
ATOM     10  N   UNL     1      -9.638   4.091 133.993  0.00  0.00    +0.000 N 
ATOM     11  C   UNL     1      -8.563   4.890 134.156  0.00  0.00    +0.000 C 
ATOM     12  O   UNL     1      -7.552   4.537 134.748  0.00  0.00    +0.000 OA
ATOM     13  H   UNL     1      -9.621   3.164 134.391  0.00  0.00    +0.000 HD
ATOM     14  H   UNL     1     -10.473   4.436 133.540  0.00  0.00    +0.000 HD
ENDBRANCH   9  11
ENDBRANCH   8   9
ENDBRANCH   1   8
BRANCH   1  15
ATOM     15  C   UNL     1      -8.550   5.438 130.448  0.00  0.00    +0.000 C 
BRANCH  15  16
ATOM     16  O   UNL     1      -9.016   4.156 130.893  0.00  0.00    +0.000 OA
BRANCH  16  17
ATOM     17  C   UNL     1      -9.886   3.414 130.171  0.00  0.00    +0.000 C 
ATOM     18  N   UNL     1     -11.187   3.437 130.560  0.00  0.00    +0.000 N 
ATOM     19  O   UNL     1      -9.528   2.756 129.202  0.00  0.00    +0.000 OA
ATOM     20  H   UNL     1     -11.549   3.952 131.343  0.00  0.00    +0.000 HD
ATOM     21  H   UNL     1     -11.833   2.894 130.003  0.00  0.00    +0.000 HD
ENDBRANCH  16  17
ENDBRANCH  15  16
ENDBRANCH   1  15
TORSDOF 7
ENDMDL
MODEL 7
REMARK VINA RESULT:      -5.7      4.192      7.017
REMARK  Name = Felbamate
REMARK  7 active torsions:
REMARK  status: ('A' for Active; 'I' for Inactive)
REMARK    1  A    between atoms: C_2  and  O_4
REMARK    2  A    between atoms: O_4  and  C_5
REMARK    3  A    between atoms: C_5  and  C_6
REMARK    4  A    between atoms: C_6  and  C_7
REMARK    5  A    between atoms: C_6  and  C_12
REMARK    6  A    between atoms: C_7  and  O_8
REMARK    7  A    between atoms: O_8  and  C_9
REMARK                            x       y       z     vdW  Elec       q    Type
REMARK                         _______ _______ _______ _____ _____    ______ ____
ROOT
ATOM      1  C   UNL     1      -8.460  -0.724 125.663  0.00  0.00    +0.000 C 
ENDROOT
BRANCH   1   2
ATOM      2  C   UNL     1      -8.313  -1.689 126.848  0.00  0.00    +0.000 A 
ATOM      3  C   UNL     1      -8.823  -3.001 126.788  0.00  0.00    +0.000 A 
ATOM      4  C   UNL     1      -8.791  -3.838 127.908  0.00  0.00    +0.000 A 
ATOM      5  C   UNL     1      -8.185  -3.409 129.084  0.00  0.00    +0.000 A 
ATOM      6  C   UNL     1      -7.653  -2.130 129.158  0.00  0.00    +0.000 A 
ATOM      7  C   UNL     1      -7.723  -1.281 128.055  0.00  0.00    +0.000 A 
ENDBRANCH   1   2
BRANCH   1   8
ATOM      8  C   UNL     1      -8.456   0.769 126.090  0.00  0.00    +0.000 C 
BRANCH   8   9
ATOM      9  O   UNL     1      -9.526   1.525 125.506  0.00  0.00    +0.000 OA
BRANCH   9  11
ATOM     10  N   UNL     1      -9.104   2.015 123.376  0.00  0.00    +0.000 N 
ATOM     11  C   UNL     1      -9.117   2.482 124.642  0.00  0.00    +0.000 C 
ATOM     12  O   UNL     1      -8.797   3.627 124.935  0.00  0.00    +0.000 OA
ATOM     13  H   UNL     1      -8.801   2.627 122.633  0.00  0.00    +0.000 HD
ATOM     14  H   UNL     1      -9.328   1.049 123.181  0.00  0.00    +0.000 HD
ENDBRANCH   9  11
ENDBRANCH   8   9
ENDBRANCH   1   8
BRANCH   1  15
ATOM     15  C   UNL     1      -7.372  -0.995 124.607  0.00  0.00    +0.000 C 
BRANCH  15  16
ATOM     16  O   UNL     1      -7.918  -0.941 123.281  0.00  0.00    +0.000 OA
BRANCH  16  17
ATOM     17  C   UNL     1      -9.100  -1.517 122.963  0.00  0.00    +0.000 C 
ATOM     18  N   UNL     1      -9.182  -2.867 123.087  0.00  0.00    +0.000 N 
ATOM     19  O   UNL     1     -10.063  -0.857 122.592  0.00  0.00    +0.000 OA
ATOM     20  H   UNL     1      -8.434  -3.468 123.385  0.00  0.00    +0.000 HD
ATOM     21  H   UNL     1     -10.075  -3.286 122.866  0.00  0.00    +0.000 HD
ENDBRANCH  16  17
ENDBRANCH  15  16
ENDBRANCH   1  15
TORSDOF 7
ENDMDL
MODEL 8
REMARK VINA RESULT:      -5.5      4.763      7.786
REMARK  Name = Felbamate
REMARK  7 active torsions:
REMARK  status: ('A' for Active; 'I' for Inactive)
REMARK    1  A    between atoms: C_2  and  O_4
REMARK    2  A    between atoms: O_4  and  C_5
REMARK    3  A    between atoms: C_5  and  C_6
REMARK    4  A    between atoms: C_6  and  C_7
REMARK    5  A    between atoms: C_6  and  C_12
REMARK    6  A    between atoms: C_7  and  O_8
REMARK    7  A    between atoms: O_8  and  C_9
REMARK                            x       y       z     vdW  Elec       q    Type
REMARK                         _______ _______ _______ _____ _____    ______ ____
ROOT
ATOM      1  C   UNL     1      -7.741  -0.846 125.357  0.00  0.00    +0.000 C 
ENDROOT
BRANCH   1   2
ATOM      2  C   UNL     1      -8.059  -1.759 126.549  0.00  0.00    +0.000 A 
ATOM      3  C   UNL     1      -7.588  -1.462 127.843  0.00  0.00    +0.000 A 
ATOM      4  C   UNL     1      -7.782  -2.354 128.902  0.00  0.00    +0.000 A 
ATOM      5  C   UNL     1      -8.510  -3.522 128.709  0.00  0.00    +0.000 A 
ATOM      6  C   UNL     1      -9.006  -3.824 127.449  0.00  0.00    +0.000 A 
ATOM      7  C   UNL     1      -8.777  -2.956 126.383  0.00  0.00    +0.000 A 
ENDBRANCH   1   2
BRANCH   1   8
ATOM      8  C   UNL     1      -6.265  -0.954 124.885  0.00  0.00    +0.000 C 
BRANCH   8   9
ATOM      9  O   UNL     1      -5.781  -2.304 124.851  0.00  0.00    +0.000 OA
BRANCH   9  11
ATOM     10  N   UNL     1      -4.596  -3.792 123.695  0.00  0.00    +0.000 N 
ATOM     11  C   UNL     1      -5.426  -2.730 123.618  0.00  0.00    +0.000 C 
ATOM     12  O   UNL     1      -5.791  -2.244 122.555  0.00  0.00    +0.000 OA
ATOM     13  H   UNL     1      -4.243  -4.198 122.842  0.00  0.00    +0.000 HD
ATOM     14  H   UNL     1      -4.279  -4.134 124.592  0.00  0.00    +0.000 HD
ENDBRANCH   9  11
ENDBRANCH   8   9
ENDBRANCH   1   8
BRANCH   1  15
ATOM     15  C   UNL     1      -8.710  -1.119 124.192  0.00  0.00    +0.000 C 
BRANCH  15  16
ATOM     16  O   UNL     1      -8.812   0.022 123.329  0.00  0.00    +0.000 OA
BRANCH  16  17
ATOM     17  C   UNL     1      -9.952   0.741 123.213  0.00  0.00    +0.000 C 
ATOM     18  N   UNL     1     -10.039   1.882 123.945  0.00  0.00    +0.000 N 
ATOM     19  O   UNL     1     -10.866   0.392 122.476  0.00  0.00    +0.000 OA
ATOM     20  H   UNL     1      -9.330   2.226 124.568  0.00  0.00    +0.000 HD
ATOM     21  H   UNL     1     -10.887   2.421 123.838  0.00  0.00    +0.000 HD
ENDBRANCH  16  17
ENDBRANCH  15  16
ENDBRANCH   1  15
TORSDOF 7
ENDMDL
MODEL 9
REMARK VINA RESULT:      -5.4      6.326      8.799
REMARK  Name = Felbamate
REMARK  7 active torsions:
REMARK  status: ('A' for Active; 'I' for Inactive)
REMARK    1  A    between atoms: C_2  and  O_4
REMARK    2  A    between atoms: O_4  and  C_5
REMARK    3  A    between atoms: C_5  and  C_6
REMARK    4  A    between atoms: C_6  and  C_7
REMARK    5  A    between atoms: C_6  and  C_12
REMARK    6  A    between atoms: C_7  and  O_8
REMARK    7  A    between atoms: O_8  and  C_9
REMARK                            x       y       z     vdW  Elec       q    Type
REMARK                         _______ _______ _______ _____ _____    ______ ____
ROOT
ATOM      1  C   UNL     1      -7.298  -2.343 125.448  0.00  0.00    +0.000 C 
ENDROOT
BRANCH   1   2
ATOM      2  C   UNL     1      -7.541  -2.725 126.915  0.00  0.00    +0.000 A 
ATOM      3  C   UNL     1      -8.638  -3.526 127.290  0.00  0.00    +0.000 A 
ATOM      4  C   UNL     1      -8.921  -3.775 128.636  0.00  0.00    +0.000 A 
ATOM      5  C   UNL     1      -8.077  -3.293 129.630  0.00  0.00    +0.000 A 
ATOM      6  C   UNL     1      -6.975  -2.523 129.283  0.00  0.00    +0.000 A 
ATOM      7  C   UNL     1      -6.716  -2.239 127.944  0.00  0.00    +0.000 A 
ENDBRANCH   1   2
BRANCH   1   8
ATOM      8  C   UNL     1      -8.152  -1.131 124.986  0.00  0.00    +0.000 C 
BRANCH   8   9
ATOM      9  O   UNL     1      -9.347  -1.516 124.293  0.00  0.00    +0.000 OA
BRANCH   9  11
ATOM     10  N   UNL     1      -9.903  -3.453 123.346  0.00  0.00    +0.000 N 
ATOM     11  C   UNL     1      -9.134  -2.348 123.248  0.00  0.00    +0.000 C 
ATOM     12  O   UNL     1      -8.359  -2.155 122.320  0.00  0.00    +0.000 OA
ATOM     13  H   UNL     1      -9.828  -4.164 122.635  0.00  0.00    +0.000 HD
ATOM     14  H   UNL     1     -10.495  -3.598 124.152  0.00  0.00    +0.000 HD
ENDBRANCH   9  11
ENDBRANCH   8   9
ENDBRANCH   1   8
BRANCH   1  15
ATOM     15  C   UNL     1      -5.800  -2.087 125.197  0.00  0.00    +0.000 C 
BRANCH  15  16
ATOM     16  O   UNL     1      -5.116  -3.307 124.877  0.00  0.00    +0.000 OA
BRANCH  16  17
ATOM     17  C   UNL     1      -4.766  -3.627 123.610  0.00  0.00    +0.000 C 
ATOM     18  N   UNL     1      -4.008  -4.742 123.443  0.00  0.00    +0.000 N 
ATOM     19  O   UNL     1      -5.120  -2.955 122.650  0.00  0.00    +0.000 OA
ATOM     20  H   UNL     1      -3.683  -5.338 124.184  0.00  0.00    +0.000 HD
ATOM     21  H   UNL     1      -3.767  -4.984 122.492  0.00  0.00    +0.000 HD
ENDBRANCH  16  17
ENDBRANCH  15  16
ENDBRANCH   1  15
TORSDOF 7
ENDMDL
