MODEL 1
REMARK VINA RESULT:      -6.6      0.000      0.000
REMARK  Name = Felodipine
REMARK  10 active torsions:
REMARK  status: ('A' for Active; 'I' for Inactive)
REMARK    1  A    between atoms: C_1  and  C_2
REMARK    2  A    between atoms: C_2  and  O_3
REMARK    3  A    between atoms: O_3  and  C_4
REMARK    4  A    between atoms: C_4  and  C_6
REMARK    5  A    between atoms: C_7  and  C_8
REMARK    6  A    between atoms: C_10  and  C_11
REMARK    7  A    between atoms: C_12  and  C_22
REMARK    8  A    between atoms: C_13  and  C_14
REMARK    9  A    between atoms: C_22  and  O_24
REMARK   10  A    between atoms: O_24  and  C_25
REMARK                            x       y       z     vdW  Elec       q    Type
REMARK                         _______ _______ _______ _____ _____    ______ ____
ROOT
ATOM      1  C   UNL     1      -9.680   5.672 129.845  0.00  0.00    +0.000 C 
ATOM      2  C   UNL     1     -10.589   5.415 130.815  0.00  0.00    +0.000 C 
ATOM      3  C   UNL     1     -11.682   6.324 131.298  0.00  0.00    +0.000 C 
ATOM      4  N   UNL     1     -10.553   4.187 131.462  0.00  0.00    +0.000 N 
ATOM      5  C   UNL     1      -9.790   3.095 131.078  0.00  0.00    +0.000 C 
ATOM      6  C   UNL     1     -10.092   1.818 131.817  0.00  0.00    +0.000 C 
ATOM      7  C   UNL     1      -8.842   3.232 130.118  0.00  0.00    +0.000 C 
ATOM      8  C   UNL     1      -8.544   4.651 129.595  0.00  0.00    +0.000 C 
ATOM      9  H   UNL     1     -11.001   4.136 132.374  0.00  0.00    +0.000 HD
ENDROOT
BRANCH   8  10
ATOM     10  C   UNL     1      -7.204   5.144 130.202  0.00  0.00    +0.000 A 
ATOM     11  C   UNL     1      -5.915   5.002 129.607  0.00  0.00    +0.000 A 
ATOM     12 CL   UNL     1      -5.606   4.133 128.140  0.00  0.00    +0.000 Cl
ATOM     13  C   UNL     1      -4.790   5.602 130.202  0.00  0.00    +0.000 A 
ATOM     14 CL   UNL     1      -3.191   5.477 129.534  0.00  0.00    +0.000 Cl
ATOM     15  C   UNL     1      -4.923   6.346 131.367  0.00  0.00    +0.000 A 
ATOM     16  C   UNL     1      -6.167   6.481 131.970  0.00  0.00    +0.000 A 
ATOM     17  C   UNL     1      -7.292   5.876 131.406  0.00  0.00    +0.000 A 
ENDBRANCH   8  10
BRANCH   1  18
ATOM     18  C   UNL     1      -9.798   6.817 128.898  0.00  0.00    +0.000 C 
ATOM     19  O   UNL     1      -9.618   7.976 129.262  0.00  0.00    +0.000 OA
BRANCH  18  20
ATOM     20  O   UNL     1     -10.102   6.448 127.623  0.00  0.00    +0.000 OA
BRANCH  20  22
ATOM     21  C   UNL     1     -12.330   7.191 126.984  0.00  0.00    +0.000 C 
ATOM     22  C   UNL     1     -10.830   7.425 126.848  0.00  0.00    +0.000 C 
ENDBRANCH  20  22
ENDBRANCH  18  20
ENDBRANCH   1  18
BRANCH   7  23
ATOM     23  C   UNL     1      -8.097   2.030 129.616  0.00  0.00    +0.000 C 
ATOM     24  O   UNL     1      -7.109   1.554 130.171  0.00  0.00    +0.000 OA
BRANCH  23  25
ATOM     25  O   UNL     1      -8.636   1.481 128.494  0.00  0.00    +0.000 OA
ATOM     26  C   UNL     1      -7.809   0.453 127.909  0.00  0.00    +0.000 C 
ENDBRANCH  23  25
ENDBRANCH   7  23
TORSDOF 6
ENDMDL
MODEL 2
REMARK VINA RESULT:      -6.5      6.057      8.565
REMARK  Name = Felodipine
REMARK  10 active torsions:
REMARK  status: ('A' for Active; 'I' for Inactive)
REMARK    1  A    between atoms: C_1  and  C_2
REMARK    2  A    between atoms: C_2  and  O_3
REMARK    3  A    between atoms: O_3  and  C_4
REMARK    4  A    between atoms: C_4  and  C_6
REMARK    5  A    between atoms: C_7  and  C_8
REMARK    6  A    between atoms: C_10  and  C_11
REMARK    7  A    between atoms: C_12  and  C_22
REMARK    8  A    between atoms: C_13  and  C_14
REMARK    9  A    between atoms: C_22  and  O_24
REMARK   10  A    between atoms: O_24  and  C_25
REMARK                            x       y       z     vdW  Elec       q    Type
REMARK                         _______ _______ _______ _____ _____    ______ ____
ROOT
ATOM      1  C   UNL     1      -6.419   0.047 126.141  0.00  0.00    +0.000 C 
ATOM      2  C   UNL     1      -7.389   0.602 125.377  0.00  0.00    +0.000 C 
ATOM      3  C   UNL     1      -7.918   2.006 125.461  0.00  0.00    +0.000 C 
ATOM      4  N   UNL     1      -7.990  -0.166 124.389  0.00  0.00    +0.000 N 
ATOM      5  C   UNL     1      -7.557  -1.411 123.961  0.00  0.00    +0.000 C 
ATOM      6  C   UNL     1      -8.251  -1.938 122.733  0.00  0.00    +0.000 C 
ATOM      7  C   UNL     1      -6.592  -2.069 124.651  0.00  0.00    +0.000 C 
ATOM      8  C   UNL     1      -6.119  -1.463 125.987  0.00  0.00    +0.000 C 
ATOM      9  H   UNL     1      -8.904   0.139 124.063  0.00  0.00    +0.000 HD
ENDROOT
BRANCH   8  10
ATOM     10  C   UNL     1      -6.728  -2.278 127.158  0.00  0.00    +0.000 A 
ATOM     11  C   UNL     1      -6.079  -2.584 128.391  0.00  0.00    +0.000 A 
ATOM     12 CL   UNL     1      -4.428  -2.195 128.749  0.00  0.00    +0.000 Cl
ATOM     13  C   UNL     1      -6.785  -3.228 129.423  0.00  0.00    +0.000 A 
ATOM     14 CL   UNL     1      -6.063  -3.627 130.953  0.00  0.00    +0.000 Cl
ATOM     15  C   UNL     1      -8.123  -3.563 129.259  0.00  0.00    +0.000 A 
ATOM     16  C   UNL     1      -8.767  -3.289 128.058  0.00  0.00    +0.000 A 
ATOM     17  C   UNL     1      -8.077  -2.670 127.015  0.00  0.00    +0.000 A 
ENDBRANCH   8  10
BRANCH   1  18
ATOM     18  C   UNL     1      -5.517   0.843 127.021  0.00  0.00    +0.000 C 
ATOM     19  O   UNL     1      -5.739   0.974 128.222  0.00  0.00    +0.000 OA
BRANCH  18  20
ATOM     20  O   UNL     1      -4.446   1.377 126.373  0.00  0.00    +0.000 OA
BRANCH  20  22
ATOM     21  C   UNL     1      -2.653   2.994 126.680  0.00  0.00    +0.000 C 
ATOM     22  C   UNL     1      -4.159   2.759 126.677  0.00  0.00    +0.000 C 
ENDBRANCH  20  22
ENDBRANCH  18  20
ENDBRANCH   1  18
BRANCH   7  23
ATOM     23  C   UNL     1      -6.038  -3.362 124.126  0.00  0.00    +0.000 C 
ATOM     24  O   UNL     1      -6.596  -4.449 124.253  0.00  0.00    +0.000 OA
BRANCH  23  25
ATOM     25  O   UNL     1      -4.861  -3.221 123.459  0.00  0.00    +0.000 OA
ATOM     26  C   UNL     1      -4.016  -4.388 123.544  0.00  0.00    +0.000 C 
ENDBRANCH  23  25
ENDBRANCH   7  23
TORSDOF 6
ENDMDL
MODEL 3
REMARK VINA RESULT:      -6.4      5.314      7.473
REMARK  Name = Felodipine
REMARK  10 active torsions:
REMARK  status: ('A' for Active; 'I' for Inactive)
REMARK    1  A    between atoms: C_1  and  C_2
REMARK    2  A    between atoms: C_2  and  O_3
REMARK    3  A    between atoms: O_3  and  C_4
REMARK    4  A    between atoms: C_4  and  C_6
REMARK    5  A    between atoms: C_7  and  C_8
REMARK    6  A    between atoms: C_10  and  C_11
REMARK    7  A    between atoms: C_12  and  C_22
REMARK    8  A    between atoms: C_13  and  C_14
REMARK    9  A    between atoms: C_22  and  O_24
REMARK   10  A    between atoms: O_24  and  C_25
REMARK                            x       y       z     vdW  Elec       q    Type
REMARK                         _______ _______ _______ _____ _____    ______ ____
ROOT
ATOM      1  C   UNL     1      -7.825   0.968 123.597  0.00  0.00    +0.000 C 
ATOM      2  C   UNL     1      -8.937   0.293 123.223  0.00  0.00    +0.000 C 
ATOM      3  C   UNL     1     -10.139   0.847 122.511  0.00  0.00    +0.000 C 
ATOM      4  N   UNL     1      -9.025  -1.065 123.499  0.00  0.00    +0.000 N 
ATOM      5  C   UNL     1      -7.988  -1.864 123.955  0.00  0.00    +0.000 C 
ATOM      6  C   UNL     1      -8.284  -3.340 123.972  0.00  0.00    +0.000 C 
ATOM      7  C   UNL     1      -6.824  -1.299 124.363  0.00  0.00    +0.000 C 
ATOM      8  C   UNL     1      -6.759   0.239 124.448  0.00  0.00    +0.000 C 
ATOM      9  H   UNL     1      -9.958  -1.470 123.516  0.00  0.00    +0.000 HD
ENDROOT
BRANCH   8  10
ATOM     10  C   UNL     1      -6.840   0.668 125.937  0.00  0.00    +0.000 A 
ATOM     11  C   UNL     1      -6.142   1.762 126.531  0.00  0.00    +0.000 A 
ATOM     12 CL   UNL     1      -4.970   2.737 125.705  0.00  0.00    +0.000 Cl
ATOM     13  C   UNL     1      -6.395   2.123 127.866  0.00  0.00    +0.000 A 
ATOM     14 CL   UNL     1      -5.589   3.445 128.655  0.00  0.00    +0.000 Cl
ATOM     15  C   UNL     1      -7.335   1.429 128.617  0.00  0.00    +0.000 A 
ATOM     16  C   UNL     1      -8.012   0.350 128.061  0.00  0.00    +0.000 A 
ATOM     17  C   UNL     1      -7.758  -0.037 126.744  0.00  0.00    +0.000 A 
ENDBRANCH   8  10
BRANCH   1  18
ATOM     18  C   UNL     1      -7.497   2.337 123.106  0.00  0.00    +0.000 C 
ATOM     19  O   UNL     1      -8.035   3.336 123.576  0.00  0.00    +0.000 OA
BRANCH  18  20
ATOM     20  O   UNL     1      -6.555   2.359 122.124  0.00  0.00    +0.000 OA
BRANCH  20  22
ATOM     21  C   UNL     1      -5.176   4.210 121.351  0.00  0.00    +0.000 C 
ATOM     22  C   UNL     1      -6.545   3.542 121.296  0.00  0.00    +0.000 C 
ENDBRANCH  20  22
ENDBRANCH  18  20
ENDBRANCH   1  18
BRANCH   7  23
ATOM     23  C   UNL     1      -5.660  -2.165 124.745  0.00  0.00    +0.000 C 
ATOM     24  O   UNL     1      -5.427  -2.535 125.893  0.00  0.00    +0.000 OA
BRANCH  23  25
ATOM     25  O   UNL     1      -4.887  -2.539 123.690  0.00  0.00    +0.000 OA
ATOM     26  C   UNL     1      -4.537  -3.939 123.708  0.00  0.00    +0.000 C 
ENDBRANCH  23  25
ENDBRANCH   7  23
TORSDOF 6
ENDMDL
MODEL 4
REMARK VINA RESULT:      -6.4      5.677      8.403
REMARK  Name = Felodipine
REMARK  10 active torsions:
REMARK  status: ('A' for Active; 'I' for Inactive)
REMARK    1  A    between atoms: C_1  and  C_2
REMARK    2  A    between atoms: C_2  and  O_3
REMARK    3  A    between atoms: O_3  and  C_4
REMARK    4  A    between atoms: C_4  and  C_6
REMARK    5  A    between atoms: C_7  and  C_8
REMARK    6  A    between atoms: C_10  and  C_11
REMARK    7  A    between atoms: C_12  and  C_22
REMARK    8  A    between atoms: C_13  and  C_14
REMARK    9  A    between atoms: C_22  and  O_24
REMARK   10  A    between atoms: O_24  and  C_25
REMARK                            x       y       z     vdW  Elec       q    Type
REMARK                         _______ _______ _______ _____ _____    ______ ____
ROOT
ATOM      1  C   UNL     1      -7.308  -2.004 124.718  0.00  0.00    +0.000 C 
ATOM      2  C   UNL     1      -8.387  -2.816 124.811  0.00  0.00    +0.000 C 
ATOM      3  C   UNL     1      -9.201  -3.379 123.680  0.00  0.00    +0.000 C 
ATOM      4  N   UNL     1      -8.829  -3.206 126.068  0.00  0.00    +0.000 N 
ATOM      5  C   UNL     1      -8.149  -3.006 127.260  0.00  0.00    +0.000 C 
ATOM      6  C   UNL     1      -8.738  -3.712 128.453  0.00  0.00    +0.000 C 
ATOM      7  C   UNL     1      -7.054  -2.206 127.291  0.00  0.00    +0.000 C 
ATOM      8  C   UNL     1      -6.697  -1.421 126.014  0.00  0.00    +0.000 C 
ATOM      9  H   UNL     1      -9.793  -3.525 126.137  0.00  0.00    +0.000 HD
ENDROOT
BRANCH   8  10
ATOM     10  C   UNL     1      -7.099   0.066 126.204  0.00  0.00    +0.000 A 
ATOM     11  C   UNL     1      -6.205   1.178 126.221  0.00  0.00    +0.000 A 
ATOM     12 CL   UNL     1      -4.478   1.044 126.155  0.00  0.00    +0.000 Cl
ATOM     13  C   UNL     1      -6.707   2.491 126.279  0.00  0.00    +0.000 A 
ATOM     14 CL   UNL     1      -5.682   3.893 126.298  0.00  0.00    +0.000 Cl
ATOM     15  C   UNL     1      -8.077   2.719 126.309  0.00  0.00    +0.000 A 
ATOM     16  C   UNL     1      -8.963   1.648 126.310  0.00  0.00    +0.000 A 
ATOM     17  C   UNL     1      -8.483   0.338 126.274  0.00  0.00    +0.000 A 
ENDBRANCH   8  10
BRANCH   1  18
ATOM     18  C   UNL     1      -6.580  -1.757 123.440  0.00  0.00    +0.000 C 
ATOM     19  O   UNL     1      -6.593  -0.658 122.893  0.00  0.00    +0.000 OA
BRANCH  18  20
ATOM     20  O   UNL     1      -5.908  -2.844 122.972  0.00  0.00    +0.000 OA
BRANCH  20  22
ATOM     21  C   UNL     1      -4.372  -4.636 123.570  0.00  0.00    +0.000 C 
ATOM     22  C   UNL     1      -4.661  -3.141 123.638  0.00  0.00    +0.000 C 
ENDBRANCH  20  22
ENDBRANCH  18  20
ENDBRANCH   1  18
BRANCH   7  23
ATOM     23  C   UNL     1      -6.248  -2.081 128.551  0.00  0.00    +0.000 C 
ATOM     24  O   UNL     1      -6.496  -1.277 129.446  0.00  0.00    +0.000 OA
BRANCH  23  25
ATOM     25  O   UNL     1      -5.222  -2.969 128.634  0.00  0.00    +0.000 OA
ATOM     26  C   UNL     1      -5.065  -3.537 129.951  0.00  0.00    +0.000 C 
ENDBRANCH  23  25
ENDBRANCH   7  23
TORSDOF 6
ENDMDL
MODEL 5
REMARK VINA RESULT:      -6.3      4.340      7.345
REMARK  Name = Felodipine
REMARK  10 active torsions:
REMARK  status: ('A' for Active; 'I' for Inactive)
REMARK    1  A    between atoms: C_1  and  C_2
REMARK    2  A    between atoms: C_2  and  O_3
REMARK    3  A    between atoms: O_3  and  C_4
REMARK    4  A    between atoms: C_4  and  C_6
REMARK    5  A    between atoms: C_7  and  C_8
REMARK    6  A    between atoms: C_10  and  C_11
REMARK    7  A    between atoms: C_12  and  C_22
REMARK    8  A    between atoms: C_13  and  C_14
REMARK    9  A    between atoms: C_22  and  O_24
REMARK   10  A    between atoms: O_24  and  C_25
REMARK                            x       y       z     vdW  Elec       q    Type
REMARK                         _______ _______ _______ _____ _____    ______ ____
ROOT
ATOM      1  C   UNL     1      -8.906   1.901 124.340  0.00  0.00    +0.000 C 
ATOM      2  C   UNL     1      -8.441   2.723 123.370  0.00  0.00    +0.000 C 
ATOM      3  C   UNL     1      -8.800   2.700 121.912  0.00  0.00    +0.000 C 
ATOM      4  N   UNL     1      -7.534   3.717 123.710  0.00  0.00    +0.000 N 
ATOM      5  C   UNL     1      -7.193   4.093 124.999  0.00  0.00    +0.000 C 
ATOM      6  C   UNL     1      -6.351   5.337 125.098  0.00  0.00    +0.000 C 
ATOM      7  C   UNL     1      -7.598   3.342 126.055  0.00  0.00    +0.000 C 
ATOM      8  C   UNL     1      -8.301   2.002 125.760  0.00  0.00    +0.000 C 
ATOM      9  H   UNL     1      -6.962   4.093 122.956  0.00  0.00    +0.000 HD
ENDROOT
BRANCH   8  10
ATOM     10  C   UNL     1      -7.309   0.840 126.030  0.00  0.00    +0.000 A 
ATOM     11  C   UNL     1      -7.185   0.114 127.253  0.00  0.00    +0.000 A 
ATOM     12 CL   UNL     1      -8.050   0.493 128.706  0.00  0.00    +0.000 Cl
ATOM     13  C   UNL     1      -6.331  -1.001 127.332  0.00  0.00    +0.000 A 
ATOM     14 CL   UNL     1      -6.133  -1.936 128.782  0.00  0.00    +0.000 Cl
ATOM     15  C   UNL     1      -5.608  -1.414 126.220  0.00  0.00    +0.000 A 
ATOM     16  C   UNL     1      -5.702  -0.708 125.026  0.00  0.00    +0.000 A 
ATOM     17  C   UNL     1      -6.528   0.413 124.934  0.00  0.00    +0.000 A 
ENDBRANCH   8  10
BRANCH   1  18
ATOM     18  C   UNL     1     -10.081   1.001 124.154  0.00  0.00    +0.000 C 
ATOM     19  O   UNL     1     -11.218   1.445 124.018  0.00  0.00    +0.000 OA
BRANCH  18  20
ATOM     20  O   UNL     1      -9.763  -0.322 124.136  0.00  0.00    +0.000 OA
BRANCH  20  22
ATOM     21  C   UNL     1      -8.614  -2.157 123.023  0.00  0.00    +0.000 C 
ATOM     22  C   UNL     1      -9.387  -0.855 122.848  0.00  0.00    +0.000 C 
ENDBRANCH  20  22
ENDBRANCH  18  20
ENDBRANCH   1  18
BRANCH   7  23
ATOM     23  C   UNL     1      -7.333   3.808 127.456  0.00  0.00    +0.000 C 
ATOM     24  O   UNL     1      -6.330   3.508 128.100  0.00  0.00    +0.000 OA
BRANCH  23  25
ATOM     25  O   UNL     1      -8.297   4.629 127.952  0.00  0.00    +0.000 OA
ATOM     26  C   UNL     1      -8.525   4.452 129.366  0.00  0.00    +0.000 C 
ENDBRANCH  23  25
ENDBRANCH   7  23
TORSDOF 6
ENDMDL
MODEL 6
REMARK VINA RESULT:      -6.3      2.008      5.246
REMARK  Name = Felodipine
REMARK  10 active torsions:
REMARK  status: ('A' for Active; 'I' for Inactive)
REMARK    1  A    between atoms: C_1  and  C_2
REMARK    2  A    between atoms: C_2  and  O_3
REMARK    3  A    between atoms: O_3  and  C_4
REMARK    4  A    between atoms: C_4  and  C_6
REMARK    5  A    between atoms: C_7  and  C_8
REMARK    6  A    between atoms: C_10  and  C_11
REMARK    7  A    between atoms: C_12  and  C_22
REMARK    8  A    between atoms: C_13  and  C_14
REMARK    9  A    between atoms: C_22  and  O_24
REMARK   10  A    between atoms: O_24  and  C_25
REMARK                            x       y       z     vdW  Elec       q    Type
REMARK                         _______ _______ _______ _____ _____    ______ ____
ROOT
ATOM      1  C   UNL     1      -7.394   5.701 132.215  0.00  0.00    +0.000 C 
ATOM      2  C   UNL     1      -8.237   5.753 133.272  0.00  0.00    +0.000 C 
ATOM      3  C   UNL     1      -7.876   5.654 134.727  0.00  0.00    +0.000 C 
ATOM      4  N   UNL     1      -9.596   5.922 133.041  0.00  0.00    +0.000 N 
ATOM      5  C   UNL     1     -10.173   6.245 131.824  0.00  0.00    +0.000 C 
ATOM      6  C   UNL     1     -11.640   6.582 131.885  0.00  0.00    +0.000 C 
ATOM      7  C   UNL     1      -9.427   6.222 130.691  0.00  0.00    +0.000 C 
ATOM      8  C   UNL     1      -7.987   5.682 130.786  0.00  0.00    +0.000 C 
ATOM      9  H   UNL     1     -10.227   5.636 133.787  0.00  0.00    +0.000 HD
ENDROOT
BRANCH   8  10
ATOM     10  C   UNL     1      -7.940   4.254 130.179  0.00  0.00    +0.000 A 
ATOM     11  C   UNL     1      -6.902   3.731 129.351  0.00  0.00    +0.000 A 
ATOM     12 CL   UNL     1      -5.555   4.655 128.773  0.00  0.00    +0.000 Cl
ATOM     13  C   UNL     1      -6.918   2.379 128.964  0.00  0.00    +0.000 A 
ATOM     14 CL   UNL     1      -5.687   1.671 127.963  0.00  0.00    +0.000 Cl
ATOM     15  C   UNL     1      -7.936   1.536 129.392  0.00  0.00    +0.000 A 
ATOM     16  C   UNL     1      -8.965   2.032 130.184  0.00  0.00    +0.000 A 
ATOM     17  C   UNL     1      -8.978   3.376 130.560  0.00  0.00    +0.000 A 
ENDBRANCH   8  10
BRANCH   1  18
ATOM     18  C   UNL     1      -5.913   5.812 132.345  0.00  0.00    +0.000 C 
ATOM     19  O   UNL     1      -5.247   4.941 132.899  0.00  0.00    +0.000 OA
BRANCH  18  20
ATOM     20  O   UNL     1      -5.395   6.940 131.786  0.00  0.00    +0.000 OA
BRANCH  20  22
ATOM     21  C   UNL     1      -3.122   7.786 131.995  0.00  0.00    +0.000 C 
ATOM     22  C   UNL     1      -4.051   6.819 131.270  0.00  0.00    +0.000 C 
ENDBRANCH  20  22
ENDBRANCH  18  20
ENDBRANCH   1  18
BRANCH   7  23
ATOM     23  C   UNL     1     -10.017   6.685 129.391  0.00  0.00    +0.000 C 
ATOM     24  O   UNL     1     -10.717   5.981 128.666  0.00  0.00    +0.000 OA
BRANCH  23  25
ATOM     25  O   UNL     1      -9.733   7.981 129.091  0.00  0.00    +0.000 OA
ATOM     26  C   UNL     1     -10.637   8.554 128.124  0.00  0.00    +0.000 C 
ENDBRANCH  23  25
ENDBRANCH   7  23
TORSDOF 6
ENDMDL
MODEL 7
REMARK VINA RESULT:      -6.2      5.259      8.839
REMARK  Name = Felodipine
REMARK  10 active torsions:
REMARK  status: ('A' for Active; 'I' for Inactive)
REMARK    1  A    between atoms: C_1  and  C_2
REMARK    2  A    between atoms: C_2  and  O_3
REMARK    3  A    between atoms: O_3  and  C_4
REMARK    4  A    between atoms: C_4  and  C_6
REMARK    5  A    between atoms: C_7  and  C_8
REMARK    6  A    between atoms: C_10  and  C_11
REMARK    7  A    between atoms: C_12  and  C_22
REMARK    8  A    between atoms: C_13  and  C_14
REMARK    9  A    between atoms: C_22  and  O_24
REMARK   10  A    between atoms: O_24  and  C_25
REMARK                            x       y       z     vdW  Elec       q    Type
REMARK                         _______ _______ _______ _____ _____    ______ ____
ROOT
ATOM      1  C   UNL     1      -6.979  -1.145 124.940  0.00  0.00    +0.000 C 
ATOM      2  C   UNL     1      -7.588  -1.771 125.974  0.00  0.00    +0.000 C 
ATOM      3  C   UNL     1      -7.892  -3.238 126.095  0.00  0.00    +0.000 C 
ATOM      4  N   UNL     1      -7.991  -1.023 127.072  0.00  0.00    +0.000 N 
ATOM      5  C   UNL     1      -7.655   0.300 127.314  0.00  0.00    +0.000 C 
ATOM      6  C   UNL     1      -8.039   0.815 128.675  0.00  0.00    +0.000 C 
ATOM      7  C   UNL     1      -7.045   1.033 126.349  0.00  0.00    +0.000 C 
ATOM      8  C   UNL     1      -6.887   0.400 124.952  0.00  0.00    +0.000 C 
ATOM      9  H   UNL     1      -8.714  -1.428 127.663  0.00  0.00    +0.000 HD
ENDROOT
BRANCH   8  10
ATOM     10  C   UNL     1      -7.928   1.030 123.990  0.00  0.00    +0.000 A 
ATOM     11  C   UNL     1      -7.692   2.120 123.100  0.00  0.00    +0.000 A 
ATOM     12 CL   UNL     1      -6.212   3.020 123.029  0.00  0.00    +0.000 Cl
ATOM     13  C   UNL     1      -8.686   2.521 122.189  0.00  0.00    +0.000 A 
ATOM     14 CL   UNL     1      -8.468   3.834 121.072  0.00  0.00    +0.000 Cl
ATOM     15  C   UNL     1      -9.903   1.854 122.138  0.00  0.00    +0.000 A 
ATOM     16  C   UNL     1     -10.159   0.801 123.008  0.00  0.00    +0.000 A 
ATOM     17  C   UNL     1      -9.192   0.403 123.934  0.00  0.00    +0.000 A 
ENDBRANCH   8  10
BRANCH   1  18
ATOM     18  C   UNL     1      -6.256  -1.870 123.858  0.00  0.00    +0.000 C 
ATOM     19  O   UNL     1      -6.707  -1.945 122.718  0.00  0.00    +0.000 OA
BRANCH  18  20
ATOM     20  O   UNL     1      -5.070  -2.409 124.254  0.00  0.00    +0.000 OA
BRANCH  20  22
ATOM     21  C   UNL     1      -4.568  -4.741 123.766  0.00  0.00    +0.000 C 
ATOM     22  C   UNL     1      -4.439  -3.294 123.303  0.00  0.00    +0.000 C 
ENDBRANCH  20  22
ENDBRANCH  18  20
ENDBRANCH   1  18
BRANCH   7  23
ATOM     23  C   UNL     1      -6.573   2.426 126.646  0.00  0.00    +0.000 C 
ATOM     24  O   UNL     1      -7.232   3.437 126.416  0.00  0.00    +0.000 OA
BRANCH  23  25
ATOM     25  O   UNL     1      -5.345   2.475 127.230  0.00  0.00    +0.000 OA
ATOM     26  C   UNL     1      -4.285   2.792 126.304  0.00  0.00    +0.000 C 
ENDBRANCH  23  25
ENDBRANCH   7  23
TORSDOF 6
ENDMDL
MODEL 8
REMARK VINA RESULT:      -6.1      4.780      6.877
REMARK  Name = Felodipine
REMARK  10 active torsions:
REMARK  status: ('A' for Active; 'I' for Inactive)
REMARK    1  A    between atoms: C_1  and  C_2
REMARK    2  A    between atoms: C_2  and  O_3
REMARK    3  A    between atoms: O_3  and  C_4
REMARK    4  A    between atoms: C_4  and  C_6
REMARK    5  A    between atoms: C_7  and  C_8
REMARK    6  A    between atoms: C_10  and  C_11
REMARK    7  A    between atoms: C_12  and  C_22
REMARK    8  A    between atoms: C_13  and  C_14
REMARK    9  A    between atoms: C_22  and  O_24
REMARK   10  A    between atoms: O_24  and  C_25
REMARK                            x       y       z     vdW  Elec       q    Type
REMARK                         _______ _______ _______ _____ _____    ______ ____
ROOT
ATOM      1  C   UNL     1      -6.656   3.110 125.508  0.00  0.00    +0.000 C 
ATOM      2  C   UNL     1      -5.623   3.672 124.838  0.00  0.00    +0.000 C 
ATOM      3  C   UNL     1      -5.637   4.213 123.436  0.00  0.00    +0.000 C 
ATOM      4  N   UNL     1      -4.394   3.792 125.473  0.00  0.00    +0.000 N 
ATOM      5  C   UNL     1      -4.157   3.569 126.820  0.00  0.00    +0.000 C 
ATOM      6  C   UNL     1      -2.789   3.974 127.300  0.00  0.00    +0.000 C 
ATOM      7  C   UNL     1      -5.118   3.004 127.594  0.00  0.00    +0.000 C 
ATOM      8  C   UNL     1      -6.393   2.487 126.900  0.00  0.00    +0.000 C 
ATOM      9  H   UNL     1      -3.578   3.901 124.875  0.00  0.00    +0.000 HD
ENDROOT
BRANCH   8  10
ATOM     10  C   UNL     1      -6.334   0.939 126.819  0.00  0.00    +0.000 A 
ATOM     11  C   UNL     1      -6.993   0.030 127.700  0.00  0.00    +0.000 A 
ATOM     12 CL   UNL     1      -7.887   0.507 129.106  0.00  0.00    +0.000 Cl
ATOM     13  C   UNL     1      -6.960  -1.353 127.447  0.00  0.00    +0.000 A 
ATOM     14 CL   UNL     1      -7.742  -2.519 128.470  0.00  0.00    +0.000 Cl
ATOM     15  C   UNL     1      -6.295  -1.849 126.332  0.00  0.00    +0.000 A 
ATOM     16  C   UNL     1      -5.633  -0.980 125.472  0.00  0.00    +0.000 A 
ATOM     17  C   UNL     1      -5.637   0.394 125.719  0.00  0.00    +0.000 A 
ENDBRANCH   8  10
BRANCH   1  18
ATOM     18  C   UNL     1      -8.070   3.189 125.044  0.00  0.00    +0.000 C 
ATOM     19  O   UNL     1      -8.815   4.099 125.400  0.00  0.00    +0.000 OA
BRANCH  18  20
ATOM     20  O   UNL     1      -8.429   2.185 124.198  0.00  0.00    +0.000 OA
BRANCH  20  22
ATOM     21  C   UNL     1      -9.762   0.593 125.468  0.00  0.00    +0.000 C 
ATOM     22  C   UNL     1      -9.763   1.662 124.381  0.00  0.00    +0.000 C 
ENDBRANCH  20  22
ENDBRANCH  18  20
ENDBRANCH   1  18
BRANCH   7  23
ATOM     23  C   UNL     1      -4.910   2.869 129.074  0.00  0.00    +0.000 C 
ATOM     24  O   UNL     1      -4.414   1.881 129.610  0.00  0.00    +0.000 OA
BRANCH  23  25
ATOM     25  O   UNL     1      -5.295   3.965 129.783  0.00  0.00    +0.000 OA
ATOM     26  C   UNL     1      -4.484   4.200 130.953  0.00  0.00    +0.000 C 
ENDBRANCH  23  25
ENDBRANCH   7  23
TORSDOF 6
ENDMDL
MODEL 9
REMARK VINA RESULT:      -6.1      5.118      7.345
REMARK  Name = Felodipine
REMARK  10 active torsions:
REMARK  status: ('A' for Active; 'I' for Inactive)
REMARK    1  A    between atoms: C_1  and  C_2
REMARK    2  A    between atoms: C_2  and  O_3
REMARK    3  A    between atoms: O_3  and  C_4
REMARK    4  A    between atoms: C_4  and  C_6
REMARK    5  A    between atoms: C_7  and  C_8
REMARK    6  A    between atoms: C_10  and  C_11
REMARK    7  A    between atoms: C_12  and  C_22
REMARK    8  A    between atoms: C_13  and  C_14
REMARK    9  A    between atoms: C_22  and  O_24
REMARK   10  A    between atoms: O_24  and  C_25
REMARK                            x       y       z     vdW  Elec       q    Type
REMARK                         _______ _______ _______ _____ _____    ______ ____
ROOT
ATOM      1  C   UNL     1      -7.621  -2.595 127.437  0.00  0.00    +0.000 C 
ATOM      2  C   UNL     1      -8.264  -3.431 128.288  0.00  0.00    +0.000 C 
ATOM      3  C   UNL     1      -9.552  -4.163 128.040  0.00  0.00    +0.000 C 
ATOM      4  N   UNL     1      -7.710  -3.675 129.537  0.00  0.00    +0.000 N 
ATOM      5  C   UNL     1      -6.440  -3.299 129.944  0.00  0.00    +0.000 C 
ATOM      6  C   UNL     1      -6.002  -3.870 131.267  0.00  0.00    +0.000 C 
ATOM      7  C   UNL     1      -5.701  -2.459 129.176  0.00  0.00    +0.000 C 
ATOM      8  C   UNL     1      -6.375  -1.830 127.941  0.00  0.00    +0.000 C 
ATOM      9  H   UNL     1      -8.340  -4.019 130.258  0.00  0.00    +0.000 HD
ENDROOT
BRANCH   8  10
ATOM     10  C   UNL     1      -6.715  -0.348 128.250  0.00  0.00    +0.000 A 
ATOM     11  C   UNL     1      -6.231   0.788 127.535  0.00  0.00    +0.000 A 
ATOM     12 CL   UNL     1      -5.064   0.712 126.255  0.00  0.00    +0.000 Cl
ATOM     13  C   UNL     1      -6.711   2.075 127.838  0.00  0.00    +0.000 A 
ATOM     14 CL   UNL     1      -6.172   3.503 127.008  0.00  0.00    +0.000 Cl
ATOM     15  C   UNL     1      -7.669   2.253 128.828  0.00  0.00    +0.000 A 
ATOM     16  C   UNL     1      -8.140   1.161 129.548  0.00  0.00    +0.000 A 
ATOM     17  C   UNL     1      -7.659  -0.121 129.275  0.00  0.00    +0.000 A 
ENDBRANCH   8  10
BRANCH   1  18
ATOM     18  C   UNL     1      -7.960  -2.485 125.990  0.00  0.00    +0.000 C 
ATOM     19  O   UNL     1      -7.306  -3.069 125.129  0.00  0.00    +0.000 OA
BRANCH  18  20
ATOM     20  O   UNL     1      -9.047  -1.706 125.736  0.00  0.00    +0.000 OA
BRANCH  20  22
ATOM     21  C   UNL     1      -9.537   0.677 125.820  0.00  0.00    +0.000 C 
ATOM     22  C   UNL     1      -8.769  -0.433 125.112  0.00  0.00    +0.000 C 
ENDBRANCH  20  22
ENDBRANCH  18  20
ENDBRANCH   1  18
BRANCH   7  23
ATOM     23  C   UNL     1      -4.283  -2.144 129.553  0.00  0.00    +0.000 C 
ATOM     24  O   UNL     1      -3.320  -2.843 129.246  0.00  0.00    +0.000 OA
BRANCH  23  25
ATOM     25  O   UNL     1      -4.147  -0.983 130.248  0.00  0.00    +0.000 OA
ATOM     26  C   UNL     1      -3.597  -1.170 131.569  0.00  0.00    +0.000 C 
ENDBRANCH  23  25
ENDBRANCH   7  23
TORSDOF 6
ENDMDL
