MODEL 1
REMARK VINA RESULT:      -7.5      0.000      0.000
REMARK  Name = Fenbufen
REMARK  6 active torsions:
REMARK  status: ('A' for Active; 'I' for Inactive)
REMARK    1  A    between atoms: O_1  and  C_2
REMARK    2  A    between atoms: C_2  and  C_4
REMARK    3  A    between atoms: C_4  and  C_5
REMARK    4  A    between atoms: C_5  and  C_6
REMARK    5  A    between atoms: C_6  and  C_8
REMARK    6  A    between atoms: C_11  and  C_14
REMARK                            x       y       z     vdW  Elec       q    Type
REMARK                         _______ _______ _______ _____ _____    ______ ____
ROOT
ATOM      1  C   UNL     1     -10.942   6.750 130.960  0.00  0.00    +0.000 A 
ATOM      2  C   UNL     1      -9.959   7.259 130.107  0.00  0.00    +0.000 A 
ATOM      3  C   UNL     1      -8.609   7.086 130.422  0.00  0.00    +0.000 A 
ATOM      4  C   UNL     1      -8.218   6.472 131.625  0.00  0.00    +0.000 A 
ATOM      5  C   UNL     1      -9.216   5.961 132.467  0.00  0.00    +0.000 A 
ATOM      6  C   UNL     1     -10.570   6.101 132.141  0.00  0.00    +0.000 A 
ENDROOT
BRANCH   4   7
ATOM      7  C   UNL     1      -6.796   6.390 131.980  0.00  0.00    +0.000 A 
ATOM      8  C   UNL     1      -6.404   5.810 133.199  0.00  0.00    +0.000 A 
ATOM      9  C   UNL     1      -5.071   5.837 133.611  0.00  0.00    +0.000 A 
ATOM     10  C   UNL     1      -4.098   6.372 132.771  0.00  0.00    +0.000 A 
ATOM     11  C   UNL     1      -4.462   6.910 131.538  0.00  0.00    +0.000 A 
ATOM     12  C   UNL     1      -5.803   6.924 131.147  0.00  0.00    +0.000 A 
ENDBRANCH   4   7
BRANCH   1  13
ATOM     13  C   UNL     1     -12.364   6.816 130.536  0.00  0.00    +0.000 C 
ATOM     14  O   UNL     1     -13.210   7.190 131.346  0.00  0.00    +0.000 OA
BRANCH  13  15
ATOM     15  C   UNL     1     -12.713   6.405 129.122  0.00  0.00    +0.000 C 
BRANCH  15  16
ATOM     16  C   UNL     1     -12.895   7.618 128.203  0.00  0.00    +0.000 C 
BRANCH  16  17
ATOM     17  C   UNL     1     -11.906   7.559 127.067  0.00  0.00    +0.000 C 
ATOM     18  O   UNL     1     -10.978   8.348 126.920  0.00  0.00    +0.000 OA
BRANCH  17  19
ATOM     19  O   UNL     1     -12.126   6.551 126.198  0.00  0.00    +0.000 OA
ATOM     20  H   UNL     1     -12.800   6.727 125.515  0.00  0.00    +0.000 HD
ENDBRANCH  17  19
ENDBRANCH  16  17
ENDBRANCH  15  16
ENDBRANCH  13  15
ENDBRANCH   1  13
TORSDOF 6
ENDMDL
MODEL 2
REMARK VINA RESULT:      -7.2      8.713     10.584
REMARK  Name = Fenbufen
REMARK  6 active torsions:
REMARK  status: ('A' for Active; 'I' for Inactive)
REMARK    1  A    between atoms: O_1  and  C_2
REMARK    2  A    between atoms: C_2  and  C_4
REMARK    3  A    between atoms: C_4  and  C_5
REMARK    4  A    between atoms: C_5  and  C_6
REMARK    5  A    between atoms: C_6  and  C_8
REMARK    6  A    between atoms: C_11  and  C_14
REMARK                            x       y       z     vdW  Elec       q    Type
REMARK                         _______ _______ _______ _____ _____    ______ ____
ROOT
ATOM      1  C   UNL     1      -8.327   1.788 124.517  0.00  0.00    +0.000 A 
ATOM      2  C   UNL     1      -6.981   2.152 124.434  0.00  0.00    +0.000 A 
ATOM      3  C   UNL     1      -6.524   2.876 123.331  0.00  0.00    +0.000 A 
ATOM      4  C   UNL     1      -7.382   3.185 122.260  0.00  0.00    +0.000 A 
ATOM      5  C   UNL     1      -8.731   2.818 122.361  0.00  0.00    +0.000 A 
ATOM      6  C   UNL     1      -9.203   2.120 123.479  0.00  0.00    +0.000 A 
ENDROOT
BRANCH   4   7
ATOM      7  C   UNL     1      -6.856   3.860 121.068  0.00  0.00    +0.000 A 
ATOM      8  C   UNL     1      -5.548   4.378 121.067  0.00  0.00    +0.000 A 
ATOM      9  C   UNL     1      -5.076   5.132 119.992  0.00  0.00    +0.000 A 
ATOM     10  C   UNL     1      -5.876   5.311 118.867  0.00  0.00    +0.000 A 
ATOM     11  C   UNL     1      -7.158   4.765 118.831  0.00  0.00    +0.000 A 
ATOM     12  C   UNL     1      -7.647   4.049 119.926  0.00  0.00    +0.000 A 
ENDBRANCH   4   7
BRANCH   1  13
ATOM     13  C   UNL     1      -8.823   1.147 125.762  0.00  0.00    +0.000 C 
ATOM     14  O   UNL     1      -8.841   1.801 126.802  0.00  0.00    +0.000 OA
BRANCH  13  15
ATOM     15  C   UNL     1      -9.273  -0.297 125.697  0.00  0.00    +0.000 C 
BRANCH  15  16
ATOM     16  C   UNL     1      -8.276  -1.173 124.931  0.00  0.00    +0.000 C 
BRANCH  16  17
ATOM     17  C   UNL     1      -8.970  -1.865 123.786  0.00  0.00    +0.000 C 
ATOM     18  O   UNL     1      -8.828  -1.557 122.606  0.00  0.00    +0.000 OA
BRANCH  17  19
ATOM     19  O   UNL     1      -9.784  -2.872 124.164  0.00  0.00    +0.000 OA
ATOM     20  H   UNL     1      -9.941  -3.559 123.488  0.00  0.00    +0.000 HD
ENDBRANCH  17  19
ENDBRANCH  16  17
ENDBRANCH  15  16
ENDBRANCH  13  15
ENDBRANCH   1  13
TORSDOF 6
ENDMDL
MODEL 3
REMARK VINA RESULT:      -7.1      3.438      7.010
REMARK  Name = Fenbufen
REMARK  6 active torsions:
REMARK  status: ('A' for Active; 'I' for Inactive)
REMARK    1  A    between atoms: O_1  and  C_2
REMARK    2  A    between atoms: C_2  and  C_4
REMARK    3  A    between atoms: C_4  and  C_5
REMARK    4  A    between atoms: C_5  and  C_6
REMARK    5  A    between atoms: C_6  and  C_8
REMARK    6  A    between atoms: C_11  and  C_14
REMARK                            x       y       z     vdW  Elec       q    Type
REMARK                         _______ _______ _______ _____ _____    ______ ____
ROOT
ATOM      1  C   UNL     1      -8.811   6.107 132.245  0.00  0.00    +0.000 A 
ATOM      2  C   UNL     1     -10.148   5.828 132.540  0.00  0.00    +0.000 A 
ATOM      3  C   UNL     1     -11.150   6.213 131.646  0.00  0.00    +0.000 A 
ATOM      4  C   UNL     1     -10.845   6.944 130.485  0.00  0.00    +0.000 A 
ATOM      5  C   UNL     1      -9.498   7.210 130.200  0.00  0.00    +0.000 A 
ATOM      6  C   UNL     1      -8.485   6.799 131.075  0.00  0.00    +0.000 A 
ENDROOT
BRANCH   4   7
ATOM      7  C   UNL     1     -11.924   7.422 129.612  0.00  0.00    +0.000 A 
ATOM      8  C   UNL     1     -12.743   6.503 128.931  0.00  0.00    +0.000 A 
ATOM      9  C   UNL     1     -13.688   6.937 128.001  0.00  0.00    +0.000 A 
ATOM     10  C   UNL     1     -13.886   8.300 127.799  0.00  0.00    +0.000 A 
ATOM     11  C   UNL     1     -13.117   9.226 128.500  0.00  0.00    +0.000 A 
ATOM     12  C   UNL     1     -12.138   8.790 129.397  0.00  0.00    +0.000 A 
ENDBRANCH   4   7
BRANCH   1  13
ATOM     13  C   UNL     1      -7.752   5.564 133.134  0.00  0.00    +0.000 C 
ATOM     14  O   UNL     1      -6.601   5.975 133.009  0.00  0.00    +0.000 OA
BRANCH  13  15
ATOM     15  C   UNL     1      -8.137   4.513 134.153  0.00  0.00    +0.000 C 
BRANCH  15  16
ATOM     16  C   UNL     1      -7.555   3.139 133.804  0.00  0.00    +0.000 C 
BRANCH  16  17
ATOM     17  C   UNL     1      -8.522   2.371 132.940  0.00  0.00    +0.000 C 
ATOM     18  O   UNL     1      -8.187   1.557 132.085  0.00  0.00    +0.000 OA
BRANCH  17  19
ATOM     19  O   UNL     1      -9.819   2.656 133.179  0.00  0.00    +0.000 OA
ATOM     20  H   UNL     1     -10.259   3.203 132.501  0.00  0.00    +0.000 HD
ENDBRANCH  17  19
ENDBRANCH  16  17
ENDBRANCH  15  16
ENDBRANCH  13  15
ENDBRANCH   1  13
TORSDOF 6
ENDMDL
MODEL 4
REMARK VINA RESULT:      -7.1     10.293     10.854
REMARK  Name = Fenbufen
REMARK  6 active torsions:
REMARK  status: ('A' for Active; 'I' for Inactive)
REMARK    1  A    between atoms: O_1  and  C_2
REMARK    2  A    between atoms: C_2  and  C_4
REMARK    3  A    between atoms: C_4  and  C_5
REMARK    4  A    between atoms: C_5  and  C_6
REMARK    5  A    between atoms: C_6  and  C_8
REMARK    6  A    between atoms: C_11  and  C_14
REMARK                            x       y       z     vdW  Elec       q    Type
REMARK                         _______ _______ _______ _____ _____    ______ ____
ROOT
ATOM      1  C   UNL     1      -8.368  -2.706 126.520  0.00  0.00    +0.000 A 
ATOM      2  C   UNL     1      -9.044  -3.584 127.372  0.00  0.00    +0.000 A 
ATOM      3  C   UNL     1      -8.537  -3.839 128.648  0.00  0.00    +0.000 A 
ATOM      4  C   UNL     1      -7.315  -3.286 129.068  0.00  0.00    +0.000 A 
ATOM      5  C   UNL     1      -6.653  -2.403 128.203  0.00  0.00    +0.000 A 
ATOM      6  C   UNL     1      -7.172  -2.116 126.935  0.00  0.00    +0.000 A 
ENDROOT
BRANCH   4   7
ATOM      7  C   UNL     1      -6.754  -3.647 130.375  0.00  0.00    +0.000 A 
ATOM      8  C   UNL     1      -5.791  -4.666 130.475  0.00  0.00    +0.000 A 
ATOM      9  C   UNL     1      -5.341  -5.110 131.719  0.00  0.00    +0.000 A 
ATOM     10  C   UNL     1      -5.787  -4.484 132.880  0.00  0.00    +0.000 A 
ATOM     11  C   UNL     1      -6.706  -3.440 132.798  0.00  0.00    +0.000 A 
ATOM     12  C   UNL     1      -7.191  -3.027 131.554  0.00  0.00    +0.000 A 
ENDBRANCH   4   7
BRANCH   1  13
ATOM     13  C   UNL     1      -8.997  -2.335 125.226  0.00  0.00    +0.000 C 
ATOM     14  O   UNL     1      -9.753  -1.367 125.187  0.00  0.00    +0.000 OA
BRANCH  13  15
ATOM     15  C   UNL     1      -8.687  -3.179 124.008  0.00  0.00    +0.000 C 
BRANCH  15  16
ATOM     16  C   UNL     1      -8.297  -2.318 122.801  0.00  0.00    +0.000 C 
BRANCH  16  17
ATOM     17  C   UNL     1      -6.985  -1.625 123.063  0.00  0.00    +0.000 C 
ATOM     18  O   UNL     1      -6.854  -0.409 123.159  0.00  0.00    +0.000 OA
BRANCH  17  19
ATOM     19  O   UNL     1      -5.934  -2.464 123.182  0.00  0.00    +0.000 OA
ATOM     20  H   UNL     1      -6.117  -3.397 122.961  0.00  0.00    +0.000 HD
ENDBRANCH  17  19
ENDBRANCH  16  17
ENDBRANCH  15  16
ENDBRANCH  13  15
ENDBRANCH   1  13
TORSDOF 6
ENDMDL
MODEL 5
REMARK VINA RESULT:      -7.0      3.632      7.367
REMARK  Name = Fenbufen
REMARK  6 active torsions:
REMARK  status: ('A' for Active; 'I' for Inactive)
REMARK    1  A    between atoms: O_1  and  C_2
REMARK    2  A    between atoms: C_2  and  C_4
REMARK    3  A    between atoms: C_4  and  C_5
REMARK    4  A    between atoms: C_5  and  C_6
REMARK    5  A    between atoms: C_6  and  C_8
REMARK    6  A    between atoms: C_11  and  C_14
REMARK                            x       y       z     vdW  Elec       q    Type
REMARK                         _______ _______ _______ _____ _____    ______ ____
ROOT
ATOM      1  C   UNL     1      -8.132   5.926 132.833  0.00  0.00    +0.000 A 
ATOM      2  C   UNL     1      -9.502   5.737 133.036  0.00  0.00    +0.000 A 
ATOM      3  C   UNL     1     -10.409   6.123 132.047  0.00  0.00    +0.000 A 
ATOM      4  C   UNL     1      -9.975   6.769 130.877  0.00  0.00    +0.000 A 
ATOM      5  C   UNL     1      -8.597   6.946 130.686  0.00  0.00    +0.000 A 
ATOM      6  C   UNL     1      -7.679   6.532 131.658  0.00  0.00    +0.000 A 
ENDROOT
BRANCH   4   7
ATOM      7  C   UNL     1     -10.955   7.254 129.897  0.00  0.00    +0.000 A 
ATOM      8  C   UNL     1     -12.316   6.932 130.040  0.00  0.00    +0.000 A 
ATOM      9  C   UNL     1     -13.242   7.275 129.054  0.00  0.00    +0.000 A 
ATOM     10  C   UNL     1     -12.834   8.018 127.949  0.00  0.00    +0.000 A 
ATOM     11  C   UNL     1     -11.497   8.387 127.815  0.00  0.00    +0.000 A 
ATOM     12  C   UNL     1     -10.562   8.003 128.780  0.00  0.00    +0.000 A 
ENDBRANCH   4   7
BRANCH   1  13
ATOM     13  C   UNL     1      -7.177   5.378 133.831  0.00  0.00    +0.000 C 
ATOM     14  O   UNL     1      -6.022   5.142 133.482  0.00  0.00    +0.000 OA
BRANCH  13  15
ATOM     15  C   UNL     1      -7.673   5.122 135.238  0.00  0.00    +0.000 C 
BRANCH  15  16
ATOM     16  C   UNL     1      -7.095   6.127 136.239  0.00  0.00    +0.000 C 
BRANCH  16  17
ATOM     17  C   UNL     1      -8.207   6.773 137.025  0.00  0.00    +0.000 C 
ATOM     18  O   UNL     1      -8.384   6.613 138.229  0.00  0.00    +0.000 OA
BRANCH  17  19
ATOM     19  O   UNL     1      -9.020   7.556 136.286  0.00  0.00    +0.000 OA
ATOM     20  H   UNL     1      -9.367   7.147 135.471  0.00  0.00    +0.000 HD
ENDBRANCH  17  19
ENDBRANCH  16  17
ENDBRANCH  15  16
ENDBRANCH  13  15
ENDBRANCH   1  13
TORSDOF 6
ENDMDL
MODEL 6
REMARK VINA RESULT:      -7.0     10.324     10.843
REMARK  Name = Fenbufen
REMARK  6 active torsions:
REMARK  status: ('A' for Active; 'I' for Inactive)
REMARK    1  A    between atoms: O_1  and  C_2
REMARK    2  A    between atoms: C_2  and  C_4
REMARK    3  A    between atoms: C_4  and  C_5
REMARK    4  A    between atoms: C_5  and  C_6
REMARK    5  A    between atoms: C_6  and  C_8
REMARK    6  A    between atoms: C_11  and  C_14
REMARK                            x       y       z     vdW  Elec       q    Type
REMARK                         _______ _______ _______ _____ _____    ______ ____
ROOT
ATOM      1  C   UNL     1      -8.543  -2.481 126.646  0.00  0.00    +0.000 A 
ATOM      2  C   UNL     1      -7.497  -1.750 127.216  0.00  0.00    +0.000 A 
ATOM      3  C   UNL     1      -6.925  -2.179 128.417  0.00  0.00    +0.000 A 
ATOM      4  C   UNL     1      -7.434  -3.294 129.105  0.00  0.00    +0.000 A 
ATOM      5  C   UNL     1      -8.480  -4.019 128.516  0.00  0.00    +0.000 A 
ATOM      6  C   UNL     1      -9.035  -3.615 127.297  0.00  0.00    +0.000 A 
ENDROOT
BRANCH   4   7
ATOM      7  C   UNL     1      -6.881  -3.666 130.413  0.00  0.00    +0.000 A 
ATOM      8  C   UNL     1      -7.310  -3.004 131.576  0.00  0.00    +0.000 A 
ATOM      9  C   UNL     1      -6.706  -3.254 132.809  0.00  0.00    +0.000 A 
ATOM     10  C   UNL     1      -5.719  -4.231 132.911  0.00  0.00    +0.000 A 
ATOM     11  C   UNL     1      -5.314  -4.931 131.776  0.00  0.00    +0.000 A 
ATOM     12  C   UNL     1      -5.887  -4.647 130.534  0.00  0.00    +0.000 A 
ENDBRANCH   4   7
BRANCH   1  13
ATOM     13  C   UNL     1      -9.039  -2.093 125.300  0.00  0.00    +0.000 C 
ATOM     14  O   UNL     1      -9.628  -1.023 125.169  0.00  0.00    +0.000 OA
BRANCH  13  15
ATOM     15  C   UNL     1      -8.805  -3.045 124.146  0.00  0.00    +0.000 C 
BRANCH  15  16
ATOM     16  C   UNL     1      -7.335  -3.465 124.041  0.00  0.00    +0.000 C 
BRANCH  16  17
ATOM     17  C   UNL     1      -6.508  -2.322 123.511  0.00  0.00    +0.000 C 
ATOM     18  O   UNL     1      -6.748  -1.724 122.467  0.00  0.00    +0.000 OA
BRANCH  17  19
ATOM     19  O   UNL     1      -5.452  -2.000 124.287  0.00  0.00    +0.000 OA
ATOM     20  H   UNL     1      -5.663  -1.477 125.083  0.00  0.00    +0.000 HD
ENDBRANCH  17  19
ENDBRANCH  16  17
ENDBRANCH  15  16
ENDBRANCH  13  15
ENDBRANCH   1  13
TORSDOF 6
ENDMDL
MODEL 7
REMARK VINA RESULT:      -6.9      9.747     10.347
REMARK  Name = Fenbufen
REMARK  6 active torsions:
REMARK  status: ('A' for Active; 'I' for Inactive)
REMARK    1  A    between atoms: O_1  and  C_2
REMARK    2  A    between atoms: C_2  and  C_4
REMARK    3  A    between atoms: C_4  and  C_5
REMARK    4  A    between atoms: C_5  and  C_6
REMARK    5  A    between atoms: C_6  and  C_8
REMARK    6  A    between atoms: C_11  and  C_14
REMARK                            x       y       z     vdW  Elec       q    Type
REMARK                         _______ _______ _______ _____ _____    ______ ____
ROOT
ATOM      1  C   UNL     1      -8.413  -2.648 126.395  0.00  0.00    +0.000 A 
ATOM      2  C   UNL     1      -7.220  -2.065 126.829  0.00  0.00    +0.000 A 
ATOM      3  C   UNL     1      -6.688  -2.418 128.072  0.00  0.00    +0.000 A 
ATOM      4  C   UNL     1      -7.370  -3.297 128.930  0.00  0.00    +0.000 A 
ATOM      5  C   UNL     1      -8.562  -3.879 128.476  0.00  0.00    +0.000 A 
ATOM      6  C   UNL     1      -9.085  -3.555 127.218  0.00  0.00    +0.000 A 
ENDROOT
BRANCH   4   7
ATOM      7  C   UNL     1      -6.840  -3.576 130.270  0.00  0.00    +0.000 A 
ATOM      8  C   UNL     1      -5.823  -4.532 130.444  0.00  0.00    +0.000 A 
ATOM      9  C   UNL     1      -5.396  -4.902 131.720  0.00  0.00    +0.000 A 
ATOM     10  C   UNL     1      -5.922  -4.261 132.839  0.00  0.00    +0.000 A 
ATOM     11  C   UNL     1      -6.897  -3.277 132.683  0.00  0.00    +0.000 A 
ATOM     12  C   UNL     1      -7.357  -2.941 131.407  0.00  0.00    +0.000 A 
ENDBRANCH   4   7
BRANCH   1  13
ATOM     13  C   UNL     1      -8.886  -2.371 125.014  0.00  0.00    +0.000 C 
ATOM     14  O   UNL     1      -9.790  -3.058 124.545  0.00  0.00    +0.000 OA
BRANCH  13  15
ATOM     15  C   UNL     1      -8.220  -1.256 124.236  0.00  0.00    +0.000 C 
BRANCH  15  16
ATOM     16  C   UNL     1      -8.903  -1.015 122.885  0.00  0.00    +0.000 C 
BRANCH  16  17
ATOM     17  C   UNL     1      -9.727   0.245 122.940  0.00  0.00    +0.000 C 
ATOM     18  O   UNL     1     -10.882   0.332 122.534  0.00  0.00    +0.000 OA
BRANCH  17  19
ATOM     19  O   UNL     1      -9.083   1.301 123.480  0.00  0.00    +0.000 OA
ATOM     20  H   UNL     1      -8.118   1.196 123.577  0.00  0.00    +0.000 HD
ENDBRANCH  17  19
ENDBRANCH  16  17
ENDBRANCH  15  16
ENDBRANCH  13  15
ENDBRANCH   1  13
TORSDOF 6
ENDMDL
MODEL 8
REMARK VINA RESULT:      -6.6     10.867     12.400
REMARK  Name = Fenbufen
REMARK  6 active torsions:
REMARK  status: ('A' for Active; 'I' for Inactive)
REMARK    1  A    between atoms: O_1  and  C_2
REMARK    2  A    between atoms: C_2  and  C_4
REMARK    3  A    between atoms: C_4  and  C_5
REMARK    4  A    between atoms: C_5  and  C_6
REMARK    5  A    between atoms: C_6  and  C_8
REMARK    6  A    between atoms: C_11  and  C_14
REMARK                            x       y       z     vdW  Elec       q    Type
REMARK                         _______ _______ _______ _____ _____    ______ ____
ROOT
ATOM      1  C   UNL     1      -7.141  -3.215 129.355  0.00  0.00    +0.000 A 
ATOM      2  C   UNL     1      -8.374  -3.666 128.877  0.00  0.00    +0.000 A 
ATOM      3  C   UNL     1      -8.731  -3.429 127.547  0.00  0.00    +0.000 A 
ATOM      4  C   UNL     1      -7.903  -2.676 126.697  0.00  0.00    +0.000 A 
ATOM      5  C   UNL     1      -6.666  -2.236 127.190  0.00  0.00    +0.000 A 
ATOM      6  C   UNL     1      -6.287  -2.499 128.512  0.00  0.00    +0.000 A 
ENDROOT
BRANCH   4   7
ATOM      7  C   UNL     1      -8.344  -2.356 125.334  0.00  0.00    +0.000 A 
ATOM      8  C   UNL     1      -9.103  -3.285 124.600  0.00  0.00    +0.000 A 
ATOM      9  C   UNL     1      -9.424  -3.052 123.262  0.00  0.00    +0.000 A 
ATOM     10  C   UNL     1      -9.060  -1.850 122.662  0.00  0.00    +0.000 A 
ATOM     11  C   UNL     1      -8.348  -0.897 123.389  0.00  0.00    +0.000 A 
ATOM     12  C   UNL     1      -7.988  -1.151 124.715  0.00  0.00    +0.000 A 
ENDBRANCH   4   7
BRANCH   1  13
ATOM     13  C   UNL     1      -6.718  -3.602 130.726  0.00  0.00    +0.000 C 
ATOM     14  O   UNL     1      -7.186  -2.997 131.687  0.00  0.00    +0.000 OA
BRANCH  13  15
ATOM     15  C   UNL     1      -5.713  -4.724 130.878  0.00  0.00    +0.000 C 
BRANCH  15  16
ATOM     16  C   UNL     1      -4.663  -4.409 131.949  0.00  0.00    +0.000 C 
BRANCH  16  17
ATOM     17  C   UNL     1      -3.602  -3.501 131.380  0.00  0.00    +0.000 C 
ATOM     18  O   UNL     1      -3.178  -3.570 130.231  0.00  0.00    +0.000 OA
BRANCH  17  19
ATOM     19  O   UNL     1      -3.138  -2.584 132.254  0.00  0.00    +0.000 OA
ATOM     20  H   UNL     1      -2.168  -2.563 132.362  0.00  0.00    +0.000 HD
ENDBRANCH  17  19
ENDBRANCH  16  17
ENDBRANCH  15  16
ENDBRANCH  13  15
ENDBRANCH   1  13
TORSDOF 6
ENDMDL
MODEL 9
REMARK VINA RESULT:      -6.5      1.739      3.407
REMARK  Name = Fenbufen
REMARK  6 active torsions:
REMARK  status: ('A' for Active; 'I' for Inactive)
REMARK    1  A    between atoms: O_1  and  C_2
REMARK    2  A    between atoms: C_2  and  C_4
REMARK    3  A    between atoms: C_4  and  C_5
REMARK    4  A    between atoms: C_5  and  C_6
REMARK    5  A    between atoms: C_6  and  C_8
REMARK    6  A    between atoms: C_11  and  C_14
REMARK                            x       y       z     vdW  Elec       q    Type
REMARK                         _______ _______ _______ _____ _____    ______ ____
ROOT
ATOM      1  C   UNL     1      -7.944   6.412 131.925  0.00  0.00    +0.000 A 
ATOM      2  C   UNL     1      -7.161   7.047 130.958  0.00  0.00    +0.000 A 
ATOM      3  C   UNL     1      -5.771   6.916 130.996  0.00  0.00    +0.000 A 
ATOM      4  C   UNL     1      -5.136   6.216 132.037  0.00  0.00    +0.000 A 
ATOM      5  C   UNL     1      -5.937   5.581 132.997  0.00  0.00    +0.000 A 
ATOM      6  C   UNL     1      -7.332   5.680 132.946  0.00  0.00    +0.000 A 
ENDROOT
BRANCH   4   7
ATOM      7  C   UNL     1      -3.671   6.176 132.110  0.00  0.00    +0.000 A 
ATOM      8  C   UNL     1      -2.999   4.943 132.171  0.00  0.00    +0.000 A 
ATOM      9  C   UNL     1      -1.618   4.886 132.368  0.00  0.00    +0.000 A 
ATOM     10  C   UNL     1      -0.878   6.064 132.425  0.00  0.00    +0.000 A 
ATOM     11  C   UNL     1      -1.522   7.296 132.318  0.00  0.00    +0.000 A 
ATOM     12  C   UNL     1      -2.910   7.352 132.167  0.00  0.00    +0.000 A 
ENDBRANCH   4   7
BRANCH   1  13
ATOM     13  C   UNL     1      -9.423   6.442 131.784  0.00  0.00    +0.000 C 
ATOM     14  O   UNL     1     -10.120   6.177 132.761  0.00  0.00    +0.000 OA
BRANCH  13  15
ATOM     15  C   UNL     1     -10.010   6.789 130.432  0.00  0.00    +0.000 C 
BRANCH  15  16
ATOM     16  C   UNL     1     -11.242   5.937 130.109  0.00  0.00    +0.000 C 
BRANCH  16  17
ATOM     17  C   UNL     1     -12.495   6.756 130.279  0.00  0.00    +0.000 C 
ATOM     18  O   UNL     1     -13.159   7.202 129.348  0.00  0.00    +0.000 OA
BRANCH  17  19
ATOM     19  O   UNL     1     -12.842   6.972 131.564  0.00  0.00    +0.000 OA
ATOM     20  H   UNL     1     -12.132   6.829 132.218  0.00  0.00    +0.000 HD
ENDBRANCH  17  19
ENDBRANCH  16  17
ENDBRANCH  15  16
ENDBRANCH  13  15
ENDBRANCH   1  13
TORSDOF 6
ENDMDL
