MODEL 1
REMARK VINA RESULT:      -6.2      0.000      0.000
REMARK  Name = Fenfluramine
REMARK  7 active torsions:
REMARK  status: ('A' for Active; 'I' for Inactive)
REMARK    1  A    between atoms: C_1  and  C_2
REMARK    2  A    between atoms: C_2  and  N_3
REMARK    3  A    between atoms: N_3  and  C_4
REMARK    4  A    between atoms: C_4  and  C_5
REMARK    5  A    between atoms: C_4  and  C_6
REMARK    6  A    between atoms: C_6  and  C_7
REMARK    7  A    between atoms: C_11  and  C_13
REMARK                            x       y       z     vdW  Elec       q    Type
REMARK                         _______ _______ _______ _____ _____    ______ ____
ROOT
ATOM      1  C   UNL     1     -10.153   6.452 131.381  0.00  0.00    +0.000 A 
ATOM      2  C   UNL     1      -9.083   6.995 130.660  0.00  0.00    +0.000 A 
ATOM      3  C   UNL     1      -7.770   6.798 131.107  0.00  0.00    +0.000 A 
ATOM      4  C   UNL     1      -7.508   6.029 132.245  0.00  0.00    +0.000 A 
ATOM      5  C   UNL     1      -8.566   5.507 132.990  0.00  0.00    +0.000 A 
ATOM      6  C   UNL     1      -9.861   5.837 132.602  0.00  0.00    +0.000 A 
ENDROOT
BRANCH   5   7
ATOM      7  C   UNL     1      -8.369   4.553 134.140  0.00  0.00    +0.000 C 
ATOM      8  F   UNL     1      -9.439   3.732 134.331  0.00  0.00    +0.000 F 
ATOM      9  F   UNL     1      -7.289   3.746 133.980  0.00  0.00    +0.000 F 
ATOM     10  F   UNL     1      -8.184   5.186 135.339  0.00  0.00    +0.000 F 
ENDBRANCH   5   7
BRANCH   1  11
ATOM     11  C   UNL     1     -11.558   6.425 130.796  0.00  0.00    +0.000 C 
BRANCH  11  12
ATOM     12  C   UNL     1     -11.739   7.283 129.508  0.00  0.00    +0.000 C 
ATOM     13  C   UNL     1     -12.610   8.539 129.760  0.00  0.00    +0.000 C 
BRANCH  12  14
ATOM     14  N   UNL     1     -12.353   6.499 128.419  0.00  0.00    +0.000 NA
ATOM     15  H   UNL     1     -11.840   5.627 128.290  0.00  0.00    +0.000 HD
BRANCH  14  17
ATOM     16  C   UNL     1     -10.928   7.455 126.673  0.00  0.00    +0.000 C 
ATOM     17  C   UNL     1     -12.345   7.255 127.163  0.00  0.00    +0.000 C 
ENDBRANCH  14  17
ENDBRANCH  12  14
ENDBRANCH  11  12
ENDBRANCH   1  11
TORSDOF 5
ENDMDL
MODEL 2
REMARK VINA RESULT:      -6.2      4.173      6.281
REMARK  Name = Fenfluramine
REMARK  7 active torsions:
REMARK  status: ('A' for Active; 'I' for Inactive)
REMARK    1  A    between atoms: C_1  and  C_2
REMARK    2  A    between atoms: C_2  and  N_3
REMARK    3  A    between atoms: N_3  and  C_4
REMARK    4  A    between atoms: C_4  and  C_5
REMARK    5  A    between atoms: C_4  and  C_6
REMARK    6  A    between atoms: C_6  and  C_7
REMARK    7  A    between atoms: C_11  and  C_13
REMARK                            x       y       z     vdW  Elec       q    Type
REMARK                         _______ _______ _______ _____ _____    ______ ____
ROOT
ATOM      1  C   UNL     1     -10.202   6.401 131.413  0.00  0.00    +0.000 A 
ATOM      2  C   UNL     1     -11.460   6.453 132.026  0.00  0.00    +0.000 A 
ATOM      3  C   UNL     1     -12.517   7.120 131.393  0.00  0.00    +0.000 A 
ATOM      4  C   UNL     1     -12.345   7.702 130.134  0.00  0.00    +0.000 A 
ATOM      5  C   UNL     1     -11.089   7.684 129.525  0.00  0.00    +0.000 A 
ATOM      6  C   UNL     1     -10.026   7.139 130.239  0.00  0.00    +0.000 A 
ENDROOT
BRANCH   5   7
ATOM      7  C   UNL     1     -10.854   8.158 128.114  0.00  0.00    +0.000 C 
ATOM      8  F   UNL     1      -9.964   9.188 128.047  0.00  0.00    +0.000 F 
ATOM      9  F   UNL     1     -10.374   7.182 127.300  0.00  0.00    +0.000 F 
ATOM     10  F   UNL     1     -11.987   8.624 127.506  0.00  0.00    +0.000 F 
ENDBRANCH   5   7
BRANCH   1  11
ATOM     11  C   UNL     1      -9.112   5.478 131.940  0.00  0.00    +0.000 C 
BRANCH  11  12
ATOM     12  C   UNL     1      -9.185   5.200 133.472  0.00  0.00    +0.000 C 
ATOM     13  C   UNL     1      -7.794   5.288 134.148  0.00  0.00    +0.000 C 
BRANCH  12  14
ATOM     14  N   UNL     1      -9.756   3.869 133.752  0.00  0.00    +0.000 NA
ATOM     15  H   UNL     1      -9.819   3.726 134.760  0.00  0.00    +0.000 HD
BRANCH  14  17
ATOM     16  C   UNL     1      -9.761   1.910 132.283  0.00  0.00    +0.000 C 
ATOM     17  C   UNL     1      -8.927   2.811 133.166  0.00  0.00    +0.000 C 
ENDBRANCH  14  17
ENDBRANCH  12  14
ENDBRANCH  11  12
ENDBRANCH   1  11
TORSDOF 5
ENDMDL
MODEL 3
REMARK VINA RESULT:      -6.1     10.360     11.481
REMARK  Name = Fenfluramine
REMARK  7 active torsions:
REMARK  status: ('A' for Active; 'I' for Inactive)
REMARK    1  A    between atoms: C_1  and  C_2
REMARK    2  A    between atoms: C_2  and  N_3
REMARK    3  A    between atoms: N_3  and  C_4
REMARK    4  A    between atoms: C_4  and  C_5
REMARK    5  A    between atoms: C_4  and  C_6
REMARK    6  A    between atoms: C_6  and  C_7
REMARK    7  A    between atoms: C_11  and  C_13
REMARK                            x       y       z     vdW  Elec       q    Type
REMARK                         _______ _______ _______ _____ _____    ______ ____
ROOT
ATOM      1  C   UNL     1      -8.849  -1.856 123.041  0.00  0.00    +0.000 A 
ATOM      2  C   UNL     1      -9.582  -2.870 123.669  0.00  0.00    +0.000 A 
ATOM      3  C   UNL     1      -8.913  -3.884 124.367  0.00  0.00    +0.000 A 
ATOM      4  C   UNL     1      -7.520  -3.877 124.482  0.00  0.00    +0.000 A 
ATOM      5  C   UNL     1      -6.775  -2.889 123.835  0.00  0.00    +0.000 A 
ATOM      6  C   UNL     1      -7.456  -1.978 123.034  0.00  0.00    +0.000 A 
ENDROOT
BRANCH   5   7
ATOM      7  C   UNL     1      -5.289  -2.726 124.025  0.00  0.00    +0.000 C 
ATOM      8  F   UNL     1      -4.754  -3.681 124.837  0.00  0.00    +0.000 F 
ATOM      9  F   UNL     1      -4.596  -2.781 122.859  0.00  0.00    +0.000 F 
ATOM     10  F   UNL     1      -4.948  -1.534 124.603  0.00  0.00    +0.000 F 
ENDBRANCH   5   7
BRANCH   1  11
ATOM     11  C   UNL     1      -9.538  -0.611 122.499  0.00  0.00    +0.000 C 
BRANCH  11  12
ATOM     12  C   UNL     1      -9.559   0.597 123.483  0.00  0.00    +0.000 C 
ATOM     13  C   UNL     1      -8.239   1.406 123.443  0.00  0.00    +0.000 C 
BRANCH  12  14
ATOM     14  N   UNL     1      -9.795   0.158 124.871  0.00  0.00    +0.000 NA
ATOM     15  H   UNL     1     -10.655   0.577 125.224  0.00  0.00    +0.000 HD
BRANCH  14  17
ATOM     16  C   UNL     1      -8.192  -0.642 126.540  0.00  0.00    +0.000 C 
ATOM     17  C   UNL     1      -8.679   0.545 125.739  0.00  0.00    +0.000 C 
ENDBRANCH  14  17
ENDBRANCH  12  14
ENDBRANCH  11  12
ENDBRANCH   1  11
TORSDOF 5
ENDMDL
MODEL 4
REMARK VINA RESULT:      -6.1      4.359      6.443
REMARK  Name = Fenfluramine
REMARK  7 active torsions:
REMARK  status: ('A' for Active; 'I' for Inactive)
REMARK    1  A    between atoms: C_1  and  C_2
REMARK    2  A    between atoms: C_2  and  N_3
REMARK    3  A    between atoms: N_3  and  C_4
REMARK    4  A    between atoms: C_4  and  C_5
REMARK    5  A    between atoms: C_4  and  C_6
REMARK    6  A    between atoms: C_6  and  C_7
REMARK    7  A    between atoms: C_11  and  C_13
REMARK                            x       y       z     vdW  Elec       q    Type
REMARK                         _______ _______ _______ _____ _____    ______ ____
ROOT
ATOM      1  C   UNL     1     -10.116   6.613 130.803  0.00  0.00    +0.000 A 
ATOM      2  C   UNL     1     -11.053   6.427 131.826  0.00  0.00    +0.000 A 
ATOM      3  C   UNL     1     -12.352   6.932 131.681  0.00  0.00    +0.000 A 
ATOM      4  C   UNL     1     -12.741   7.585 130.508  0.00  0.00    +0.000 A 
ATOM      5  C   UNL     1     -11.808   7.804 129.492  0.00  0.00    +0.000 A 
ATOM      6  C   UNL     1     -10.491   7.416 129.722  0.00  0.00    +0.000 A 
ENDROOT
BRANCH   5   7
ATOM      7  C   UNL     1     -12.179   8.367 128.144  0.00  0.00    +0.000 C 
ATOM      8  F   UNL     1     -12.984   9.462 128.236  0.00  0.00    +0.000 F 
ATOM      9  F   UNL     1     -11.099   8.744 127.413  0.00  0.00    +0.000 F 
ATOM     10  F   UNL     1     -12.866   7.481 127.362  0.00  0.00    +0.000 F 
ENDBRANCH   5   7
BRANCH   1  11
ATOM     11  C   UNL     1      -8.789   5.866 130.812  0.00  0.00    +0.000 C 
BRANCH  11  12
ATOM     12  C   UNL     1      -7.753   6.401 131.846  0.00  0.00    +0.000 C 
ATOM     13  C   UNL     1      -6.414   6.802 131.177  0.00  0.00    +0.000 C 
BRANCH  12  14
ATOM     14  N   UNL     1      -7.471   5.401 132.893  0.00  0.00    +0.000 NA
ATOM     15  H   UNL     1      -6.468   5.221 132.936  0.00  0.00    +0.000 HD
BRANCH  14  17
ATOM     16  C   UNL     1      -9.006   3.732 133.814  0.00  0.00    +0.000 C 
ATOM     17  C   UNL     1      -8.176   4.145 132.620  0.00  0.00    +0.000 C 
ENDBRANCH  14  17
ENDBRANCH  12  14
ENDBRANCH  11  12
ENDBRANCH   1  11
TORSDOF 5
ENDMDL
MODEL 5
REMARK VINA RESULT:      -6.1     10.536     11.502
REMARK  Name = Fenfluramine
REMARK  7 active torsions:
REMARK  status: ('A' for Active; 'I' for Inactive)
REMARK    1  A    between atoms: C_1  and  C_2
REMARK    2  A    between atoms: C_2  and  N_3
REMARK    3  A    between atoms: N_3  and  C_4
REMARK    4  A    between atoms: C_4  and  C_5
REMARK    5  A    between atoms: C_4  and  C_6
REMARK    6  A    between atoms: C_6  and  C_7
REMARK    7  A    between atoms: C_11  and  C_13
REMARK                            x       y       z     vdW  Elec       q    Type
REMARK                         _______ _______ _______ _____ _____    ______ ____
ROOT
ATOM      1  C   UNL     1      -7.139  -1.091 124.266  0.00  0.00    +0.000 A 
ATOM      2  C   UNL     1      -8.332  -1.770 124.540  0.00  0.00    +0.000 A 
ATOM      3  C   UNL     1      -8.350  -3.172 124.548  0.00  0.00    +0.000 A 
ATOM      4  C   UNL     1      -7.181  -3.904 124.326  0.00  0.00    +0.000 A 
ATOM      5  C   UNL     1      -5.991  -3.240 124.021  0.00  0.00    +0.000 A 
ATOM      6  C   UNL     1      -6.034  -1.856 123.882  0.00  0.00    +0.000 A 
ENDROOT
BRANCH   5   7
ATOM      7  C   UNL     1      -4.662  -3.944 123.912  0.00  0.00    +0.000 C 
ATOM      8  F   UNL     1      -4.758  -5.154 123.293  0.00  0.00    +0.000 F 
ATOM      9  F   UNL     1      -3.740  -3.229 123.218  0.00  0.00    +0.000 F 
ATOM     10  F   UNL     1      -4.091  -4.207 125.126  0.00  0.00    +0.000 F 
ENDBRANCH   5   7
BRANCH   1  11
ATOM     11  C   UNL     1      -7.022   0.409 124.500  0.00  0.00    +0.000 C 
BRANCH  11  12
ATOM     12  C   UNL     1      -7.803   1.286 123.476  0.00  0.00    +0.000 C 
ATOM     13  C   UNL     1      -6.879   2.288 122.739  0.00  0.00    +0.000 C 
BRANCH  12  14
ATOM     14  N   UNL     1      -8.885   2.045 124.131  0.00  0.00    +0.000 NA
ATOM     15  H   UNL     1      -8.707   2.104 125.134  0.00  0.00    +0.000 HD
BRANCH  14  17
ATOM     16  C   UNL     1     -10.223   0.738 122.551  0.00  0.00    +0.000 C 
ATOM     17  C   UNL     1     -10.184   1.400 123.910  0.00  0.00    +0.000 C 
ENDBRANCH  14  17
ENDBRANCH  12  14
ENDBRANCH  11  12
ENDBRANCH   1  11
TORSDOF 5
ENDMDL
MODEL 6
REMARK VINA RESULT:      -6.0     10.623     11.724
REMARK  Name = Fenfluramine
REMARK  7 active torsions:
REMARK  status: ('A' for Active; 'I' for Inactive)
REMARK    1  A    between atoms: C_1  and  C_2
REMARK    2  A    between atoms: C_2  and  N_3
REMARK    3  A    between atoms: N_3  and  C_4
REMARK    4  A    between atoms: C_4  and  C_5
REMARK    5  A    between atoms: C_4  and  C_6
REMARK    6  A    between atoms: C_6  and  C_7
REMARK    7  A    between atoms: C_11  and  C_13
REMARK                            x       y       z     vdW  Elec       q    Type
REMARK                         _______ _______ _______ _____ _____    ______ ____
ROOT
ATOM      1  C   UNL     1      -8.404  -3.057 126.354  0.00  0.00    +0.000 A 
ATOM      2  C   UNL     1      -9.526  -3.190 125.528  0.00  0.00    +0.000 A 
ATOM      3  C   UNL     1      -9.376  -3.140 124.136  0.00  0.00    +0.000 A 
ATOM      4  C   UNL     1      -8.113  -2.999 123.555  0.00  0.00    +0.000 A 
ATOM      5  C   UNL     1      -6.989  -2.835 124.367  0.00  0.00    +0.000 A 
ATOM      6  C   UNL     1      -7.186  -2.748 125.742  0.00  0.00    +0.000 A 
ENDROOT
BRANCH   5   7
ATOM      7  C   UNL     1      -5.582  -2.822 123.829  0.00  0.00    +0.000 C 
ATOM      8  F   UNL     1      -4.797  -1.885 124.431  0.00  0.00    +0.000 F 
ATOM      9  F   UNL     1      -4.945  -4.012 123.981  0.00  0.00    +0.000 F 
ATOM     10  F   UNL     1      -5.519  -2.536 122.493  0.00  0.00    +0.000 F 
ENDBRANCH   5   7
BRANCH   1  11
ATOM     11  C   UNL     1      -8.488  -3.360 127.844  0.00  0.00    +0.000 C 
BRANCH  11  12
ATOM     12  C   UNL     1      -7.333  -2.752 128.694  0.00  0.00    +0.000 C 
ATOM     13  C   UNL     1      -6.884  -3.701 129.833  0.00  0.00    +0.000 C 
BRANCH  12  14
ATOM     14  N   UNL     1      -7.724  -1.461 129.290  0.00  0.00    +0.000 NA
ATOM     15  H   UNL     1      -8.726  -1.315 129.171  0.00  0.00    +0.000 HD
BRANCH  14  17
ATOM     16  C   UNL     1      -7.905   0.410 127.722  0.00  0.00    +0.000 C 
ATOM     17  C   UNL     1      -6.998  -0.353 128.660  0.00  0.00    +0.000 C 
ENDBRANCH  14  17
ENDBRANCH  12  14
ENDBRANCH  11  12
ENDBRANCH   1  11
TORSDOF 5
ENDMDL
MODEL 7
REMARK VINA RESULT:      -5.9      4.293      6.222
REMARK  Name = Fenfluramine
REMARK  7 active torsions:
REMARK  status: ('A' for Active; 'I' for Inactive)
REMARK    1  A    between atoms: C_1  and  C_2
REMARK    2  A    between atoms: C_2  and  N_3
REMARK    3  A    between atoms: N_3  and  C_4
REMARK    4  A    between atoms: C_4  and  C_5
REMARK    5  A    between atoms: C_4  and  C_6
REMARK    6  A    between atoms: C_6  and  C_7
REMARK    7  A    between atoms: C_11  and  C_13
REMARK                            x       y       z     vdW  Elec       q    Type
REMARK                         _______ _______ _______ _____ _____    ______ ____
ROOT
ATOM      1  C   UNL     1      -9.653   6.824 131.057  0.00  0.00    +0.000 A 
ATOM      2  C   UNL     1     -10.667   6.318 131.880  0.00  0.00    +0.000 A 
ATOM      3  C   UNL     1     -12.008   6.463 131.502  0.00  0.00    +0.000 A 
ATOM      4  C   UNL     1     -12.350   7.072 130.291  0.00  0.00    +0.000 A 
ATOM      5  C   UNL     1     -11.351   7.608 129.476  0.00  0.00    +0.000 A 
ATOM      6  C   UNL     1     -10.041   7.574 129.944  0.00  0.00    +0.000 A 
ENDROOT
BRANCH   5   7
ATOM      7  C   UNL     1     -11.620   8.149 128.096  0.00  0.00    +0.000 C 
ATOM      8  F   UNL     1     -12.030   7.185 127.224  0.00  0.00    +0.000 F 
ATOM      9  F   UNL     1     -12.578   9.112 128.081  0.00  0.00    +0.000 F 
ATOM     10  F   UNL     1     -10.518   8.713 127.515  0.00  0.00    +0.000 F 
ENDBRANCH   5   7
BRANCH   1  11
ATOM     11  C   UNL     1      -8.194   6.463 131.301  0.00  0.00    +0.000 C 
BRANCH  11  12
ATOM     12  C   UNL     1      -7.595   5.459 130.272  0.00  0.00    +0.000 C 
ATOM     13  C   UNL     1      -7.705   3.991 130.755  0.00  0.00    +0.000 C 
BRANCH  12  14
ATOM     14  N   UNL     1      -6.176   5.753 129.994  0.00  0.00    +0.000 NA
ATOM     15  H   UNL     1      -5.633   4.891 130.024  0.00  0.00    +0.000 HD
BRANCH  14  17
ATOM     16  C   UNL     1      -4.571   7.567 130.347  0.00  0.00    +0.000 C 
ATOM     17  C   UNL     1      -5.636   6.698 130.976  0.00  0.00    +0.000 C 
ENDBRANCH  14  17
ENDBRANCH  12  14
ENDBRANCH  11  12
ENDBRANCH   1  11
TORSDOF 5
ENDMDL
MODEL 8
REMARK VINA RESULT:      -5.9     10.448     11.552
REMARK  Name = Fenfluramine
REMARK  7 active torsions:
REMARK  status: ('A' for Active; 'I' for Inactive)
REMARK    1  A    between atoms: C_1  and  C_2
REMARK    2  A    between atoms: C_2  and  N_3
REMARK    3  A    between atoms: N_3  and  C_4
REMARK    4  A    between atoms: C_4  and  C_5
REMARK    5  A    between atoms: C_4  and  C_6
REMARK    6  A    between atoms: C_6  and  C_7
REMARK    7  A    between atoms: C_11  and  C_13
REMARK                            x       y       z     vdW  Elec       q    Type
REMARK                         _______ _______ _______ _____ _____    ______ ____
ROOT
ATOM      1  C   UNL     1      -7.209  -1.093 123.388  0.00  0.00    +0.000 A 
ATOM      2  C   UNL     1      -8.402  -1.653 123.858  0.00  0.00    +0.000 A 
ATOM      3  C   UNL     1      -8.421  -2.984 124.298  0.00  0.00    +0.000 A 
ATOM      4  C   UNL     1      -7.252  -3.750 124.312  0.00  0.00    +0.000 A 
ATOM      5  C   UNL     1      -6.062  -3.214 123.818  0.00  0.00    +0.000 A 
ATOM      6  C   UNL     1      -6.105  -1.940 123.258  0.00  0.00    +0.000 A 
ENDROOT
BRANCH   5   7
ATOM      7  C   UNL     1      -4.735  -3.918 123.930  0.00  0.00    +0.000 C 
ATOM      8  F   UNL     1      -3.747  -3.292 123.231  0.00  0.00    +0.000 F 
ATOM      9  F   UNL     1      -4.295  -4.019 125.211  0.00  0.00    +0.000 F 
ATOM     10  F   UNL     1      -4.761  -5.197 123.446  0.00  0.00    +0.000 F 
ENDBRANCH   5   7
BRANCH   1  11
ATOM     11  C   UNL     1      -7.089   0.406 123.147  0.00  0.00    +0.000 C 
BRANCH  11  12
ATOM     12  C   UNL     1      -7.988   1.283 124.070  0.00  0.00    +0.000 C 
ATOM     13  C   UNL     1      -9.171   1.920 123.299  0.00  0.00    +0.000 C 
BRANCH  12  14
ATOM     14  N   UNL     1      -7.212   2.363 124.709  0.00  0.00    +0.000 NA
ATOM     15  H   UNL     1      -7.846   3.014 125.174  0.00  0.00    +0.000 HD
BRANCH  14  17
ATOM     16  C   UNL     1      -5.922   4.400 124.292  0.00  0.00    +0.000 C 
ATOM     17  C   UNL     1      -6.414   3.091 123.718  0.00  0.00    +0.000 C 
ENDBRANCH  14  17
ENDBRANCH  12  14
ENDBRANCH  11  12
ENDBRANCH   1  11
TORSDOF 5
ENDMDL
MODEL 9
REMARK VINA RESULT:      -5.8      9.436     11.064
REMARK  Name = Fenfluramine
REMARK  7 active torsions:
REMARK  status: ('A' for Active; 'I' for Inactive)
REMARK    1  A    between atoms: C_1  and  C_2
REMARK    2  A    between atoms: C_2  and  N_3
REMARK    3  A    between atoms: N_3  and  C_4
REMARK    4  A    between atoms: C_4  and  C_5
REMARK    5  A    between atoms: C_4  and  C_6
REMARK    6  A    between atoms: C_6  and  C_7
REMARK    7  A    between atoms: C_11  and  C_13
REMARK                            x       y       z     vdW  Elec       q    Type
REMARK                         _______ _______ _______ _____ _____    ______ ____
ROOT
ATOM      1  C   UNL     1      -7.582   2.374 123.482  0.00  0.00    +0.000 A 
ATOM      2  C   UNL     1      -7.493   3.025 124.718  0.00  0.00    +0.000 A 
ATOM      3  C   UNL     1      -6.575   4.070 124.891  0.00  0.00    +0.000 A 
ATOM      4  C   UNL     1      -5.771   4.500 123.831  0.00  0.00    +0.000 A 
ATOM      5  C   UNL     1      -5.827   3.839 122.603  0.00  0.00    +0.000 A 
ATOM      6  C   UNL     1      -6.645   2.717 122.503  0.00  0.00    +0.000 A 
ENDROOT
BRANCH   5   7
ATOM      7  C   UNL     1      -5.105   4.327 121.374  0.00  0.00    +0.000 C 
ATOM      8  F   UNL     1      -5.942   4.907 120.468  0.00  0.00    +0.000 F 
ATOM      9  F   UNL     1      -4.145   5.246 121.653  0.00  0.00    +0.000 F 
ATOM     10  F   UNL     1      -4.473   3.327 120.688  0.00  0.00    +0.000 F 
ENDBRANCH   5   7
BRANCH   1  11
ATOM     11  C   UNL     1      -8.731   1.420 123.181  0.00  0.00    +0.000 C 
BRANCH  11  12
ATOM     12  C   UNL     1      -8.545  -0.017 123.753  0.00  0.00    +0.000 C 
ATOM     13  C   UNL     1      -7.102  -0.545 123.551  0.00  0.00    +0.000 C 
BRANCH  12  14
ATOM     14  N   UNL     1      -9.482  -0.971 123.131  0.00  0.00    +0.000 NA
ATOM     15  H   UNL     1     -10.288  -1.110 123.741  0.00  0.00    +0.000 HD
BRANCH  14  17
ATOM     16  C   UNL     1      -9.525  -3.359 123.665  0.00  0.00    +0.000 C 
ATOM     17  C   UNL     1      -8.831  -2.262 122.890  0.00  0.00    +0.000 C 
ENDBRANCH  14  17
ENDBRANCH  12  14
ENDBRANCH  11  12
ENDBRANCH   1  11
TORSDOF 5
ENDMDL
