MODEL 1
REMARK VINA RESULT:      -7.3      0.000      0.000
REMARK  Name = Fenoterol
REMARK  11 active torsions:
REMARK  status: ('A' for Active; 'I' for Inactive)
REMARK    1  A    between atoms: C_1  and  C_2
REMARK    2  A    between atoms: C_2  and  C_3
REMARK    3  A    between atoms: C_2  and  N_11
REMARK    4  A    between atoms: C_3  and  C_4
REMARK    5  A    between atoms: C_7  and  O_8
REMARK    6  A    between atoms: N_11  and  C_12
REMARK    7  A    between atoms: C_12  and  C_13
REMARK    8  A    between atoms: C_13  and  O_14
REMARK    9  A    between atoms: C_13  and  C_15
REMARK   10  A    between atoms: C_17  and  O_18
REMARK   11  A    between atoms: C_20  and  O_21
REMARK                            x       y       z     vdW  Elec       q    Type
REMARK                         _______ _______ _______ _____ _____    ______ ____
ROOT
ATOM      1  C   UNL     1      -9.036   2.414 123.263  0.00  0.00    +0.000 C 
ENDROOT
BRANCH   1   2
ATOM      2  N   UNL     1      -8.341   3.569 123.849  0.00  0.00    +0.000 NA
ATOM      3  H   UNL     1      -8.733   4.426 123.453  0.00  0.00    +0.000 HD
BRANCH   2   5
ATOM      4  C   UNL     1      -6.234   2.788 124.806  0.00  0.00    +0.000 C 
ATOM      5  C   UNL     1      -6.889   3.515 123.626  0.00  0.00    +0.000 C 
BRANCH   5   6
ATOM      6  C   UNL     1      -6.550   2.801 122.297  0.00  0.00    +0.000 C 
BRANCH   6   7
ATOM      7  C   UNL     1      -6.362   3.741 121.139  0.00  0.00    +0.000 A 
ATOM      8  C   UNL     1      -7.337   3.827 120.136  0.00  0.00    +0.000 A 
ATOM      9  C   UNL     1      -7.157   4.673 119.047  0.00  0.00    +0.000 A 
ATOM     10  C   UNL     1      -5.985   5.418 118.961  0.00  0.00    +0.000 A 
ATOM     11  C   UNL     1      -5.007   5.338 119.942  0.00  0.00    +0.000 A 
ATOM     12  C   UNL     1      -5.192   4.502 121.038  0.00  0.00    +0.000 A 
BRANCH  10  13
ATOM     13  O   UNL     1      -5.758   6.247 117.902  0.00  0.00    +0.000 OA
ATOM     14  H   UNL     1      -5.676   7.154 118.237  0.00  0.00    +0.000 HD
ENDBRANCH  10  13
ENDBRANCH   6   7
ENDBRANCH   5   6
ENDBRANCH   2   5
ENDBRANCH   1   2
BRANCH   1  15
ATOM     15  C   UNL     1      -9.718   1.552 124.340  0.00  0.00    +0.000 C 
BRANCH  15  16
ATOM     16  C   UNL     1      -9.010   0.218 124.451  0.00  0.00    +0.000 A 
ATOM     17  C   UNL     1      -8.201  -0.283 123.417  0.00  0.00    +0.000 A 
ATOM     18  C   UNL     1      -7.552  -1.507 123.573  0.00  0.00    +0.000 A 
ATOM     19  C   UNL     1      -7.681  -2.243 124.743  0.00  0.00    +0.000 A 
ATOM     20  C   UNL     1      -8.453  -1.731 125.779  0.00  0.00    +0.000 A 
ATOM     21  C   UNL     1      -9.108  -0.512 125.646  0.00  0.00    +0.000 A 
BRANCH  18  22
ATOM     22  O   UNL     1      -6.765  -2.020 122.584  0.00  0.00    +0.000 OA
ATOM     23  H   UNL     1      -6.022  -2.498 122.985  0.00  0.00    +0.000 HD
ENDBRANCH  18  22
BRANCH  20  24
ATOM     24  O   UNL     1      -8.600  -2.400 126.958  0.00  0.00    +0.000 OA
ATOM     25  H   UNL     1      -7.720  -2.672 127.269  0.00  0.00    +0.000 HD
ENDBRANCH  20  24
ENDBRANCH  15  16
BRANCH  15  26
ATOM     26  O   UNL     1     -11.103   1.367 124.038  0.00  0.00    +0.000 OA
ATOM     27  H   UNL     1     -11.163   0.977 123.153  0.00  0.00    +0.000 HD
ENDBRANCH  15  26
ENDBRANCH   1  15
TORSDOF 10
ENDMDL
MODEL 2
REMARK VINA RESULT:      -6.7      7.489     10.496
REMARK  Name = Fenoterol
REMARK  11 active torsions:
REMARK  status: ('A' for Active; 'I' for Inactive)
REMARK    1  A    between atoms: C_1  and  C_2
REMARK    2  A    between atoms: C_2  and  C_3
REMARK    3  A    between atoms: C_2  and  N_11
REMARK    4  A    between atoms: C_3  and  C_4
REMARK    5  A    between atoms: C_7  and  O_8
REMARK    6  A    between atoms: N_11  and  C_12
REMARK    7  A    between atoms: C_12  and  C_13
REMARK    8  A    between atoms: C_13  and  O_14
REMARK    9  A    between atoms: C_13  and  C_15
REMARK   10  A    between atoms: C_17  and  O_18
REMARK   11  A    between atoms: C_20  and  O_21
REMARK                            x       y       z     vdW  Elec       q    Type
REMARK                         _______ _______ _______ _____ _____    ______ ____
ROOT
ATOM      1  C   UNL     1      -9.967   6.067 132.023  0.00  0.00    +0.000 C 
ENDROOT
BRANCH   1   2
ATOM      2  N   UNL     1      -9.927   5.210 133.216  0.00  0.00    +0.000 NA
ATOM      3  H   UNL     1      -9.729   5.792 134.033  0.00  0.00    +0.000 HD
BRANCH   2   5
ATOM      4  C   UNL     1      -8.135   4.049 134.401  0.00  0.00    +0.000 C 
ATOM      5  C   UNL     1      -8.933   4.134 133.095  0.00  0.00    +0.000 C 
BRANCH   5   6
ATOM      6  C   UNL     1      -9.609   2.778 132.788  0.00  0.00    +0.000 C 
BRANCH   6   7
ATOM      7  C   UNL     1      -9.132   2.143 131.511  0.00  0.00    +0.000 A 
ATOM      8  C   UNL     1      -8.538   0.874 131.534  0.00  0.00    +0.000 A 
ATOM      9  C   UNL     1      -8.068   0.293 130.361  0.00  0.00    +0.000 A 
ATOM     10  C   UNL     1      -8.179   1.001 129.168  0.00  0.00    +0.000 A 
ATOM     11  C   UNL     1      -8.757   2.262 129.130  0.00  0.00    +0.000 A 
ATOM     12  C   UNL     1      -9.239   2.839 130.301  0.00  0.00    +0.000 A 
BRANCH  10  13
ATOM     13  O   UNL     1      -7.716   0.478 127.997  0.00  0.00    +0.000 OA
ATOM     14  H   UNL     1      -8.031   1.035 127.268  0.00  0.00    +0.000 HD
ENDBRANCH  10  13
ENDBRANCH   6   7
ENDBRANCH   5   6
ENDBRANCH   2   5
ENDBRANCH   1   2
BRANCH   1  15
ATOM     15  C   UNL     1     -11.285   5.901 131.246  0.00  0.00    +0.000 C 
BRANCH  15  16
ATOM     16  C   UNL     1     -11.234   6.720 129.973  0.00  0.00    +0.000 A 
ATOM     17  C   UNL     1     -10.545   6.280 128.831  0.00  0.00    +0.000 A 
ATOM     18  C   UNL     1     -10.542   7.059 127.676  0.00  0.00    +0.000 A 
ATOM     19  C   UNL     1     -11.223   8.269 127.626  0.00  0.00    +0.000 A 
ATOM     20  C   UNL     1     -11.934   8.689 128.744  0.00  0.00    +0.000 A 
ATOM     21  C   UNL     1     -11.952   7.926 129.906  0.00  0.00    +0.000 A 
BRANCH  18  22
ATOM     22  O   UNL     1      -9.877   6.659 126.555  0.00  0.00    +0.000 OA
ATOM     23  H   UNL     1      -8.970   6.412 126.795  0.00  0.00    +0.000 HD
ENDBRANCH  18  22
BRANCH  20  24
ATOM     24  O   UNL     1     -12.637   9.856 128.746  0.00  0.00    +0.000 OA
ATOM     25  H   UNL     1     -13.313   9.810 128.049  0.00  0.00    +0.000 HD
ENDBRANCH  20  24
ENDBRANCH  15  16
BRANCH  15  26
ATOM     26  O   UNL     1     -12.401   6.286 132.052  0.00  0.00    +0.000 OA
ATOM     27  H   UNL     1     -13.206   5.991 131.602  0.00  0.00    +0.000 HD
ENDBRANCH  15  26
ENDBRANCH   1  15
TORSDOF 10
ENDMDL
MODEL 3
REMARK VINA RESULT:      -6.6      8.318     10.737
REMARK  Name = Fenoterol
REMARK  11 active torsions:
REMARK  status: ('A' for Active; 'I' for Inactive)
REMARK    1  A    between atoms: C_1  and  C_2
REMARK    2  A    between atoms: C_2  and  C_3
REMARK    3  A    between atoms: C_2  and  N_11
REMARK    4  A    between atoms: C_3  and  C_4
REMARK    5  A    between atoms: C_7  and  O_8
REMARK    6  A    between atoms: N_11  and  C_12
REMARK    7  A    between atoms: C_12  and  C_13
REMARK    8  A    between atoms: C_13  and  O_14
REMARK    9  A    between atoms: C_13  and  C_15
REMARK   10  A    between atoms: C_17  and  O_18
REMARK   11  A    between atoms: C_20  and  O_21
REMARK                            x       y       z     vdW  Elec       q    Type
REMARK                         _______ _______ _______ _____ _____    ______ ____
ROOT
ATOM      1  C   UNL     1      -9.740   6.269 131.892  0.00  0.00    +0.000 C 
ENDROOT
BRANCH   1   2
ATOM      2  N   UNL     1      -8.942   5.061 132.145  0.00  0.00    +0.000 NA
ATOM      3  H   UNL     1      -8.788   4.973 133.152  0.00  0.00    +0.000 HD
BRANCH   2   5
ATOM      4  C   UNL     1      -7.792   4.234 130.156  0.00  0.00    +0.000 C 
ATOM      5  C   UNL     1      -7.660   5.081 131.427  0.00  0.00    +0.000 C 
BRANCH   5   6
ATOM      6  C   UNL     1      -7.237   6.525 131.071  0.00  0.00    +0.000 C 
BRANCH   6   7
ATOM      7  C   UNL     1      -5.793   6.820 131.364  0.00  0.00    +0.000 A 
ATOM      8  C   UNL     1      -5.024   7.553 130.452  0.00  0.00    +0.000 A 
ATOM      9  C   UNL     1      -3.679   7.805 130.703  0.00  0.00    +0.000 A 
ATOM     10  C   UNL     1      -3.106   7.300 131.865  0.00  0.00    +0.000 A 
ATOM     11  C   UNL     1      -3.852   6.564 132.775  0.00  0.00    +0.000 A 
ATOM     12  C   UNL     1      -5.200   6.322 132.531  0.00  0.00    +0.000 A 
BRANCH  10  13
ATOM     13  O   UNL     1      -1.787   7.507 132.143  0.00  0.00    +0.000 OA
ATOM     14  H   UNL     1      -1.263   6.878 131.623  0.00  0.00    +0.000 HD
ENDBRANCH  10  13
ENDBRANCH   6   7
ENDBRANCH   5   6
ENDBRANCH   2   5
ENDBRANCH   1   2
BRANCH   1  15
ATOM     15  C   UNL     1     -11.071   5.937 131.193  0.00  0.00    +0.000 C 
BRANCH  15  16
ATOM     16  C   UNL     1     -11.209   6.770 129.936  0.00  0.00    +0.000 A 
ATOM     17  C   UNL     1     -11.943   7.968 129.913  0.00  0.00    +0.000 A 
ATOM     18  C   UNL     1     -12.026   8.711 128.738  0.00  0.00    +0.000 A 
ATOM     19  C   UNL     1     -11.383   8.295 127.580  0.00  0.00    +0.000 A 
ATOM     20  C   UNL     1     -10.628   7.129 127.610  0.00  0.00    +0.000 A 
ATOM     21  C   UNL     1     -10.530   6.372 128.773  0.00  0.00    +0.000 A 
BRANCH  18  22
ATOM     22  O   UNL     1     -12.736   9.875 128.686  0.00  0.00    +0.000 OA
ATOM     23  H   UNL     1     -13.476   9.823 129.311  0.00  0.00    +0.000 HD
ENDBRANCH  18  22
BRANCH  20  24
ATOM     24  O   UNL     1      -9.959   6.682 126.510  0.00  0.00    +0.000 OA
ATOM     25  H   UNL     1      -9.012   6.638 126.722  0.00  0.00    +0.000 HD
ENDBRANCH  20  24
ENDBRANCH  15  16
BRANCH  15  26
ATOM     26  O   UNL     1     -12.175   6.160 132.073  0.00  0.00    +0.000 OA
ATOM     27  H   UNL     1     -12.011   6.988 132.547  0.00  0.00    +0.000 HD
ENDBRANCH  15  26
ENDBRANCH   1  15
TORSDOF 10
ENDMDL
MODEL 4
REMARK VINA RESULT:      -6.5      3.862      5.486
REMARK  Name = Fenoterol
REMARK  11 active torsions:
REMARK  status: ('A' for Active; 'I' for Inactive)
REMARK    1  A    between atoms: C_1  and  C_2
REMARK    2  A    between atoms: C_2  and  C_3
REMARK    3  A    between atoms: C_2  and  N_11
REMARK    4  A    between atoms: C_3  and  C_4
REMARK    5  A    between atoms: C_7  and  O_8
REMARK    6  A    between atoms: N_11  and  C_12
REMARK    7  A    between atoms: C_12  and  C_13
REMARK    8  A    between atoms: C_13  and  O_14
REMARK    9  A    between atoms: C_13  and  C_15
REMARK   10  A    between atoms: C_17  and  O_18
REMARK   11  A    between atoms: C_20  and  O_21
REMARK                            x       y       z     vdW  Elec       q    Type
REMARK                         _______ _______ _______ _____ _____    ______ ____
ROOT
ATOM      1  C   UNL     1      -6.564   2.627 125.834  0.00  0.00    +0.000 C 
ENDROOT
BRANCH   1   2
ATOM      2  N   UNL     1      -7.662   2.274 124.924  0.00  0.00    +0.000 NA
ATOM      3  H   UNL     1      -8.153   1.459 125.299  0.00  0.00    +0.000 HD
BRANCH   2   5
ATOM      4  C   UNL     1      -7.167   0.492 123.329  0.00  0.00    +0.000 C 
ATOM      5  C   UNL     1      -7.190   2.008 123.558  0.00  0.00    +0.000 C 
BRANCH   5   6
ATOM      6  C   UNL     1      -8.090   2.698 122.507  0.00  0.00    +0.000 C 
BRANCH   6   7
ATOM      7  C   UNL     1      -7.325   3.507 121.497  0.00  0.00    +0.000 A 
ATOM      8  C   UNL     1      -7.936   3.896 120.298  0.00  0.00    +0.000 A 
ATOM      9  C   UNL     1      -7.226   4.620 119.346  0.00  0.00    +0.000 A 
ATOM     10  C   UNL     1      -5.894   4.933 119.595  0.00  0.00    +0.000 A 
ATOM     11  C   UNL     1      -5.272   4.547 120.774  0.00  0.00    +0.000 A 
ATOM     12  C   UNL     1      -5.985   3.835 121.733  0.00  0.00    +0.000 A 
BRANCH  10  13
ATOM     13  O   UNL     1      -5.154   5.626 118.682  0.00  0.00    +0.000 OA
ATOM     14  H   UNL     1      -4.507   5.019 118.291  0.00  0.00    +0.000 HD
ENDBRANCH  10  13
ENDBRANCH   6   7
ENDBRANCH   5   6
ENDBRANCH   2   5
ENDBRANCH   1   2
BRANCH   1  15
ATOM     15  C   UNL     1      -5.967   4.006 125.499  0.00  0.00    +0.000 C 
BRANCH  15  16
ATOM     16  C   UNL     1      -4.695   4.218 126.293  0.00  0.00    +0.000 A 
ATOM     17  C   UNL     1      -4.548   5.286 127.194  0.00  0.00    +0.000 A 
ATOM     18  C   UNL     1      -3.367   5.429 127.918  0.00  0.00    +0.000 A 
ATOM     19  C   UNL     1      -2.324   4.523 127.774  0.00  0.00    +0.000 A 
ATOM     20  C   UNL     1      -2.482   3.446 126.910  0.00  0.00    +0.000 A 
ATOM     21  C   UNL     1      -3.653   3.283 126.180  0.00  0.00    +0.000 A 
BRANCH  18  22
ATOM     22  O   UNL     1      -3.195   6.460 128.795  0.00  0.00    +0.000 OA
ATOM     23  H   UNL     1      -3.865   7.139 128.621  0.00  0.00    +0.000 HD
ENDBRANCH  18  22
BRANCH  20  24
ATOM     24  O   UNL     1      -1.501   2.514 126.745  0.00  0.00    +0.000 OA
ATOM     25  H   UNL     1      -0.958   2.492 127.550  0.00  0.00    +0.000 HD
ENDBRANCH  20  24
ENDBRANCH  15  16
BRANCH  15  26
ATOM     26  O   UNL     1      -6.911   5.045 125.767  0.00  0.00    +0.000 OA
ATOM     27  H   UNL     1      -6.494   5.889 125.538  0.00  0.00    +0.000 HD
ENDBRANCH  15  26
ENDBRANCH   1  15
TORSDOF 10
ENDMDL
MODEL 5
REMARK VINA RESULT:      -6.5      3.349      6.626
REMARK  Name = Fenoterol
REMARK  11 active torsions:
REMARK  status: ('A' for Active; 'I' for Inactive)
REMARK    1  A    between atoms: C_1  and  C_2
REMARK    2  A    between atoms: C_2  and  C_3
REMARK    3  A    between atoms: C_2  and  N_11
REMARK    4  A    between atoms: C_3  and  C_4
REMARK    5  A    between atoms: C_7  and  O_8
REMARK    6  A    between atoms: N_11  and  C_12
REMARK    7  A    between atoms: C_12  and  C_13
REMARK    8  A    between atoms: C_13  and  O_14
REMARK    9  A    between atoms: C_13  and  C_15
REMARK   10  A    between atoms: C_17  and  O_18
REMARK   11  A    between atoms: C_20  and  O_21
REMARK                            x       y       z     vdW  Elec       q    Type
REMARK                         _______ _______ _______ _____ _____    ______ ____
ROOT
ATOM      1  C   UNL     1      -6.854   1.244 126.874  0.00  0.00    +0.000 C 
ENDROOT
BRANCH   1   2
ATOM      2  N   UNL     1      -6.194   0.111 126.211  0.00  0.00    +0.000 NA
ATOM      3  H   UNL     1      -6.885  -0.388 125.646  0.00  0.00    +0.000 HD
BRANCH   2   5
ATOM      4  C   UNL     1      -6.209  -0.608 128.545  0.00  0.00    +0.000 C 
ATOM      5  C   UNL     1      -5.557  -0.802 127.171  0.00  0.00    +0.000 C 
BRANCH   5   6
ATOM      6  C   UNL     1      -5.686  -2.274 126.716  0.00  0.00    +0.000 C 
BRANCH   6   7
ATOM      7  C   UNL     1      -6.893  -2.536 125.859  0.00  0.00    +0.000 A 
ATOM      8  C   UNL     1      -8.144  -2.752 126.450  0.00  0.00    +0.000 A 
ATOM      9  C   UNL     1      -9.259  -3.024 125.665  0.00  0.00    +0.000 A 
ATOM     10  C   UNL     1      -9.108  -3.097 124.284  0.00  0.00    +0.000 A 
ATOM     11  C   UNL     1      -7.873  -2.895 123.683  0.00  0.00    +0.000 A 
ATOM     12  C   UNL     1      -6.759  -2.610 124.467  0.00  0.00    +0.000 A 
BRANCH  10  13
ATOM     13  O   UNL     1     -10.170  -3.379 123.476  0.00  0.00    +0.000 OA
ATOM     14  H   UNL     1     -10.746  -2.600 123.448  0.00  0.00    +0.000 HD
ENDBRANCH  10  13
ENDBRANCH   6   7
ENDBRANCH   5   6
ENDBRANCH   2   5
ENDBRANCH   1   2
BRANCH   1  15
ATOM     15  C   UNL     1      -8.383   1.193 126.707  0.00  0.00    +0.000 C 
BRANCH  15  16
ATOM     16  C   UNL     1      -8.745   1.419 125.254  0.00  0.00    +0.000 A 
ATOM     17  C   UNL     1      -8.329   2.562 124.551  0.00  0.00    +0.000 A 
ATOM     18  C   UNL     1      -8.671   2.717 123.209  0.00  0.00    +0.000 A 
ATOM     19  C   UNL     1      -9.412   1.750 122.542  0.00  0.00    +0.000 A 
ATOM     20  C   UNL     1      -9.794   0.603 123.227  0.00  0.00    +0.000 A 
ATOM     21  C   UNL     1      -9.462   0.427 124.566  0.00  0.00    +0.000 A 
BRANCH  18  22
ATOM     22  O   UNL     1      -8.285   3.819 122.504  0.00  0.00    +0.000 OA
ATOM     23  H   UNL     1      -7.462   3.621 122.031  0.00  0.00    +0.000 HD
ENDBRANCH  18  22
BRANCH  20  24
ATOM     24  O   UNL     1     -10.504  -0.388 122.618  0.00  0.00    +0.000 OA
ATOM     25  H   UNL     1     -10.216  -0.450 121.692  0.00  0.00    +0.000 HD
ENDBRANCH  20  24
ENDBRANCH  15  16
BRANCH  15  26
ATOM     26  O   UNL     1      -9.017   2.163 127.544  0.00  0.00    +0.000 OA
ATOM     27  H   UNL     1      -9.802   1.749 127.933  0.00  0.00    +0.000 HD
ENDBRANCH  15  26
ENDBRANCH   1  15
TORSDOF 10
ENDMDL
MODEL 6
REMARK VINA RESULT:      -6.5      3.871      5.359
REMARK  Name = Fenoterol
REMARK  11 active torsions:
REMARK  status: ('A' for Active; 'I' for Inactive)
REMARK    1  A    between atoms: C_1  and  C_2
REMARK    2  A    between atoms: C_2  and  C_3
REMARK    3  A    between atoms: C_2  and  N_11
REMARK    4  A    between atoms: C_3  and  C_4
REMARK    5  A    between atoms: C_7  and  O_8
REMARK    6  A    between atoms: N_11  and  C_12
REMARK    7  A    between atoms: C_12  and  C_13
REMARK    8  A    between atoms: C_13  and  O_14
REMARK    9  A    between atoms: C_13  and  C_15
REMARK   10  A    between atoms: C_17  and  O_18
REMARK   11  A    between atoms: C_20  and  O_21
REMARK                            x       y       z     vdW  Elec       q    Type
REMARK                         _______ _______ _______ _____ _____    ______ ____
ROOT
ATOM      1  C   UNL     1      -7.160   3.892 125.701  0.00  0.00    +0.000 C 
ENDROOT
BRANCH   1   2
ATOM      2  N   UNL     1      -7.001   2.431 125.703  0.00  0.00    +0.000 NA
ATOM      3  H   UNL     1      -6.177   2.189 126.258  0.00  0.00    +0.000 HD
BRANCH   2   5
ATOM      4  C   UNL     1      -6.714   0.362 124.438  0.00  0.00    +0.000 C 
ATOM      5  C   UNL     1      -6.888   1.882 124.344  0.00  0.00    +0.000 C 
BRANCH   5   6
ATOM      6  C   UNL     1      -8.130   2.231 123.492  0.00  0.00    +0.000 C 
BRANCH   6   7
ATOM      7  C   UNL     1      -7.802   2.959 122.218  0.00  0.00    +0.000 A 
ATOM      8  C   UNL     1      -8.824   3.333 121.337  0.00  0.00    +0.000 A 
ATOM      9  C   UNL     1      -8.526   3.981 120.143  0.00  0.00    +0.000 A 
ATOM     10  C   UNL     1      -7.194   4.235 119.830  0.00  0.00    +0.000 A 
ATOM     11  C   UNL     1      -6.169   3.863 120.689  0.00  0.00    +0.000 A 
ATOM     12  C   UNL     1      -6.468   3.226 121.889  0.00  0.00    +0.000 A 
BRANCH  10  13
ATOM     13  O   UNL     1      -6.853   4.851 118.663  0.00  0.00    +0.000 OA
ATOM     14  H   UNL     1      -7.257   5.733 118.654  0.00  0.00    +0.000 HD
ENDBRANCH  10  13
ENDBRANCH   6   7
ENDBRANCH   5   6
ENDBRANCH   2   5
ENDBRANCH   1   2
BRANCH   1  15
ATOM     15  C   UNL     1      -5.915   4.601 125.140  0.00  0.00    +0.000 C 
BRANCH  15  16
ATOM     16  C   UNL     1      -4.747   4.406 126.084  0.00  0.00    +0.000 A 
ATOM     17  C   UNL     1      -3.700   3.513 125.800  0.00  0.00    +0.000 A 
ATOM     18  C   UNL     1      -2.636   3.382 126.689  0.00  0.00    +0.000 A 
ATOM     19  C   UNL     1      -2.582   4.131 127.857  0.00  0.00    +0.000 A 
ATOM     20  C   UNL     1      -3.599   5.040 128.123  0.00  0.00    +0.000 A 
ATOM     21  C   UNL     1      -4.670   5.188 127.247  0.00  0.00    +0.000 A 
BRANCH  18  22
ATOM     22  O   UNL     1      -1.610   2.518 126.441  0.00  0.00    +0.000 OA
ATOM     23  H   UNL     1      -1.657   2.225 125.518  0.00  0.00    +0.000 HD
ENDBRANCH  18  22
BRANCH  20  24
ATOM     24  O   UNL     1      -3.589   5.816 129.243  0.00  0.00    +0.000 OA
ATOM     25  H   UNL     1      -4.111   6.617 129.067  0.00  0.00    +0.000 HD
ENDBRANCH  20  24
ENDBRANCH  15  16
BRANCH  15  26
ATOM     26  O   UNL     1      -6.173   5.991 124.933  0.00  0.00    +0.000 OA
ATOM     27  H   UNL     1      -6.875   6.255 125.546  0.00  0.00    +0.000 HD
ENDBRANCH  15  26
ENDBRANCH   1  15
TORSDOF 10
ENDMDL
MODEL 7
REMARK VINA RESULT:      -6.4      1.553      2.684
REMARK  Name = Fenoterol
REMARK  11 active torsions:
REMARK  status: ('A' for Active; 'I' for Inactive)
REMARK    1  A    between atoms: C_1  and  C_2
REMARK    2  A    between atoms: C_2  and  C_3
REMARK    3  A    between atoms: C_2  and  N_11
REMARK    4  A    between atoms: C_3  and  C_4
REMARK    5  A    between atoms: C_7  and  O_8
REMARK    6  A    between atoms: N_11  and  C_12
REMARK    7  A    between atoms: C_12  and  C_13
REMARK    8  A    between atoms: C_13  and  O_14
REMARK    9  A    between atoms: C_13  and  C_15
REMARK   10  A    between atoms: C_17  and  O_18
REMARK   11  A    between atoms: C_20  and  O_21
REMARK                            x       y       z     vdW  Elec       q    Type
REMARK                         _______ _______ _______ _____ _____    ______ ____
ROOT
ATOM      1  C   UNL     1      -9.198   0.999 124.217  0.00  0.00    +0.000 C 
ENDROOT
BRANCH   1   2
ATOM      2  N   UNL     1      -9.036   1.668 122.919  0.00  0.00    +0.000 NA
ATOM      3  H   UNL     1      -8.568   1.027 122.274  0.00  0.00    +0.000 HD
BRANCH   2   5
ATOM      4  C   UNL     1      -8.286   3.374 124.498  0.00  0.00    +0.000 C 
ATOM      5  C   UNL     1      -8.284   2.926 123.031  0.00  0.00    +0.000 C 
BRANCH   5   6
ATOM      6  C   UNL     1      -6.834   2.761 122.520  0.00  0.00    +0.000 C 
BRANCH   6   7
ATOM      7  C   UNL     1      -6.512   3.626 121.333  0.00  0.00    +0.000 A 
ATOM      8  C   UNL     1      -5.299   4.325 121.279  0.00  0.00    +0.000 A 
ATOM      9  C   UNL     1      -5.007   5.149 120.198  0.00  0.00    +0.000 A 
ATOM     10  C   UNL     1      -5.947   5.284 119.181  0.00  0.00    +0.000 A 
ATOM     11  C   UNL     1      -7.156   4.605 119.224  0.00  0.00    +0.000 A 
ATOM     12  C   UNL     1      -7.444   3.770 120.299  0.00  0.00    +0.000 A 
BRANCH  10  13
ATOM     13  O   UNL     1      -5.710   6.095 118.110  0.00  0.00    +0.000 OA
ATOM     14  H   UNL     1      -6.558   6.454 117.807  0.00  0.00    +0.000 HD
ENDBRANCH  10  13
ENDBRANCH   6   7
ENDBRANCH   5   6
ENDBRANCH   2   5
ENDBRANCH   1   2
BRANCH   1  15
ATOM     15  C   UNL     1      -8.984  -0.521 124.107  0.00  0.00    +0.000 C 
BRANCH  15  16
ATOM     16  C   UNL     1      -8.246  -1.023 125.330  0.00  0.00    +0.000 A 
ATOM     17  C   UNL     1      -8.769  -2.034 126.153  0.00  0.00    +0.000 A 
ATOM     18  C   UNL     1      -8.044  -2.477 127.258  0.00  0.00    +0.000 A 
ATOM     19  C   UNL     1      -6.799  -1.943 127.559  0.00  0.00    +0.000 A 
ATOM     20  C   UNL     1      -6.265  -0.967 126.726  0.00  0.00    +0.000 A 
ATOM     21  C   UNL     1      -6.969  -0.512 125.617  0.00  0.00    +0.000 A 
BRANCH  18  22
ATOM     22  O   UNL     1      -8.531  -3.453 128.077  0.00  0.00    +0.000 OA
ATOM     23  H   UNL     1      -8.084  -4.290 127.874  0.00  0.00    +0.000 HD
ENDBRANCH  18  22
BRANCH  20  24
ATOM     24  O   UNL     1      -5.038  -0.422 126.960  0.00  0.00    +0.000 OA
ATOM     25  H   UNL     1      -4.715  -0.745 127.818  0.00  0.00    +0.000 HD
ENDBRANCH  20  24
ENDBRANCH  15  16
BRANCH  15  26
ATOM     26  O   UNL     1      -8.267  -0.846 122.913  0.00  0.00    +0.000 OA
ATOM     27  H   UNL     1      -7.347  -1.023 123.160  0.00  0.00    +0.000 HD
ENDBRANCH  15  26
ENDBRANCH   1  15
TORSDOF 10
ENDMDL
MODEL 8
REMARK VINA RESULT:      -6.4      2.399      7.163
REMARK  Name = Fenoterol
REMARK  11 active torsions:
REMARK  status: ('A' for Active; 'I' for Inactive)
REMARK    1  A    between atoms: C_1  and  C_2
REMARK    2  A    between atoms: C_2  and  C_3
REMARK    3  A    between atoms: C_2  and  N_11
REMARK    4  A    between atoms: C_3  and  C_4
REMARK    5  A    between atoms: C_7  and  O_8
REMARK    6  A    between atoms: N_11  and  C_12
REMARK    7  A    between atoms: C_12  and  C_13
REMARK    8  A    between atoms: C_13  and  O_14
REMARK    9  A    between atoms: C_13  and  C_15
REMARK   10  A    between atoms: C_17  and  O_18
REMARK   11  A    between atoms: C_20  and  O_21
REMARK                            x       y       z     vdW  Elec       q    Type
REMARK                         _______ _______ _______ _____ _____    ______ ____
ROOT
ATOM      1  C   UNL     1      -8.792   0.778 123.417  0.00  0.00    +0.000 C 
ENDROOT
BRANCH   1   2
ATOM      2  N   UNL     1      -9.346   0.117 124.607  0.00  0.00    +0.000 NA
ATOM      3  H   UNL     1      -9.345   0.781 125.384  0.00  0.00    +0.000 HD
BRANCH   2   5
ATOM      4  C   UNL     1      -9.355  -1.829 126.082  0.00  0.00    +0.000 C 
ATOM      5  C   UNL     1      -8.601  -1.099 124.965  0.00  0.00    +0.000 C 
BRANCH   5   6
ATOM      6  C   UNL     1      -8.419  -2.026 123.741  0.00  0.00    +0.000 C 
BRANCH   6   7
ATOM      7  C   UNL     1      -7.081  -2.711 123.699  0.00  0.00    +0.000 A 
ATOM      8  C   UNL     1      -6.030  -2.158 122.955  0.00  0.00    +0.000 A 
ATOM      9  C   UNL     1      -4.798  -2.800 122.888  0.00  0.00    +0.000 A 
ATOM     10  C   UNL     1      -4.633  -4.010 123.555  0.00  0.00    +0.000 A 
ATOM     11  C   UNL     1      -5.666  -4.575 124.289  0.00  0.00    +0.000 A 
ATOM     12  C   UNL     1      -6.895  -3.926 124.368  0.00  0.00    +0.000 A 
BRANCH  10  13
ATOM     13  O   UNL     1      -3.448  -4.683 123.502  0.00  0.00    +0.000 OA
ATOM     14  H   UNL     1      -3.109  -4.633 122.595  0.00  0.00    +0.000 HD
ENDBRANCH  10  13
ENDBRANCH   6   7
ENDBRANCH   5   6
ENDBRANCH   2   5
ENDBRANCH   1   2
BRANCH   1  15
ATOM     15  C   UNL     1      -9.158   2.273 123.373  0.00  0.00    +0.000 C 
BRANCH  15  16
ATOM     16  C   UNL     1      -8.340   2.967 122.304  0.00  0.00    +0.000 A 
ATOM     17  C   UNL     1      -6.957   3.174 122.440  0.00  0.00    +0.000 A 
ATOM     18  C   UNL     1      -6.243   3.800 121.421  0.00  0.00    +0.000 A 
ATOM     19  C   UNL     1      -6.874   4.218 120.256  0.00  0.00    +0.000 A 
ATOM     20  C   UNL     1      -8.235   3.982 120.105  0.00  0.00    +0.000 A 
ATOM     21  C   UNL     1      -8.967   3.358 121.109  0.00  0.00    +0.000 A 
BRANCH  18  22
ATOM     22  O   UNL     1      -4.901   4.019 121.529  0.00  0.00    +0.000 OA
ATOM     23  H   UNL     1      -4.439   3.503 120.849  0.00  0.00    +0.000 HD
ENDBRANCH  18  22
BRANCH  20  24
ATOM     24  O   UNL     1      -8.903   4.352 118.976  0.00  0.00    +0.000 OA
ATOM     25  H   UNL     1      -8.456   3.954 118.210  0.00  0.00    +0.000 HD
ENDBRANCH  20  24
ENDBRANCH  15  16
BRANCH  15  26
ATOM     26  O   UNL     1      -8.948   2.884 124.648  0.00  0.00    +0.000 OA
ATOM     27  H   UNL     1      -9.346   3.766 124.622  0.00  0.00    +0.000 HD
ENDBRANCH  15  26
ENDBRANCH   1  15
TORSDOF 10
ENDMDL
MODEL 9
REMARK VINA RESULT:      -6.3      8.996     12.162
REMARK  Name = Fenoterol
REMARK  11 active torsions:
REMARK  status: ('A' for Active; 'I' for Inactive)
REMARK    1  A    between atoms: C_1  and  C_2
REMARK    2  A    between atoms: C_2  and  C_3
REMARK    3  A    between atoms: C_2  and  N_11
REMARK    4  A    between atoms: C_3  and  C_4
REMARK    5  A    between atoms: C_7  and  O_8
REMARK    6  A    between atoms: N_11  and  C_12
REMARK    7  A    between atoms: C_12  and  C_13
REMARK    8  A    between atoms: C_13  and  O_14
REMARK    9  A    between atoms: C_13  and  C_15
REMARK   10  A    between atoms: C_17  and  O_18
REMARK   11  A    between atoms: C_20  and  O_21
REMARK                            x       y       z     vdW  Elec       q    Type
REMARK                         _______ _______ _______ _____ _____    ______ ____
ROOT
ATOM      1  C   UNL     1      -8.344   5.039 130.066  0.00  0.00    +0.000 C 
ENDROOT
BRANCH   1   2
ATOM      2  N   UNL     1      -8.168   3.879 130.951  0.00  0.00    +0.000 NA
ATOM      3  H   UNL     1      -7.942   3.061 130.382  0.00  0.00    +0.000 HD
BRANCH   2   5
ATOM      4  C   UNL     1     -10.416   2.926 130.914  0.00  0.00    +0.000 C 
ATOM      5  C   UNL     1      -9.357   3.623 131.776  0.00  0.00    +0.000 C 
BRANCH   5   6
ATOM      6  C   UNL     1      -9.009   2.755 133.008  0.00  0.00    +0.000 C 
BRANCH   6   7
ATOM      7  C   UNL     1      -7.992   3.384 133.920  0.00  0.00    +0.000 A 
ATOM      8  C   UNL     1      -6.767   2.747 134.156  0.00  0.00    +0.000 A 
ATOM      9  C   UNL     1      -5.833   3.308 135.020  0.00  0.00    +0.000 A 
ATOM     10  C   UNL     1      -6.144   4.503 135.661  0.00  0.00    +0.000 A 
ATOM     11  C   UNL     1      -7.356   5.143 135.445  0.00  0.00    +0.000 A 
ATOM     12  C   UNL     1      -8.286   4.588 134.571  0.00  0.00    +0.000 A 
BRANCH  10  13
ATOM     13  O   UNL     1      -5.266   5.081 136.531  0.00  0.00    +0.000 OA
ATOM     14  H   UNL     1      -4.598   4.421 136.772  0.00  0.00    +0.000 HD
ENDBRANCH  10  13
ENDBRANCH   6   7
ENDBRANCH   5   6
ENDBRANCH   2   5
ENDBRANCH   1   2
BRANCH   1  15
ATOM     15  C   UNL     1      -8.608   6.330 130.861  0.00  0.00    +0.000 C 
BRANCH  15  16
ATOM     16  C   UNL     1      -9.945   6.914 130.458  0.00  0.00    +0.000 A 
ATOM     17  C   UNL     1     -11.094   6.763 131.251  0.00  0.00    +0.000 A 
ATOM     18  C   UNL     1     -12.299   7.336 130.849  0.00  0.00    +0.000 A 
ATOM     19  C   UNL     1     -12.385   8.070 129.673  0.00  0.00    +0.000 A 
ATOM     20  C   UNL     1     -11.241   8.250 128.905  0.00  0.00    +0.000 A 
ATOM     21  C   UNL     1     -10.028   7.689 129.289  0.00  0.00    +0.000 A 
BRANCH  18  22
ATOM     22  O   UNL     1     -13.431   7.200 131.597  0.00  0.00    +0.000 OA
ATOM     23  H   UNL     1     -13.225   7.397 132.524  0.00  0.00    +0.000 HD
ENDBRANCH  18  22
BRANCH  20  24
ATOM     24  O   UNL     1     -11.262   8.978 127.753  0.00  0.00    +0.000 OA
ATOM     25  H   UNL     1     -11.156   8.370 127.002  0.00  0.00    +0.000 HD
ENDBRANCH  20  24
ENDBRANCH  15  16
BRANCH  15  26
ATOM     26  O   UNL     1      -7.557   7.276 130.654  0.00  0.00    +0.000 OA
ATOM     27  H   UNL     1      -7.932   8.035 130.183  0.00  0.00    +0.000 HD
ENDBRANCH  15  26
ENDBRANCH   1  15
TORSDOF 10
ENDMDL
