MODEL 1
REMARK VINA RESULT:      -7.2      0.000      0.000
REMARK  Name = Fenofibric acid
REMARK  8 active torsions:
REMARK  status: ('A' for Active; 'I' for Inactive)
REMARK    1  A    between atoms: C_1  and  C_2
REMARK    2  A    between atoms: C_2  and  C_3
REMARK    3  A    between atoms: C_2  and  O_4
REMARK    4  A    between atoms: C_2  and  C_20
REMARK    5  A    between atoms: O_4  and  C_5
REMARK    6  A    between atoms: C_8  and  C_11
REMARK    7  A    between atoms: C_11  and  C_13
REMARK    8  A    between atoms: C_20  and  O_21
REMARK                            x       y       z     vdW  Elec       q    Type
REMARK                         _______ _______ _______ _____ _____    ______ ____
ROOT
ATOM      1  C   UNL     1     -11.014   7.511 130.235  0.00  0.00    +0.000 A 
ATOM      2  C   UNL     1     -11.657   7.000 131.367  0.00  0.00    +0.000 A 
ATOM      3  C   UNL     1     -10.927   6.270 132.332  0.00  0.00    +0.000 A 
ATOM      4  C   UNL     1      -9.581   5.944 132.106  0.00  0.00    +0.000 A 
ATOM      5  C   UNL     1      -8.961   6.450 130.975  0.00  0.00    +0.000 A 
ATOM      6  C   UNL     1      -9.652   7.283 130.113  0.00  0.00    +0.000 A 
ENDROOT
BRANCH   4   7
ATOM      7  C   UNL     1      -8.830   5.055 133.033  0.00  0.00    +0.000 C 
ATOM      8  O   UNL     1      -8.357   5.497 134.076  0.00  0.00    +0.000 OA
BRANCH   7   9
ATOM      9  C   UNL     1      -8.666   3.607 132.739  0.00  0.00    +0.000 A 
ATOM     10  C   UNL     1      -9.655   2.935 132.012  0.00  0.00    +0.000 A 
ATOM     11  C   UNL     1      -9.552   1.552 131.821  0.00  0.00    +0.000 A 
ATOM     12  C   UNL     1      -8.425   0.867 132.278  0.00  0.00    +0.000 A 
ATOM     13 CL   UNL     1      -8.253  -0.814 131.955  0.00  0.00    +0.000 Cl
ATOM     14  C   UNL     1      -7.422   1.540 132.974  0.00  0.00    +0.000 A 
ATOM     15  C   UNL     1      -7.554   2.906 133.226  0.00  0.00    +0.000 A 
ENDBRANCH   7   9
ENDBRANCH   4   7
BRANCH   1  16
ATOM     16  O   UNL     1     -11.711   8.312 129.368  0.00  0.00    +0.000 OA
BRANCH  16  18
ATOM     17  C   UNL     1     -13.164   6.358 128.687  0.00  0.00    +0.000 C 
ATOM     18  C   UNL     1     -12.554   7.722 128.335  0.00  0.00    +0.000 C 
ATOM     19  C   UNL     1     -13.682   8.701 127.982  0.00  0.00    +0.000 C 
BRANCH  18  20
ATOM     20  C   UNL     1     -11.657   7.575 127.068  0.00  0.00    +0.000 C 
ATOM     21  O   UNL     1     -10.726   8.336 126.804  0.00  0.00    +0.000 OA
BRANCH  20  22
ATOM     22  O   UNL     1     -11.947   6.571 126.203  0.00  0.00    +0.000 OA
ATOM     23  H   UNL     1     -12.725   6.647 125.622  0.00  0.00    +0.000 HD
ENDBRANCH  20  22
ENDBRANCH  18  20
ENDBRANCH  16  18
ENDBRANCH   1  16
TORSDOF 6
ENDMDL
MODEL 2
REMARK VINA RESULT:      -7.1      4.702      7.375
REMARK  Name = Fenofibric acid
REMARK  8 active torsions:
REMARK  status: ('A' for Active; 'I' for Inactive)
REMARK    1  A    between atoms: C_1  and  C_2
REMARK    2  A    between atoms: C_2  and  C_3
REMARK    3  A    between atoms: C_2  and  O_4
REMARK    4  A    between atoms: C_2  and  C_20
REMARK    5  A    between atoms: O_4  and  C_5
REMARK    6  A    between atoms: C_8  and  C_11
REMARK    7  A    between atoms: C_11  and  C_13
REMARK    8  A    between atoms: C_20  and  O_21
REMARK                            x       y       z     vdW  Elec       q    Type
REMARK                         _______ _______ _______ _____ _____    ______ ____
ROOT
ATOM      1  C   UNL     1      -5.911   5.822 130.747  0.00  0.00    +0.000 A 
ATOM      2  C   UNL     1      -6.782   6.788 131.261  0.00  0.00    +0.000 A 
ATOM      3  C   UNL     1      -8.178   6.648 131.096  0.00  0.00    +0.000 A 
ATOM      4  C   UNL     1      -8.699   5.608 130.312  0.00  0.00    +0.000 A 
ATOM      5  C   UNL     1      -7.822   4.663 129.802  0.00  0.00    +0.000 A 
ATOM      6  C   UNL     1      -6.471   4.735 130.093  0.00  0.00    +0.000 A 
ENDROOT
BRANCH   4   7
ATOM      7  C   UNL     1     -10.151   5.519 130.000  0.00  0.00    +0.000 C 
ATOM      8  O   UNL     1     -10.710   4.429 129.935  0.00  0.00    +0.000 OA
BRANCH   7   9
ATOM      9  C   UNL     1     -10.966   6.747 129.800  0.00  0.00    +0.000 A 
ATOM     10  C   UNL     1     -11.952   7.080 130.736  0.00  0.00    +0.000 A 
ATOM     11  C   UNL     1     -12.787   8.178 130.498  0.00  0.00    +0.000 A 
ATOM     12  C   UNL     1     -12.577   8.984 129.378  0.00  0.00    +0.000 A 
ATOM     13 CL   UNL     1     -13.540  10.389 129.139  0.00  0.00    +0.000 Cl
ATOM     14  C   UNL     1     -11.575   8.673 128.460  0.00  0.00    +0.000 A 
ATOM     15  C   UNL     1     -10.785   7.540 128.659  0.00  0.00    +0.000 A 
ENDBRANCH   7   9
ENDBRANCH   4   7
BRANCH   1  16
ATOM     16  O   UNL     1      -4.569   5.913 131.014  0.00  0.00    +0.000 OA
BRANCH  16  18
ATOM     17  C   UNL     1      -4.127   8.160 129.942  0.00  0.00    +0.000 C 
ATOM     18  C   UNL     1      -3.699   6.701 130.151  0.00  0.00    +0.000 C 
ATOM     19  C   UNL     1      -2.269   6.672 130.711  0.00  0.00    +0.000 C 
BRANCH  18  20
ATOM     20  C   UNL     1      -3.669   5.971 128.774  0.00  0.00    +0.000 C 
ATOM     21  O   UNL     1      -3.186   4.850 128.611  0.00  0.00    +0.000 OA
BRANCH  20  22
ATOM     22  O   UNL     1      -4.176   6.626 127.700  0.00  0.00    +0.000 OA
ATOM     23  H   UNL     1      -5.135   6.785 127.641  0.00  0.00    +0.000 HD
ENDBRANCH  20  22
ENDBRANCH  18  20
ENDBRANCH  16  18
ENDBRANCH   1  16
TORSDOF 6
ENDMDL
MODEL 3
REMARK VINA RESULT:      -7.0      8.195      9.457
REMARK  Name = Fenofibric acid
REMARK  8 active torsions:
REMARK  status: ('A' for Active; 'I' for Inactive)
REMARK    1  A    between atoms: C_1  and  C_2
REMARK    2  A    between atoms: C_2  and  C_3
REMARK    3  A    between atoms: C_2  and  O_4
REMARK    4  A    between atoms: C_2  and  C_20
REMARK    5  A    between atoms: O_4  and  C_5
REMARK    6  A    between atoms: C_8  and  C_11
REMARK    7  A    between atoms: C_11  and  C_13
REMARK    8  A    between atoms: C_20  and  O_21
REMARK                            x       y       z     vdW  Elec       q    Type
REMARK                         _______ _______ _______ _____ _____    ______ ____
ROOT
ATOM      1  C   UNL     1      -7.321   2.673 122.633  0.00  0.00    +0.000 A 
ATOM      2  C   UNL     1      -8.707   2.503 122.566  0.00  0.00    +0.000 A 
ATOM      3  C   UNL     1      -9.309   1.341 123.098  0.00  0.00    +0.000 A 
ATOM      4  C   UNL     1      -8.517   0.292 123.588  0.00  0.00    +0.000 A 
ATOM      5  C   UNL     1      -7.143   0.472 123.639  0.00  0.00    +0.000 A 
ATOM      6  C   UNL     1      -6.581   1.673 123.246  0.00  0.00    +0.000 A 
ENDROOT
BRANCH   4   7
ATOM      7  C   UNL     1      -9.115  -1.000 124.019  0.00  0.00    +0.000 C 
ATOM      8  O   UNL     1      -9.883  -1.610 123.281  0.00  0.00    +0.000 OA
BRANCH   7   9
ATOM      9  C   UNL     1      -8.769  -1.601 125.334  0.00  0.00    +0.000 A 
ATOM     10  C   UNL     1      -9.094  -2.939 125.588  0.00  0.00    +0.000 A 
ATOM     11  C   UNL     1      -8.861  -3.478 126.859  0.00  0.00    +0.000 A 
ATOM     12  C   UNL     1      -8.227  -2.708 127.836  0.00  0.00    +0.000 A 
ATOM     13 CL   UNL     1      -7.851  -3.403 129.364  0.00  0.00    +0.000 Cl
ATOM     14  C   UNL     1      -7.872  -1.386 127.576  0.00  0.00    +0.000 A 
ATOM     15  C   UNL     1      -8.165  -0.824 126.332  0.00  0.00    +0.000 A 
ENDBRANCH   7   9
ENDBRANCH   4   7
BRANCH   1  16
ATOM     16  O   UNL     1      -6.765   3.854 122.215  0.00  0.00    +0.000 OA
BRANCH  16  18
ATOM     17  C   UNL     1      -5.243   2.630 120.609  0.00  0.00    +0.000 C 
ATOM     18  C   UNL     1      -6.005   3.912 120.973  0.00  0.00    +0.000 C 
ATOM     19  C   UNL     1      -6.949   4.280 119.819  0.00  0.00    +0.000 C 
BRANCH  18  20
ATOM     20  C   UNL     1      -4.992   5.086 121.132  0.00  0.00    +0.000 C 
ATOM     21  O   UNL     1      -4.263   5.224 122.113  0.00  0.00    +0.000 OA
BRANCH  20  22
ATOM     22  O   UNL     1      -4.943   6.016 120.145  0.00  0.00    +0.000 OA
ATOM     23  H   UNL     1      -4.524   5.793 119.294  0.00  0.00    +0.000 HD
ENDBRANCH  20  22
ENDBRANCH  18  20
ENDBRANCH  16  18
ENDBRANCH   1  16
TORSDOF 6
ENDMDL
MODEL 4
REMARK VINA RESULT:      -7.0      5.095      7.289
REMARK  Name = Fenofibric acid
REMARK  8 active torsions:
REMARK  status: ('A' for Active; 'I' for Inactive)
REMARK    1  A    between atoms: C_1  and  C_2
REMARK    2  A    between atoms: C_2  and  C_3
REMARK    3  A    between atoms: C_2  and  O_4
REMARK    4  A    between atoms: C_2  and  C_20
REMARK    5  A    between atoms: O_4  and  C_5
REMARK    6  A    between atoms: C_8  and  C_11
REMARK    7  A    between atoms: C_11  and  C_13
REMARK    8  A    between atoms: C_20  and  O_21
REMARK                            x       y       z     vdW  Elec       q    Type
REMARK                         _______ _______ _______ _____ _____    ______ ____
ROOT
ATOM      1  C   UNL     1      -5.068   5.256 130.126  0.00  0.00    +0.000 A 
ATOM      2  C   UNL     1      -5.267   6.523 130.683  0.00  0.00    +0.000 A 
ATOM      3  C   UNL     1      -6.507   6.856 131.272  0.00  0.00    +0.000 A 
ATOM      4  C   UNL     1      -7.589   5.967 131.196  0.00  0.00    +0.000 A 
ATOM      5  C   UNL     1      -7.379   4.718 130.633  0.00  0.00    +0.000 A 
ATOM      6  C   UNL     1      -6.120   4.355 130.189  0.00  0.00    +0.000 A 
ENDROOT
BRANCH   4   7
ATOM      7  C   UNL     1      -8.945   6.348 131.678  0.00  0.00    +0.000 C 
ATOM      8  O   UNL     1      -9.200   6.362 132.879  0.00  0.00    +0.000 OA
BRANCH   7   9
ATOM      9  C   UNL     1     -10.009   6.756 130.723  0.00  0.00    +0.000 A 
ATOM     10  C   UNL     1     -11.317   6.292 130.908  0.00  0.00    +0.000 A 
ATOM     11  C   UNL     1     -12.297   6.592 129.956  0.00  0.00    +0.000 A 
ATOM     12  C   UNL     1     -11.990   7.422 128.876  0.00  0.00    +0.000 A 
ATOM     13 CL   UNL     1     -13.220   7.871 127.761  0.00  0.00    +0.000 Cl
ATOM     14  C   UNL     1     -10.696   7.912 128.706  0.00  0.00    +0.000 A 
ATOM     15  C   UNL     1      -9.699   7.559 129.617  0.00  0.00    +0.000 A 
ENDBRANCH   7   9
ENDBRANCH   4   7
BRANCH   1  16
ATOM     16  O   UNL     1      -3.825   4.911 129.661  0.00  0.00    +0.000 OA
BRANCH  16  18
ATOM     17  C   UNL     1      -4.641   5.494 127.340  0.00  0.00    +0.000 C 
ATOM     18  C   UNL     1      -3.469   5.144 128.267  0.00  0.00    +0.000 C 
ATOM     19  C   UNL     1      -2.420   6.262 128.193  0.00  0.00    +0.000 C 
BRANCH  18  20
ATOM     20  C   UNL     1      -2.786   3.837 127.764  0.00  0.00    +0.000 C 
ATOM     21  O   UNL     1      -3.136   2.710 128.117  0.00  0.00    +0.000 OA
BRANCH  20  22
ATOM     22  O   UNL     1      -1.733   3.959 126.918  0.00  0.00    +0.000 OA
ATOM     23  H   UNL     1      -1.440   4.845 126.640  0.00  0.00    +0.000 HD
ENDBRANCH  20  22
ENDBRANCH  18  20
ENDBRANCH  16  18
ENDBRANCH   1  16
TORSDOF 6
ENDMDL
MODEL 5
REMARK VINA RESULT:      -6.9      3.032      3.843
REMARK  Name = Fenofibric acid
REMARK  8 active torsions:
REMARK  status: ('A' for Active; 'I' for Inactive)
REMARK    1  A    between atoms: C_1  and  C_2
REMARK    2  A    between atoms: C_2  and  C_3
REMARK    3  A    between atoms: C_2  and  O_4
REMARK    4  A    between atoms: C_2  and  C_20
REMARK    5  A    between atoms: O_4  and  C_5
REMARK    6  A    between atoms: C_8  and  C_11
REMARK    7  A    between atoms: C_11  and  C_13
REMARK    8  A    between atoms: C_20  and  O_21
REMARK                            x       y       z     vdW  Elec       q    Type
REMARK                         _______ _______ _______ _____ _____    ______ ____
ROOT
ATOM      1  C   UNL     1     -11.271   6.055 130.004  0.00  0.00    +0.000 A 
ATOM      2  C   UNL     1     -10.076   5.422 129.647  0.00  0.00    +0.000 A 
ATOM      3  C   UNL     1      -9.061   5.222 130.609  0.00  0.00    +0.000 A 
ATOM      4  C   UNL     1      -9.188   5.763 131.897  0.00  0.00    +0.000 A 
ATOM      5  C   UNL     1     -10.375   6.395 132.233  0.00  0.00    +0.000 A 
ATOM      6  C   UNL     1     -11.415   6.457 131.323  0.00  0.00    +0.000 A 
ENDROOT
BRANCH   4   7
ATOM      7  C   UNL     1      -8.076   5.693 132.884  0.00  0.00    +0.000 C 
ATOM      8  O   UNL     1      -8.268   5.245 134.010  0.00  0.00    +0.000 OA
BRANCH   7   9
ATOM      9  C   UNL     1      -6.702   6.128 132.519  0.00  0.00    +0.000 A 
ATOM     10  C   UNL     1      -6.496   6.836 131.330  0.00  0.00    +0.000 A 
ATOM     11  C   UNL     1      -5.192   7.159 130.935  0.00  0.00    +0.000 A 
ATOM     12  C   UNL     1      -4.115   6.851 131.768  0.00  0.00    +0.000 A 
ATOM     13 CL   UNL     1      -2.525   7.336 131.328  0.00  0.00    +0.000 Cl
ATOM     14  C   UNL     1      -4.321   6.174 132.969  0.00  0.00    +0.000 A 
ATOM     15  C   UNL     1      -5.613   5.791 133.333  0.00  0.00    +0.000 A 
ENDBRANCH   7   9
ENDBRANCH   4   7
BRANCH   1  16
ATOM     16  O   UNL     1     -12.289   6.139 129.089  0.00  0.00    +0.000 OA
BRANCH  16  18
ATOM     17  C   UNL     1     -13.882   7.480 127.654  0.00  0.00    +0.000 C 
ATOM     18  C   UNL     1     -12.522   7.379 128.359  0.00  0.00    +0.000 C 
ATOM     19  C   UNL     1     -12.362   8.568 129.316  0.00  0.00    +0.000 C 
BRANCH  18  20
ATOM     20  C   UNL     1     -11.383   7.484 127.299  0.00  0.00    +0.000 C 
ATOM     21  O   UNL     1     -10.435   8.263 127.397  0.00  0.00    +0.000 OA
BRANCH  20  22
ATOM     22  O   UNL     1     -11.467   6.693 126.200  0.00  0.00    +0.000 OA
ATOM     23  H   UNL     1     -11.252   5.746 126.271  0.00  0.00    +0.000 HD
ENDBRANCH  20  22
ENDBRANCH  18  20
ENDBRANCH  16  18
ENDBRANCH   1  16
TORSDOF 6
ENDMDL
MODEL 6
REMARK VINA RESULT:      -6.9      8.531      9.686
REMARK  Name = Fenofibric acid
REMARK  8 active torsions:
REMARK  status: ('A' for Active; 'I' for Inactive)
REMARK    1  A    between atoms: C_1  and  C_2
REMARK    2  A    between atoms: C_2  and  C_3
REMARK    3  A    between atoms: C_2  and  O_4
REMARK    4  A    between atoms: C_2  and  C_20
REMARK    5  A    between atoms: O_4  and  C_5
REMARK    6  A    between atoms: C_8  and  C_11
REMARK    7  A    between atoms: C_11  and  C_13
REMARK    8  A    between atoms: C_20  and  O_21
REMARK                            x       y       z     vdW  Elec       q    Type
REMARK                         _______ _______ _______ _____ _____    ______ ____
ROOT
ATOM      1  C   UNL     1      -7.616  -2.818 126.096  0.00  0.00    +0.000 A 
ATOM      2  C   UNL     1      -6.520  -2.190 126.698  0.00  0.00    +0.000 A 
ATOM      3  C   UNL     1      -6.428  -2.113 128.105  0.00  0.00    +0.000 A 
ATOM      4  C   UNL     1      -7.489  -2.554 128.911  0.00  0.00    +0.000 A 
ATOM      5  C   UNL     1      -8.572  -3.166 128.299  0.00  0.00    +0.000 A 
ATOM      6  C   UNL     1      -8.581  -3.362 126.930  0.00  0.00    +0.000 A 
ENDROOT
BRANCH   4   7
ATOM      7  C   UNL     1      -7.482  -2.354 130.385  0.00  0.00    +0.000 C 
ATOM      8  O   UNL     1      -8.126  -1.441 130.894  0.00  0.00    +0.000 OA
BRANCH   7   9
ATOM      9  C   UNL     1      -6.729  -3.273 131.279  0.00  0.00    +0.000 A 
ATOM     10  C   UNL     1      -5.916  -4.266 130.720  0.00  0.00    +0.000 A 
ATOM     11  C   UNL     1      -5.286  -5.195 131.556  0.00  0.00    +0.000 A 
ATOM     12  C   UNL     1      -5.400  -5.074 132.942  0.00  0.00    +0.000 A 
ATOM     13 CL   UNL     1      -4.545  -6.157 133.970  0.00  0.00    +0.000 Cl
ATOM     14  C   UNL     1      -6.183  -4.067 133.503  0.00  0.00    +0.000 A 
ATOM     15  C   UNL     1      -6.867  -3.180 132.670  0.00  0.00    +0.000 A 
ENDBRANCH   7   9
ENDBRANCH   4   7
BRANCH   1  16
ATOM     16  O   UNL     1      -7.634  -2.983 124.736  0.00  0.00    +0.000 OA
BRANCH  16  18
ATOM     17  C   UNL     1      -7.883  -0.475 124.529  0.00  0.00    +0.000 C 
ATOM     18  C   UNL     1      -7.929  -1.856 123.860  0.00  0.00    +0.000 C 
ATOM     19  C   UNL     1      -6.958  -1.871 122.671  0.00  0.00    +0.000 C 
BRANCH  18  20
ATOM     20  C   UNL     1      -9.359  -2.105 123.290  0.00  0.00    +0.000 C 
ATOM     21  O   UNL     1      -9.999  -1.257 122.669  0.00  0.00    +0.000 OA
BRANCH  20  22
ATOM     22  O   UNL     1      -9.931  -3.312 123.525  0.00  0.00    +0.000 OA
ATOM     23  H   UNL     1     -10.865  -3.357 123.801  0.00  0.00    +0.000 HD
ENDBRANCH  20  22
ENDBRANCH  18  20
ENDBRANCH  16  18
ENDBRANCH   1  16
TORSDOF 6
ENDMDL
MODEL 7
REMARK VINA RESULT:      -6.8      2.870      3.684
REMARK  Name = Fenofibric acid
REMARK  8 active torsions:
REMARK  status: ('A' for Active; 'I' for Inactive)
REMARK    1  A    between atoms: C_1  and  C_2
REMARK    2  A    between atoms: C_2  and  C_3
REMARK    3  A    between atoms: C_2  and  O_4
REMARK    4  A    between atoms: C_2  and  C_20
REMARK    5  A    between atoms: O_4  and  C_5
REMARK    6  A    between atoms: C_8  and  C_11
REMARK    7  A    between atoms: C_11  and  C_13
REMARK    8  A    between atoms: C_20  and  O_21
REMARK                            x       y       z     vdW  Elec       q    Type
REMARK                         _______ _______ _______ _____ _____    ______ ____
ROOT
ATOM      1  C   UNL     1     -11.995   6.329 130.585  0.00  0.00    +0.000 A 
ATOM      2  C   UNL     1     -11.470   6.786 131.799  0.00  0.00    +0.000 A 
ATOM      3  C   UNL     1     -10.400   6.098 132.415  0.00  0.00    +0.000 A 
ATOM      4  C   UNL     1      -9.935   4.887 131.883  0.00  0.00    +0.000 A 
ATOM      5  C   UNL     1     -10.472   4.443 130.685  0.00  0.00    +0.000 A 
ATOM      6  C   UNL     1     -11.419   5.202 130.021  0.00  0.00    +0.000 A 
ENDROOT
BRANCH   4   7
ATOM      7  C   UNL     1      -8.911   4.069 132.589  0.00  0.00    +0.000 C 
ATOM      8  O   UNL     1      -8.883   2.850 132.451  0.00  0.00    +0.000 OA
BRANCH   7   9
ATOM      9  C   UNL     1      -7.878   4.709 133.444  0.00  0.00    +0.000 A 
ATOM     10  C   UNL     1      -6.775   5.331 132.846  0.00  0.00    +0.000 A 
ATOM     11  C   UNL     1      -5.752   5.845 133.650  0.00  0.00    +0.000 A 
ATOM     12  C   UNL     1      -5.876   5.816 135.040  0.00  0.00    +0.000 A 
ATOM     13 CL   UNL     1      -4.664   6.537 136.024  0.00  0.00    +0.000 Cl
ATOM     14  C   UNL     1      -6.988   5.226 135.639  0.00  0.00    +0.000 A 
ATOM     15  C   UNL     1      -7.978   4.651 134.841  0.00  0.00    +0.000 A 
ENDBRANCH   7   9
ENDBRANCH   4   7
BRANCH   1  16
ATOM     16  O   UNL     1     -12.954   7.070 129.945  0.00  0.00    +0.000 OA
BRANCH  16  18
ATOM     17  C   UNL     1     -11.075   8.111 128.609  0.00  0.00    +0.000 C 
ATOM     18  C   UNL     1     -12.577   8.036 128.920  0.00  0.00    +0.000 C 
ATOM     19  C   UNL     1     -13.342   7.725 127.626  0.00  0.00    +0.000 C 
BRANCH  18  20
ATOM     20  C   UNL     1     -13.069   9.426 129.425  0.00  0.00    +0.000 C 
ATOM     21  O   UNL     1     -13.070   9.756 130.611  0.00  0.00    +0.000 OA
BRANCH  20  22
ATOM     22  O   UNL     1     -13.548  10.299 128.504  0.00  0.00    +0.000 OA
ATOM     23  H   UNL     1     -13.998  11.111 128.799  0.00  0.00    +0.000 HD
ENDBRANCH  20  22
ENDBRANCH  18  20
ENDBRANCH  16  18
ENDBRANCH   1  16
TORSDOF 6
ENDMDL
MODEL 8
REMARK VINA RESULT:      -6.8      8.335      9.335
REMARK  Name = Fenofibric acid
REMARK  8 active torsions:
REMARK  status: ('A' for Active; 'I' for Inactive)
REMARK    1  A    between atoms: C_1  and  C_2
REMARK    2  A    between atoms: C_2  and  C_3
REMARK    3  A    between atoms: C_2  and  O_4
REMARK    4  A    between atoms: C_2  and  C_20
REMARK    5  A    between atoms: O_4  and  C_5
REMARK    6  A    between atoms: C_8  and  C_11
REMARK    7  A    between atoms: C_11  and  C_13
REMARK    8  A    between atoms: C_20  and  O_21
REMARK                            x       y       z     vdW  Elec       q    Type
REMARK                         _______ _______ _______ _____ _____    ______ ____
ROOT
ATOM      1  C   UNL     1      -8.690  -2.527 126.790  0.00  0.00    +0.000 A 
ATOM      2  C   UNL     1      -8.657  -3.540 127.753  0.00  0.00    +0.000 A 
ATOM      3  C   UNL     1      -7.955  -3.347 128.964  0.00  0.00    +0.000 A 
ATOM      4  C   UNL     1      -7.186  -2.192 129.163  0.00  0.00    +0.000 A 
ATOM      5  C   UNL     1      -7.222  -1.201 128.194  0.00  0.00    +0.000 A 
ATOM      6  C   UNL     1      -8.028  -1.344 127.079  0.00  0.00    +0.000 A 
ENDROOT
BRANCH   4   7
ATOM      7  C   UNL     1      -6.322  -2.028 130.364  0.00  0.00    +0.000 C 
ATOM      8  O   UNL     1      -5.576  -1.059 130.468  0.00  0.00    +0.000 OA
BRANCH   7   9
ATOM      9  C   UNL     1      -6.370  -3.009 131.480  0.00  0.00    +0.000 A 
ATOM     10  C   UNL     1      -7.242  -2.791 132.553  0.00  0.00    +0.000 A 
ATOM     11  C   UNL     1      -7.217  -3.658 133.651  0.00  0.00    +0.000 A 
ATOM     12  C   UNL     1      -6.389  -4.782 133.632  0.00  0.00    +0.000 A 
ATOM     13 CL   UNL     1      -6.432  -5.901 134.938  0.00  0.00    +0.000 Cl
ATOM     14  C   UNL     1      -5.543  -5.020 132.550  0.00  0.00    +0.000 A 
ATOM     15  C   UNL     1      -5.516  -4.120 131.484  0.00  0.00    +0.000 A 
ENDBRANCH   7   9
ENDBRANCH   4   7
BRANCH   1  16
ATOM     16  O   UNL     1      -9.468  -2.685 125.672  0.00  0.00    +0.000 OA
BRANCH  16  18
ATOM     17  C   UNL     1      -7.477  -3.469 124.323  0.00  0.00    +0.000 C 
ATOM     18  C   UNL     1      -8.852  -2.786 124.355  0.00  0.00    +0.000 C 
ATOM     19  C   UNL     1      -9.803  -3.529 123.406  0.00  0.00    +0.000 C 
BRANCH  18  20
ATOM     20  C   UNL     1      -8.715  -1.327 123.821  0.00  0.00    +0.000 C 
ATOM     21  O   UNL     1      -9.678  -0.592 123.603  0.00  0.00    +0.000 OA
BRANCH  20  22
ATOM     22  O   UNL     1      -7.467  -0.866 123.557  0.00  0.00    +0.000 OA
ATOM     23  H   UNL     1      -6.760  -0.987 124.216  0.00  0.00    +0.000 HD
ENDBRANCH  20  22
ENDBRANCH  18  20
ENDBRANCH  16  18
ENDBRANCH   1  16
TORSDOF 6
ENDMDL
MODEL 9
REMARK VINA RESULT:      -6.8      7.912     10.123
REMARK  Name = Fenofibric acid
REMARK  8 active torsions:
REMARK  status: ('A' for Active; 'I' for Inactive)
REMARK    1  A    between atoms: C_1  and  C_2
REMARK    2  A    between atoms: C_2  and  C_3
REMARK    3  A    between atoms: C_2  and  O_4
REMARK    4  A    between atoms: C_2  and  C_20
REMARK    5  A    between atoms: O_4  and  C_5
REMARK    6  A    between atoms: C_8  and  C_11
REMARK    7  A    between atoms: C_11  and  C_13
REMARK    8  A    between atoms: C_20  and  O_21
REMARK                            x       y       z     vdW  Elec       q    Type
REMARK                         _______ _______ _______ _____ _____    ______ ____
ROOT
ATOM      1  C   UNL     1      -4.220   3.629 126.851  0.00  0.00    +0.000 A 
ATOM      2  C   UNL     1      -4.705   2.323 126.979  0.00  0.00    +0.000 A 
ATOM      3  C   UNL     1      -5.550   1.777 125.987  0.00  0.00    +0.000 A 
ATOM      4  C   UNL     1      -6.012   2.575 124.931  0.00  0.00    +0.000 A 
ATOM      5  C   UNL     1      -5.530   3.870 124.822  0.00  0.00    +0.000 A 
ATOM      6  C   UNL     1      -4.591   4.343 125.722  0.00  0.00    +0.000 A 
ENDROOT
BRANCH   4   7
ATOM      7  C   UNL     1      -7.016   2.071 123.955  0.00  0.00    +0.000 C 
ATOM      8  O   UNL     1      -7.768   1.148 124.254  0.00  0.00    +0.000 OA
BRANCH   7   9
ATOM      9  C   UNL     1      -7.160   2.695 122.614  0.00  0.00    +0.000 A 
ATOM     10  C   UNL     1      -6.022   2.913 121.829  0.00  0.00    +0.000 A 
ATOM     11  C   UNL     1      -6.142   3.591 120.610  0.00  0.00    +0.000 A 
ATOM     12  C   UNL     1      -7.403   3.967 120.143  0.00  0.00    +0.000 A 
ATOM     13 CL   UNL     1      -7.559   4.711 118.601  0.00  0.00    +0.000 Cl
ATOM     14  C   UNL     1      -8.542   3.723 120.908  0.00  0.00    +0.000 A 
ATOM     15  C   UNL     1      -8.418   3.108 122.155  0.00  0.00    +0.000 A 
ENDBRANCH   7   9
ENDBRANCH   4   7
BRANCH   1  16
ATOM     16  O   UNL     1      -3.312   4.103 127.761  0.00  0.00    +0.000 OA
BRANCH  16  18
ATOM     17  C   UNL     1      -5.250   5.004 129.112  0.00  0.00    +0.000 C 
ATOM     18  C   UNL     1      -3.740   4.989 128.836  0.00  0.00    +0.000 C 
ATOM     19  C   UNL     1      -2.998   4.614 130.127  0.00  0.00    +0.000 C 
BRANCH  18  20
ATOM     20  C   UNL     1      -3.274   6.422 128.437  0.00  0.00    +0.000 C 
ATOM     21  O   UNL     1      -4.023   7.399 128.422  0.00  0.00    +0.000 OA
BRANCH  20  22
ATOM     22  O   UNL     1      -1.982   6.583 128.057  0.00  0.00    +0.000 OA
ATOM     23  H   UNL     1      -1.782   6.958 127.180  0.00  0.00    +0.000 HD
ENDBRANCH  20  22
ENDBRANCH  18  20
ENDBRANCH  16  18
ENDBRANCH   1  16
TORSDOF 6
ENDMDL
