MODEL 1
REMARK VINA RESULT:      -7.4      0.000      0.000
REMARK  Name = Fenoldopam
REMARK  4 active torsions:
REMARK  status: ('A' for Active; 'I' for Inactive)
REMARK    1  A    between atoms: O_1  and  C_2
REMARK    2  A    between atoms: C_5  and  C_8
REMARK    3  A    between atoms: C_16  and  O_17
REMARK    4  A    between atoms: C_18  and  O_19
REMARK                            x       y       z     vdW  Elec       q    Type
REMARK                         _______ _______ _______ _____ _____    ______ ____
ROOT
ATOM      1  C   UNL     1      -6.792   2.827 123.648  0.00  0.00    +0.000 C 
ATOM      2  C   UNL     1      -8.009   2.712 123.073  0.00  0.00    +0.000 C 
ATOM      3  N   UNL     1      -8.237   3.837 124.272  0.00  0.00    +0.000 NA
ATOM      4  C   UNL     1      -7.847   3.268 125.459  0.00  0.00    +0.000 C 
ATOM      5  C   UNL     1      -7.887   3.458 126.827  0.00  0.00    +0.000 C 
ATOM      6  C   UNL     1      -7.607   1.983 126.863  0.00  0.00    +0.000 A 
ATOM      7  C   UNL     1      -7.904   1.920 128.674  0.00  0.00    +0.000 A 
ATOM      8 CL   UNL     1      -8.118   3.455 129.644  0.00  0.00    +0.000 Cl
ATOM      9  C   UNL     1      -7.918   0.872 129.551  0.00  0.00    +0.000 A 
ATOM     10  C   UNL     1      -7.686  -0.069 128.593  0.00  0.00    +0.000 A 
ATOM     11  C   UNL     1      -7.431   0.248 126.734  0.00  0.00    +0.000 A 
ATOM     12  C   UNL     1      -7.239   1.281 125.219  0.00  0.00    +0.000 A 
ATOM     13  H   UNL     1      -9.007   4.428 124.314  0.00  0.00    +0.000 HD
ENDROOT
BRANCH   1  17
ATOM     14  C   UNL     1      -6.194   5.318 118.723  0.00  0.00    +0.000 A 
ATOM     15  C   UNL     1      -7.438   4.754 118.823  0.00  0.00    +0.000 A 
ATOM     16  C   UNL     1      -7.895   3.838 120.218  0.00  0.00    +0.000 A 
ATOM     17  C   UNL     1      -7.019   3.511 121.707  0.00  0.00    +0.000 A 
ATOM     18  C   UNL     1      -5.883   4.146 121.106  0.00  0.00    +0.000 A 
ATOM     19  C   UNL     1      -5.464   4.962 119.836  0.00  0.00    +0.000 A 
BRANCH  14  20
ATOM     20  O   UNL     1      -5.638   6.121 117.766  0.00  0.00    +0.000 OA
ATOM     21  H   UNL     1      -6.262   6.636 117.223  0.00  0.00    +0.000 HD
ENDBRANCH  14  20
ENDBRANCH   1  17
BRANCH   9  22
ATOM     22  O   UNL     1      -8.075   0.756 130.919  0.00  0.00    +0.000 OA
ATOM     23  H   UNL     1      -7.662   1.473 131.467  0.00  0.00    +0.000 HD
ENDBRANCH   9  22
BRANCH  10  24
ATOM     24  O   UNL     1      -7.682  -1.420 129.466  0.00  0.00    +0.000 OA
ATOM     25  H   UNL     1      -7.921  -1.345 130.482  0.00  0.00    +0.000 HD
ENDBRANCH  10  24
TORSDOF 4
ENDMDL
MODEL 2
REMARK VINA RESULT:      -7.4      5.622     10.961
REMARK  Name = Fenoldopam
REMARK  4 active torsions:
REMARK  status: ('A' for Active; 'I' for Inactive)
REMARK    1  A    between atoms: O_1  and  C_2
REMARK    2  A    between atoms: C_5  and  C_8
REMARK    3  A    between atoms: C_16  and  O_17
REMARK    4  A    between atoms: C_18  and  O_19
REMARK                            x       y       z     vdW  Elec       q    Type
REMARK                         _______ _______ _______ _____ _____    ______ ____
ROOT
ATOM      1  C   UNL     1      -6.900  -2.680 129.147  0.00  0.00    +0.000 C 
ATOM      2  C   UNL     1      -7.941  -2.434 129.971  0.00  0.00    +0.000 C 
ATOM      3  N   UNL     1      -8.526  -3.573 128.915  0.00  0.00    +0.000 NA
ATOM      4  C   UNL     1      -8.368  -3.083 127.641  0.00  0.00    +0.000 C 
ATOM      5  C   UNL     1      -8.731  -3.316 126.329  0.00  0.00    +0.000 C 
ATOM      6  C   UNL     1      -8.346  -1.875 126.152  0.00  0.00    +0.000 A 
ATOM      7  C   UNL     1      -9.037  -1.847 124.450  0.00  0.00    +0.000 A 
ATOM      8 CL   UNL     1      -9.590  -3.388 123.636  0.00  0.00    +0.000 Cl
ATOM      9  C   UNL     1      -9.162  -0.833 123.543  0.00  0.00    +0.000 A 
ATOM     10  C   UNL     1      -8.643   0.115 124.373  0.00  0.00    +0.000 A 
ATOM     11  C   UNL     1      -8.002  -0.160 126.145  0.00  0.00    +0.000 A 
ATOM     12  C   UNL     1      -7.560  -1.154 127.633  0.00  0.00    +0.000 A 
ATOM     13  H   UNL     1      -9.332  -4.092 129.076  0.00  0.00    +0.000 HD
ENDROOT
BRANCH   1  17
ATOM     14  C   UNL     1      -5.675  -5.285 133.894  0.00  0.00    +0.000 A 
ATOM     15  C   UNL     1      -6.645  -4.342 134.105  0.00  0.00    +0.000 A 
ATOM     16  C   UNL     1      -7.184  -3.310 132.825  0.00  0.00    +0.000 A 
ATOM     17  C   UNL     1      -6.739  -3.273 131.124  0.00  0.00    +0.000 A 
ATOM     18  C   UNL     1      -5.738  -4.253 131.428  0.00  0.00    +0.000 A 
ATOM     19  C   UNL     1      -5.239  -5.176 132.592  0.00  0.00    +0.000 A 
BRANCH  14  20
ATOM     20  O   UNL     1      -5.142  -6.237 134.719  0.00  0.00    +0.000 OA
ATOM     21  H   UNL     1      -5.716  -6.999 134.920  0.00  0.00    +0.000 HD
ENDBRANCH  14  20
ENDBRANCH   1  17
BRANCH   9  22
ATOM     22  O   UNL     1      -9.612  -0.749 122.240  0.00  0.00    +0.000 OA
ATOM     23  H   UNL     1     -10.561  -0.480 122.123  0.00  0.00    +0.000 HD
ENDBRANCH   9  22
BRANCH  10  24
ATOM     24  O   UNL     1      -8.724   1.429 123.450  0.00  0.00    +0.000 OA
ATOM     25  H   UNL     1      -8.201   1.421 122.544  0.00  0.00    +0.000 HD
ENDBRANCH  10  24
TORSDOF 4
ENDMDL
MODEL 3
REMARK VINA RESULT:      -7.3      6.457     11.259
REMARK  Name = Fenoldopam
REMARK  4 active torsions:
REMARK  status: ('A' for Active; 'I' for Inactive)
REMARK    1  A    between atoms: O_1  and  C_2
REMARK    2  A    between atoms: C_5  and  C_8
REMARK    3  A    between atoms: C_16  and  O_17
REMARK    4  A    between atoms: C_18  and  O_19
REMARK                            x       y       z     vdW  Elec       q    Type
REMARK                         _______ _______ _______ _____ _____    ______ ____
ROOT
ATOM      1  C   UNL     1      -7.510  -2.750 130.043  0.00  0.00    +0.000 C 
ATOM      2  C   UNL     1      -6.755  -3.866 130.136  0.00  0.00    +0.000 C 
ATOM      3  N   UNL     1      -5.808  -2.814 129.270  0.00  0.00    +0.000 NA
ATOM      4  C   UNL     1      -6.527  -2.412 128.171  0.00  0.00    +0.000 C 
ATOM      5  C   UNL     1      -6.400  -1.745 126.967  0.00  0.00    +0.000 C 
ATOM      6  C   UNL     1      -7.678  -2.463 126.637  0.00  0.00    +0.000 A 
ATOM      7  C   UNL     1      -7.578  -1.937 124.881  0.00  0.00    +0.000 A 
ATOM      8 CL   UNL     1      -6.332  -0.716 124.335  0.00  0.00    +0.000 Cl
ATOM      9  C   UNL     1      -8.367  -2.231 123.804  0.00  0.00    +0.000 A 
ATOM     10  C   UNL     1      -9.189  -3.066 124.501  0.00  0.00    +0.000 A 
ATOM     11  C   UNL     1      -9.072  -3.481 126.355  0.00  0.00    +0.000 A 
ATOM     12  C   UNL     1      -8.394  -3.347 128.064  0.00  0.00    +0.000 A 
ATOM     13  H   UNL     1      -4.854  -2.936 129.135  0.00  0.00    +0.000 HD
ENDROOT
BRANCH   1  17
ATOM     14  C   UNL     1      -6.659  -3.402 135.491  0.00  0.00    +0.000 A 
ATOM     15  C   UNL     1      -5.603  -3.909 134.780  0.00  0.00    +0.000 A 
ATOM     16  C   UNL     1      -5.613  -3.921 133.049  0.00  0.00    +0.000 A 
ATOM     17  C   UNL     1      -6.794  -3.289 131.910  0.00  0.00    +0.000 A 
ATOM     18  C   UNL     1      -7.639  -3.013 133.034  0.00  0.00    +0.000 A 
ATOM     19  C   UNL     1      -7.637  -3.017 134.601  0.00  0.00    +0.000 A 
BRANCH  14  20
ATOM     20  O   UNL     1      -6.847  -3.232 136.834  0.00  0.00    +0.000 OA
ATOM     21  H   UNL     1      -6.460  -3.916 137.411  0.00  0.00    +0.000 HD
ENDBRANCH  14  20
ENDBRANCH   1  17
BRANCH   9  22
ATOM     22  O   UNL     1      -8.388  -1.832 122.482  0.00  0.00    +0.000 OA
ATOM     23  H   UNL     1      -8.444  -2.560 121.808  0.00  0.00    +0.000 HD
ENDBRANCH   9  22
BRANCH  10  24
ATOM     24  O   UNL     1     -10.213  -3.537 123.355  0.00  0.00    +0.000 OA
ATOM     25  H   UNL     1     -10.089  -3.138 122.396  0.00  0.00    +0.000 HD
ENDBRANCH  10  24
TORSDOF 4
ENDMDL
MODEL 4
REMARK VINA RESULT:      -7.2      8.746      9.834
REMARK  Name = Fenoldopam
REMARK  4 active torsions:
REMARK  status: ('A' for Active; 'I' for Inactive)
REMARK    1  A    between atoms: O_1  and  C_2
REMARK    2  A    between atoms: C_5  and  C_8
REMARK    3  A    between atoms: C_16  and  O_17
REMARK    4  A    between atoms: C_18  and  O_19
REMARK                            x       y       z     vdW  Elec       q    Type
REMARK                         _______ _______ _______ _____ _____    ______ ____
ROOT
ATOM      1  C   UNL     1      -8.238   5.806 132.348  0.00  0.00    +0.000 C 
ATOM      2  C   UNL     1      -9.395   5.222 132.729  0.00  0.00    +0.000 C 
ATOM      3  N   UNL     1      -8.898   6.045 134.082  0.00  0.00    +0.000 NA
ATOM      4  C   UNL     1      -7.632   5.613 134.393  0.00  0.00    +0.000 C 
ATOM      5  C   UNL     1      -6.674   5.664 135.387  0.00  0.00    +0.000 C 
ATOM      6  C   UNL     1      -6.129   4.456 134.680  0.00  0.00    +0.000 A 
ATOM      7  C   UNL     1      -4.936   4.136 136.040  0.00  0.00    +0.000 A 
ATOM      8 CL   UNL     1      -4.698   5.351 137.385  0.00  0.00    +0.000 Cl
ATOM      9  C   UNL     1      -4.042   3.122 136.236  0.00  0.00    +0.000 A 
ATOM     10  C   UNL     1      -4.398   2.448 135.107  0.00  0.00    +0.000 A 
ATOM     11  C   UNL     1      -5.712   2.982 133.837  0.00  0.00    +0.000 A 
ATOM     12  C   UNL     1      -6.973   4.106 133.100  0.00  0.00    +0.000 A 
ATOM     13  H   UNL     1      -9.479   6.242 134.835  0.00  0.00    +0.000 HD
ENDROOT
BRANCH   1  17
ATOM     14  C   UNL     1     -12.069   8.322 129.215  0.00  0.00    +0.000 A 
ATOM     15  C   UNL     1     -12.664   7.674 130.265  0.00  0.00    +0.000 A 
ATOM     16  C   UNL     1     -11.732   6.731 131.378  0.00  0.00    +0.000 A 
ATOM     17  C   UNL     1      -9.996   6.469 131.478  0.00  0.00    +0.000 A 
ATOM     18  C   UNL     1      -9.880   7.178 130.238  0.00  0.00    +0.000 A 
ATOM     19  C   UNL     1     -10.726   8.018 129.222  0.00  0.00    +0.000 A 
BRANCH  14  20
ATOM     20  O   UNL     1     -12.579   9.158 128.261  0.00  0.00    +0.000 OA
ATOM     21  H   UNL     1     -12.680   8.778 127.368  0.00  0.00    +0.000 HD
ENDBRANCH  14  20
ENDBRANCH   1  17
BRANCH   9  22
ATOM     22  O   UNL     1      -3.084   2.848 137.193  0.00  0.00    +0.000 OA
ATOM     23  H   UNL     1      -2.154   2.736 136.860  0.00  0.00    +0.000 HD
ENDBRANCH   9  22
BRANCH  10  24
ATOM     24  O   UNL     1      -3.425   1.170 135.176  0.00  0.00    +0.000 OA
ATOM     25  H   UNL     1      -2.716   1.055 134.416  0.00  0.00    +0.000 HD
ENDBRANCH  10  24
TORSDOF 4
ENDMDL
MODEL 5
REMARK VINA RESULT:      -7.1      2.597      8.945
REMARK  Name = Fenoldopam
REMARK  4 active torsions:
REMARK  status: ('A' for Active; 'I' for Inactive)
REMARK    1  A    between atoms: O_1  and  C_2
REMARK    2  A    between atoms: C_5  and  C_8
REMARK    3  A    between atoms: C_16  and  O_17
REMARK    4  A    between atoms: C_18  and  O_19
REMARK                            x       y       z     vdW  Elec       q    Type
REMARK                         _______ _______ _______ _____ _____    ______ ____
ROOT
ATOM      1  C   UNL     1      -8.064   2.286 125.839  0.00  0.00    +0.000 C 
ATOM      2  C   UNL     1      -7.938   0.947 125.723  0.00  0.00    +0.000 C 
ATOM      3  N   UNL     1      -6.472   1.533 125.210  0.00  0.00    +0.000 NA
ATOM      4  C   UNL     1      -6.709   2.416 124.185  0.00  0.00    +0.000 C 
ATOM      5  C   UNL     1      -6.071   3.129 123.189  0.00  0.00    +0.000 C 
ATOM      6  C   UNL     1      -7.451   3.195 122.597  0.00  0.00    +0.000 A 
ATOM      7  C   UNL     1      -6.799   3.896 121.030  0.00  0.00    +0.000 A 
ATOM      8 CL   UNL     1      -5.055   4.426 120.892  0.00  0.00    +0.000 Cl
ATOM      9  C   UNL     1      -7.422   4.214 119.855  0.00  0.00    +0.000 A 
ATOM     10  C   UNL     1      -8.647   3.781 120.265  0.00  0.00    +0.000 A 
ATOM     11  C   UNL     1      -9.077   3.053 121.971  0.00  0.00    +0.000 A 
ATOM     12  C   UNL     1      -8.742   2.545 123.710  0.00  0.00    +0.000 A 
ATOM     13  H   UNL     1      -5.674   0.986 125.126  0.00  0.00    +0.000 HD
ENDROOT
BRANCH   1  17
ATOM     14  C   UNL     1      -8.223   0.502 131.094  0.00  0.00    +0.000 A 
ATOM     15  C   UNL     1      -7.776  -0.494 130.266  0.00  0.00    +0.000 A 
ATOM     16  C   UNL     1      -7.691  -0.263 128.553  0.00  0.00    +0.000 A 
ATOM     17  C   UNL     1      -8.033   1.157 127.574  0.00  0.00    +0.000 A 
ATOM     18  C   UNL     1      -8.513   1.789 128.768  0.00  0.00    +0.000 A 
ATOM     19  C   UNL     1      -8.605   1.573 130.317  0.00  0.00    +0.000 A 
BRANCH  14  20
ATOM     20  O   UNL     1      -8.318   0.572 132.456  0.00  0.00    +0.000 OA
ATOM     21  H   UNL     1      -7.902   1.348 132.874  0.00  0.00    +0.000 HD
ENDBRANCH  14  20
ENDBRANCH   1  17
BRANCH   9  22
ATOM     22  O   UNL     1      -7.013   4.791 118.668  0.00  0.00    +0.000 OA
ATOM     23  H   UNL     1      -6.096   5.171 118.661  0.00  0.00    +0.000 HD
ENDBRANCH   9  22
BRANCH  10  24
ATOM     24  O   UNL     1      -9.542   4.074 118.963  0.00  0.00    +0.000 OA
ATOM     25  H   UNL     1     -10.370   3.457 118.792  0.00  0.00    +0.000 HD
ENDBRANCH  10  24
TORSDOF 4
ENDMDL
MODEL 6
REMARK VINA RESULT:      -7.1      5.601      7.074
REMARK  Name = Fenoldopam
REMARK  4 active torsions:
REMARK  status: ('A' for Active; 'I' for Inactive)
REMARK    1  A    between atoms: O_1  and  C_2
REMARK    2  A    between atoms: C_5  and  C_8
REMARK    3  A    between atoms: C_16  and  O_17
REMARK    4  A    between atoms: C_18  and  O_19
REMARK                            x       y       z     vdW  Elec       q    Type
REMARK                         _______ _______ _______ _____ _____    ______ ____
ROOT
ATOM      1  C   UNL     1      -6.126   1.075 126.474  0.00  0.00    +0.000 C 
ATOM      2  C   UNL     1      -5.193   0.187 126.068  0.00  0.00    +0.000 C 
ATOM      3  N   UNL     1      -5.082   0.154 127.723  0.00  0.00    +0.000 NA
ATOM      4  C   UNL     1      -4.847   1.437 128.153  0.00  0.00    +0.000 C 
ATOM      5  C   UNL     1      -4.482   2.166 129.269  0.00  0.00    +0.000 C 
ATOM      6  C   UNL     1      -4.133   3.215 128.252  0.00  0.00    +0.000 A 
ATOM      7  C   UNL     1      -3.315   4.252 129.528  0.00  0.00    +0.000 A 
ATOM      8 CL   UNL     1      -3.447   3.834 131.303  0.00  0.00    +0.000 Cl
ATOM      9  C   UNL     1      -2.630   5.430 129.431  0.00  0.00    +0.000 A 
ATOM     10  C   UNL     1      -2.744   5.506 128.075  0.00  0.00    +0.000 A 
ATOM     11  C   UNL     1      -3.641   4.266 126.943  0.00  0.00    +0.000 A 
ATOM     12  C   UNL     1      -4.663   2.781 126.560  0.00  0.00    +0.000 A 
ATOM     13  H   UNL     1      -4.634  -0.551 128.218  0.00  0.00    +0.000 HD
ENDROOT
BRANCH   1  17
ATOM     14  C   UNL     1      -9.057  -2.896 123.932  0.00  0.00    +0.000 A 
ATOM     15  C   UNL     1      -7.868  -3.400 124.387  0.00  0.00    +0.000 A 
ATOM     16  C   UNL     1      -6.700  -2.381 125.157  0.00  0.00    +0.000 A 
ATOM     17  C   UNL     1      -6.772  -0.674 125.573  0.00  0.00    +0.000 A 
ATOM     18  C   UNL     1      -8.015  -0.616 124.860  0.00  0.00    +0.000 A 
ATOM     19  C   UNL     1      -9.065  -1.536 124.149  0.00  0.00    +0.000 A 
BRANCH  14  20
ATOM     20  O   UNL     1     -10.139  -3.505 123.359  0.00  0.00    +0.000 OA
ATOM     21  H   UNL     1     -10.703  -4.028 123.959  0.00  0.00    +0.000 HD
ENDBRANCH  14  20
ENDBRANCH   1  17
BRANCH   9  22
ATOM     22  O   UNL     1      -2.043   6.287 130.342  0.00  0.00    +0.000 OA
ATOM     23  H   UNL     1      -2.467   6.325 131.239  0.00  0.00    +0.000 HD
ENDBRANCH   9  22
BRANCH  10  24
ATOM     24  O   UNL     1      -1.957   6.873 127.764  0.00  0.00    +0.000 OA
ATOM     25  H   UNL     1      -2.524   7.742 127.629  0.00  0.00    +0.000 HD
ENDBRANCH  10  24
TORSDOF 4
ENDMDL
MODEL 7
REMARK VINA RESULT:      -6.9      7.285      9.095
REMARK  Name = Fenoldopam
REMARK  4 active torsions:
REMARK  status: ('A' for Active; 'I' for Inactive)
REMARK    1  A    between atoms: O_1  and  C_2
REMARK    2  A    between atoms: C_5  and  C_8
REMARK    3  A    between atoms: C_16  and  O_17
REMARK    4  A    between atoms: C_18  and  O_19
REMARK                            x       y       z     vdW  Elec       q    Type
REMARK                         _______ _______ _______ _____ _____    ______ ____
ROOT
ATOM      1  C   UNL     1      -7.699  -3.329 129.751  0.00  0.00    +0.000 C 
ATOM      2  C   UNL     1      -6.839  -2.438 129.212  0.00  0.00    +0.000 C 
ATOM      3  N   UNL     1      -5.863  -3.680 129.720  0.00  0.00    +0.000 NA
ATOM      4  C   UNL     1      -6.094  -3.874 131.059  0.00  0.00    +0.000 C 
ATOM      5  C   UNL     1      -5.600  -4.533 132.169  0.00  0.00    +0.000 C 
ATOM      6  C   UNL     1      -6.412  -3.514 132.917  0.00  0.00    +0.000 A 
ATOM      7  C   UNL     1      -5.667  -4.021 134.517  0.00  0.00    +0.000 A 
ATOM      8 CL   UNL     1      -4.608  -5.507 134.630  0.00  0.00    +0.000 Cl
ATOM      9  C   UNL     1      -5.818  -3.524 135.781  0.00  0.00    +0.000 A 
ATOM     10  C   UNL     1      -6.658  -2.521 135.399  0.00  0.00    +0.000 A 
ATOM     11  C   UNL     1      -7.280  -2.176 133.634  0.00  0.00    +0.000 A 
ATOM     12  C   UNL     1      -7.470  -2.500 131.829  0.00  0.00    +0.000 A 
ATOM     13  H   UNL     1      -4.945  -3.798 129.423  0.00  0.00    +0.000 HD
ENDROOT
BRANCH   1  17
ATOM     14  C   UNL     1      -9.182  -3.059 124.408  0.00  0.00    +0.000 A 
ATOM     15  C   UNL     1      -7.855  -2.751 124.550  0.00  0.00    +0.000 A 
ATOM     16  C   UNL     1      -7.116  -2.675 126.113  0.00  0.00    +0.000 A 
ATOM     17  C   UNL     1      -7.778  -3.014 127.706  0.00  0.00    +0.000 A 
ATOM     18  C   UNL     1      -9.059  -3.154 127.077  0.00  0.00    +0.000 A 
ATOM     19  C   UNL     1      -9.731  -3.207 125.663  0.00  0.00    +0.000 A 
BRANCH  14  20
ATOM     20  O   UNL     1      -9.957  -3.236 123.295  0.00  0.00    +0.000 OA
ATOM     21  H   UNL     1      -9.478  -3.409 122.463  0.00  0.00    +0.000 HD
ENDBRANCH  14  20
ENDBRANCH   1  17
BRANCH   9  22
ATOM     22  O   UNL     1      -5.342  -3.885 137.026  0.00  0.00    +0.000 OA
ATOM     23  H   UNL     1      -4.370  -4.080 137.082  0.00  0.00    +0.000 HD
ENDBRANCH   9  22
BRANCH  10  24
ATOM     24  O   UNL     1      -6.944  -1.792 136.803  0.00  0.00    +0.000 OA
ATOM     25  H   UNL     1      -7.164  -2.394 137.630  0.00  0.00    +0.000 HD
ENDBRANCH  10  24
TORSDOF 4
ENDMDL
MODEL 8
REMARK VINA RESULT:      -6.8      7.136      8.117
REMARK  Name = Fenoldopam
REMARK  4 active torsions:
REMARK  status: ('A' for Active; 'I' for Inactive)
REMARK    1  A    between atoms: O_1  and  C_2
REMARK    2  A    between atoms: C_5  and  C_8
REMARK    3  A    between atoms: C_16  and  O_17
REMARK    4  A    between atoms: C_18  and  O_19
REMARK                            x       y       z     vdW  Elec       q    Type
REMARK                         _______ _______ _______ _____ _____    ______ ____
ROOT
ATOM      1  C   UNL     1      -9.431   4.072 130.455  0.00  0.00    +0.000 C 
ATOM      2  C   UNL     1     -10.738   3.735 130.409  0.00  0.00    +0.000 C 
ATOM      3  N   UNL     1     -10.233   3.179 131.889  0.00  0.00    +0.000 NA
ATOM      4  C   UNL     1      -9.172   2.333 131.678  0.00  0.00    +0.000 C 
ATOM      5  C   UNL     1      -8.374   1.403 132.316  0.00  0.00    +0.000 C 
ATOM      6  C   UNL     1      -8.065   0.967 130.911  0.00  0.00    +0.000 A 
ATOM      7  C   UNL     1      -7.185  -0.528 131.515  0.00  0.00    +0.000 A 
ATOM      8 CL   UNL     1      -6.827  -0.752 133.294  0.00  0.00    +0.000 Cl
ATOM      9  C   UNL     1      -6.613  -1.571 130.843  0.00  0.00    +0.000 A 
ATOM     10  C   UNL     1      -6.976  -1.115 129.612  0.00  0.00    +0.000 A 
ATOM     11  C   UNL     1      -7.929   0.489 129.235  0.00  0.00    +0.000 A 
ATOM     12  C   UNL     1      -8.752   2.087 129.645  0.00  0.00    +0.000 A 
ATOM     13  H   UNL     1     -10.840   2.932 132.607  0.00  0.00    +0.000 HD
ENDROOT
BRANCH   1  17
ATOM     14  C   UNL     1     -12.376   8.685 129.523  0.00  0.00    +0.000 A 
ATOM     15  C   UNL     1     -12.821   8.056 130.656  0.00  0.00    +0.000 A 
ATOM     16  C   UNL     1     -12.147   6.545 131.165  0.00  0.00    +0.000 A 
ATOM     17  C   UNL     1     -10.830   5.597 130.488  0.00  0.00    +0.000 A 
ATOM     18  C   UNL     1     -10.806   6.524 129.395  0.00  0.00    +0.000 A 
ATOM     19  C   UNL     1     -11.428   7.884 128.926  0.00  0.00    +0.000 A 
BRANCH  14  20
ATOM     20  O   UNL     1     -12.706   9.889 128.967  0.00  0.00    +0.000 OA
ATOM     21  H   UNL     1     -13.346   9.861 128.232  0.00  0.00    +0.000 HD
ENDBRANCH  14  20
ENDBRANCH   1  17
BRANCH   9  22
ATOM     22  O   UNL     1      -5.893  -2.688 131.222  0.00  0.00    +0.000 OA
ATOM     23  H   UNL     1      -6.317  -3.269 131.907  0.00  0.00    +0.000 HD
ENDBRANCH   9  22
BRANCH  10  24
ATOM     24  O   UNL     1      -6.378  -2.262 128.657  0.00  0.00    +0.000 OA
ATOM     25  H   UNL     1      -6.606  -2.215 127.637  0.00  0.00    +0.000 HD
ENDBRANCH  10  24
TORSDOF 4
ENDMDL
MODEL 9
REMARK VINA RESULT:      -6.8      5.705      8.833
REMARK  Name = Fenoldopam
REMARK  4 active torsions:
REMARK  status: ('A' for Active; 'I' for Inactive)
REMARK    1  A    between atoms: O_1  and  C_2
REMARK    2  A    between atoms: C_5  and  C_8
REMARK    3  A    between atoms: C_16  and  O_17
REMARK    4  A    between atoms: C_18  and  O_19
REMARK                            x       y       z     vdW  Elec       q    Type
REMARK                         _______ _______ _______ _____ _____    ______ ____
ROOT
ATOM      1  C   UNL     1      -4.838   4.898 128.704  0.00  0.00    +0.000 C 
ATOM      2  C   UNL     1      -4.246   3.752 129.103  0.00  0.00    +0.000 C 
ATOM      3  N   UNL     1      -3.603   4.032 127.599  0.00  0.00    +0.000 NA
ATOM      4  C   UNL     1      -4.645   4.139 126.711  0.00  0.00    +0.000 C 
ATOM      5  C   UNL     1      -4.927   4.186 125.360  0.00  0.00    +0.000 C 
ATOM      6  C   UNL     1      -6.307   3.801 125.815  0.00  0.00    +0.000 A 
ATOM      7  C   UNL     1      -6.850   3.508 124.085  0.00  0.00    +0.000 A 
ATOM      8 CL   UNL     1      -5.786   3.979 122.674  0.00  0.00    +0.000 Cl
ATOM      9  C   UNL     1      -8.030   3.043 123.576  0.00  0.00    +0.000 A 
ATOM     10  C   UNL     1      -8.600   2.845 124.797  0.00  0.00    +0.000 A 
ATOM     11  C   UNL     1      -7.808   3.211 126.489  0.00  0.00    +0.000 A 
ATOM     12  C   UNL     1      -6.498   3.829 127.629  0.00  0.00    +0.000 A 
ATOM     13  H   UNL     1      -2.802   3.594 127.267  0.00  0.00    +0.000 HD
ENDROOT
BRANCH   1  17
ATOM     14  C   UNL     1      -0.863   6.312 132.314  0.00  0.00    +0.000 A 
ATOM     15  C   UNL     1      -1.319   5.048 132.578  0.00  0.00    +0.000 A 
ATOM     16  C   UNL     1      -2.617   4.356 131.667  0.00  0.00    +0.000 A 
ATOM     17  C   UNL     1      -3.510   4.988 130.291  0.00  0.00    +0.000 A 
ATOM     18  C   UNL     1      -2.807   6.222 130.480  0.00  0.00    +0.000 A 
ATOM     19  C   UNL     1      -1.642   6.855 131.315  0.00  0.00    +0.000 A 
BRANCH  14  20
ATOM     20  O   UNL     1       0.169   7.033 132.847  0.00  0.00    +0.000 OA
ATOM     21  H   UNL     1       0.537   6.698 133.685  0.00  0.00    +0.000 HD
ENDBRANCH  14  20
ENDBRANCH   1  17
BRANCH   9  22
ATOM     22  O   UNL     1      -8.526   2.853 122.301  0.00  0.00    +0.000 OA
ATOM     23  H   UNL     1      -9.193   2.124 122.196  0.00  0.00    +0.000 HD
ENDBRANCH   9  22
BRANCH  10  24
ATOM     24  O   UNL     1     -10.043   2.266 124.387  0.00  0.00    +0.000 OA
ATOM     25  H   UNL     1     -10.076   1.347 123.888  0.00  0.00    +0.000 HD
ENDBRANCH  10  24
TORSDOF 4
ENDMDL
