MODEL 1
REMARK VINA RESULT:      -7.0      0.000      0.000
REMARK  Name = Fenoprofen
REMARK  6 active torsions:
REMARK  status: ('A' for Active; 'I' for Inactive)
REMARK    1  A    between atoms: C_1  and  C_2
REMARK    2  A    between atoms: C_2  and  C_3
REMARK    3  A    between atoms: C_2  and  C_6
REMARK    4  A    between atoms: C_3  and  O_4
REMARK    5  A    between atoms: C_8  and  O_9
REMARK    6  A    between atoms: O_9  and  C_10
REMARK                            x       y       z     vdW  Elec       q    Type
REMARK                         _______ _______ _______ _____ _____    ______ ____
ROOT
ATOM      1  C   UNL     1      -8.296  -0.162 123.335  0.00  0.00    +0.000 A 
ATOM      2  C   UNL     1      -7.273   0.792 123.197  0.00  0.00    +0.000 A 
ATOM      3  C   UNL     1      -7.527   2.148 123.437  0.00  0.00    +0.000 A 
ATOM      4  C   UNL     1      -8.796   2.563 123.839  0.00  0.00    +0.000 A 
ATOM      5  C   UNL     1      -9.764   1.628 124.141  0.00  0.00    +0.000 A 
ATOM      6  C   UNL     1      -9.511   0.287 123.892  0.00  0.00    +0.000 A 
ENDROOT
BRANCH   1   8
ATOM      7  C   UNL     1      -6.633  -2.071 123.032  0.00  0.00    +0.000 C 
ATOM      8  C   UNL     1      -8.120  -1.654 123.037  0.00  0.00    +0.000 C 
BRANCH   8   9
ATOM      9  C   UNL     1      -8.847  -2.689 123.896  0.00  0.00    +0.000 C 
ATOM     10  O   UNL     1      -8.404  -3.042 124.989  0.00  0.00    +0.000 OA
BRANCH   9  11
ATOM     11  O   UNL     1     -10.023  -3.185 123.470  0.00  0.00    +0.000 OA
ATOM     12  H   UNL     1     -10.503  -3.759 124.092  0.00  0.00    +0.000 HD
ENDBRANCH   9  11
ENDBRANCH   8   9
ENDBRANCH   1   8
BRANCH   3  13
ATOM     13  O   UNL     1      -6.472   3.010 123.239  0.00  0.00    +0.000 OA
BRANCH  13  14
ATOM     14  C   UNL     1      -6.360   3.618 122.009  0.00  0.00    +0.000 A 
ATOM     15  C   UNL     1      -5.170   4.288 121.749  0.00  0.00    +0.000 A 
ATOM     16  C   UNL     1      -5.003   4.943 120.531  0.00  0.00    +0.000 A 
ATOM     17  C   UNL     1      -5.994   4.862 119.550  0.00  0.00    +0.000 A 
ATOM     18  C   UNL     1      -7.183   4.180 119.807  0.00  0.00    +0.000 A 
ATOM     19  C   UNL     1      -7.385   3.595 121.053  0.00  0.00    +0.000 A 
ENDBRANCH  13  14
ENDBRANCH   3  13
TORSDOF 5
ENDMDL
MODEL 2
REMARK VINA RESULT:      -7.0      9.070     11.385
REMARK  Name = Fenoprofen
REMARK  6 active torsions:
REMARK  status: ('A' for Active; 'I' for Inactive)
REMARK    1  A    between atoms: C_1  and  C_2
REMARK    2  A    between atoms: C_2  and  C_3
REMARK    3  A    between atoms: C_2  and  C_6
REMARK    4  A    between atoms: C_3  and  O_4
REMARK    5  A    between atoms: C_8  and  O_9
REMARK    6  A    between atoms: O_9  and  C_10
REMARK                            x       y       z     vdW  Elec       q    Type
REMARK                         _______ _______ _______ _____ _____    ______ ____
ROOT
ATOM      1  C   UNL     1     -12.092   6.741 129.292  0.00  0.00    +0.000 A 
ATOM      2  C   UNL     1     -11.281   5.691 129.756  0.00  0.00    +0.000 A 
ATOM      3  C   UNL     1     -11.027   5.538 131.124  0.00  0.00    +0.000 A 
ATOM      4  C   UNL     1     -11.598   6.414 132.046  0.00  0.00    +0.000 A 
ATOM      5  C   UNL     1     -12.528   7.344 131.628  0.00  0.00    +0.000 A 
ATOM      6  C   UNL     1     -12.769   7.499 130.271  0.00  0.00    +0.000 A 
ENDROOT
BRANCH   1   8
ATOM      7  C   UNL     1     -13.731   7.724 127.605  0.00  0.00    +0.000 C 
ATOM      8  C   UNL     1     -12.374   7.016 127.813  0.00  0.00    +0.000 C 
BRANCH   8   9
ATOM      9  C   UNL     1     -11.357   7.797 126.980  0.00  0.00    +0.000 C 
ATOM     10  O   UNL     1     -11.172   7.544 125.789  0.00  0.00    +0.000 OA
BRANCH   9  11
ATOM     11  O   UNL     1     -10.690   8.817 127.549  0.00  0.00    +0.000 OA
ATOM     12  H   UNL     1     -10.407   9.536 126.956  0.00  0.00    +0.000 HD
ENDBRANCH   9  11
ENDBRANCH   8   9
ENDBRANCH   1   8
BRANCH   3  13
ATOM     13  O   UNL     1     -10.190   4.503 131.477  0.00  0.00    +0.000 OA
BRANCH  13  14
ATOM     14  C   UNL     1      -9.184   4.769 132.378  0.00  0.00    +0.000 A 
ATOM     15  C   UNL     1      -9.224   4.073 133.582  0.00  0.00    +0.000 A 
ATOM     16  C   UNL     1      -8.247   4.314 134.545  0.00  0.00    +0.000 A 
ATOM     17  C   UNL     1      -7.195   5.190 134.273  0.00  0.00    +0.000 A 
ATOM     18  C   UNL     1      -7.149   5.879 133.061  0.00  0.00    +0.000 A 
ATOM     19  C   UNL     1      -8.168   5.702 132.130  0.00  0.00    +0.000 A 
ENDBRANCH  13  14
ENDBRANCH   3  13
TORSDOF 5
ENDMDL
MODEL 3
REMARK VINA RESULT:      -6.9      1.870      6.626
REMARK  Name = Fenoprofen
REMARK  6 active torsions:
REMARK  status: ('A' for Active; 'I' for Inactive)
REMARK    1  A    between atoms: C_1  and  C_2
REMARK    2  A    between atoms: C_2  and  C_3
REMARK    3  A    between atoms: C_2  and  C_6
REMARK    4  A    between atoms: C_3  and  O_4
REMARK    5  A    between atoms: C_8  and  O_9
REMARK    6  A    between atoms: O_9  and  C_10
REMARK                            x       y       z     vdW  Elec       q    Type
REMARK                         _______ _______ _______ _____ _____    ______ ____
ROOT
ATOM      1  C   UNL     1      -6.656   3.281 121.628  0.00  0.00    +0.000 A 
ATOM      2  C   UNL     1      -6.412   2.268 122.571  0.00  0.00    +0.000 A 
ATOM      3  C   UNL     1      -7.472   1.662 123.255  0.00  0.00    +0.000 A 
ATOM      4  C   UNL     1      -8.787   2.042 122.989  0.00  0.00    +0.000 A 
ATOM      5  C   UNL     1      -9.057   2.910 121.951  0.00  0.00    +0.000 A 
ATOM      6  C   UNL     1      -8.004   3.516 121.284  0.00  0.00    +0.000 A 
ENDROOT
BRANCH   1   8
ATOM      7  C   UNL     1      -6.092   4.733 119.608  0.00  0.00    +0.000 C 
ATOM      8  C   UNL     1      -5.554   4.037 120.879  0.00  0.00    +0.000 C 
BRANCH   8   9
ATOM      9  C   UNL     1      -4.719   5.086 121.614  0.00  0.00    +0.000 C 
ATOM     10  O   UNL     1      -4.483   4.990 122.819  0.00  0.00    +0.000 OA
BRANCH   9  11
ATOM     11  O   UNL     1      -4.190   6.108 120.918  0.00  0.00    +0.000 OA
ATOM     12  H   UNL     1      -4.813   6.651 120.402  0.00  0.00    +0.000 HD
ENDBRANCH   9  11
ENDBRANCH   8   9
ENDBRANCH   1   8
BRANCH   3  13
ATOM     13  O   UNL     1      -7.131   0.707 124.187  0.00  0.00    +0.000 OA
BRANCH  13  14
ATOM     14  C   UNL     1      -7.764  -0.513 124.118  0.00  0.00    +0.000 A 
ATOM     15  C   UNL     1      -8.431  -0.936 125.263  0.00  0.00    +0.000 A 
ATOM     16  C   UNL     1      -9.072  -2.172 125.265  0.00  0.00    +0.000 A 
ATOM     17  C   UNL     1      -9.109  -2.945 124.103  0.00  0.00    +0.000 A 
ATOM     18  C   UNL     1      -8.449  -2.516 122.952  0.00  0.00    +0.000 A 
ATOM     19  C   UNL     1      -7.739  -1.320 122.972  0.00  0.00    +0.000 A 
ENDBRANCH  13  14
ENDBRANCH   3  13
TORSDOF 5
ENDMDL
MODEL 4
REMARK VINA RESULT:      -6.8      7.828      9.117
REMARK  Name = Fenoprofen
REMARK  6 active torsions:
REMARK  status: ('A' for Active; 'I' for Inactive)
REMARK    1  A    between atoms: C_1  and  C_2
REMARK    2  A    between atoms: C_2  and  C_3
REMARK    3  A    between atoms: C_2  and  C_6
REMARK    4  A    between atoms: C_3  and  O_4
REMARK    5  A    between atoms: C_8  and  O_9
REMARK    6  A    between atoms: O_9  and  C_10
REMARK                            x       y       z     vdW  Elec       q    Type
REMARK                         _______ _______ _______ _____ _____    ______ ____
ROOT
ATOM      1  C   UNL     1      -9.212   4.219 130.686  0.00  0.00    +0.000 A 
ATOM      2  C   UNL     1     -10.137   5.226 130.362  0.00  0.00    +0.000 A 
ATOM      3  C   UNL     1      -9.786   6.577 130.469  0.00  0.00    +0.000 A 
ATOM      4  C   UNL     1      -8.502   6.937 130.877  0.00  0.00    +0.000 A 
ATOM      5  C   UNL     1      -7.532   5.969 131.037  0.00  0.00    +0.000 A 
ATOM      6  C   UNL     1      -7.887   4.632 130.941  0.00  0.00    +0.000 A 
ENDROOT
BRANCH   1   8
ATOM      7  C   UNL     1      -8.419   1.909 129.953  0.00  0.00    +0.000 C 
ATOM      8  C   UNL     1      -9.531   2.721 130.654  0.00  0.00    +0.000 C 
BRANCH   8   9
ATOM      9  C   UNL     1      -9.837   1.982 131.957  0.00  0.00    +0.000 C 
ATOM     10  O   UNL     1      -9.942   0.756 131.991  0.00  0.00    +0.000 OA
BRANCH   9  11
ATOM     11  O   UNL     1      -9.941   2.685 133.100  0.00  0.00    +0.000 OA
ATOM     12  H   UNL     1     -10.772   3.174 133.234  0.00  0.00    +0.000 HD
ENDBRANCH   9  11
ENDBRANCH   8   9
ENDBRANCH   1   8
BRANCH   3  13
ATOM     13  O   UNL     1     -10.771   7.489 130.166  0.00  0.00    +0.000 OA
BRANCH  13  14
ATOM     14  C   UNL     1     -11.376   7.396 128.933  0.00  0.00    +0.000 A 
ATOM     15  C   UNL     1     -10.568   7.617 127.822  0.00  0.00    +0.000 A 
ATOM     16  C   UNL     1     -11.126   7.559 126.547  0.00  0.00    +0.000 A 
ATOM     17  C   UNL     1     -12.467   7.208 126.383  0.00  0.00    +0.000 A 
ATOM     18  C   UNL     1     -13.274   6.977 127.496  0.00  0.00    +0.000 A 
ATOM     19  C   UNL     1     -12.740   7.114 128.774  0.00  0.00    +0.000 A 
ENDBRANCH  13  14
ENDBRANCH   3  13
TORSDOF 5
ENDMDL
MODEL 5
REMARK VINA RESULT:      -6.7      8.506     10.357
REMARK  Name = Fenoprofen
REMARK  6 active torsions:
REMARK  status: ('A' for Active; 'I' for Inactive)
REMARK    1  A    between atoms: C_1  and  C_2
REMARK    2  A    between atoms: C_2  and  C_3
REMARK    3  A    between atoms: C_2  and  C_6
REMARK    4  A    between atoms: C_3  and  O_4
REMARK    5  A    between atoms: C_8  and  O_9
REMARK    6  A    between atoms: O_9  and  C_10
REMARK                            x       y       z     vdW  Elec       q    Type
REMARK                         _______ _______ _______ _____ _____    ______ ____
ROOT
ATOM      1  C   UNL     1     -12.074   6.681 129.343  0.00  0.00    +0.000 A 
ATOM      2  C   UNL     1     -11.098   5.803 129.844  0.00  0.00    +0.000 A 
ATOM      3  C   UNL     1     -10.839   5.735 131.218  0.00  0.00    +0.000 A 
ATOM      4  C   UNL     1     -11.567   6.523 132.109  0.00  0.00    +0.000 A 
ATOM      5  C   UNL     1     -12.639   7.264 131.656  0.00  0.00    +0.000 A 
ATOM      6  C   UNL     1     -12.885   7.337 130.293  0.00  0.00    +0.000 A 
ENDROOT
BRANCH   1   8
ATOM      7  C   UNL     1     -13.593   7.790 127.621  0.00  0.00    +0.000 C 
ATOM      8  C   UNL     1     -12.380   6.861 127.853  0.00  0.00    +0.000 C 
BRANCH   8   9
ATOM      9  C   UNL     1     -11.284   7.353 126.908  0.00  0.00    +0.000 C 
ATOM     10  O   UNL     1     -10.903   8.524 126.919  0.00  0.00    +0.000 OA
BRANCH   9  11
ATOM     11  O   UNL     1     -10.687   6.474 126.083  0.00  0.00    +0.000 OA
ATOM     12  H   UNL     1     -10.118   5.804 126.501  0.00  0.00    +0.000 HD
ENDBRANCH   9  11
ENDBRANCH   8   9
ENDBRANCH   1   8
BRANCH   3  13
ATOM     13  O   UNL     1      -9.839   4.872 131.608  0.00  0.00    +0.000 OA
BRANCH  13  14
ATOM     14  C   UNL     1      -8.547   5.184 131.251  0.00  0.00    +0.000 A 
ATOM     15  C   UNL     1      -8.066   6.422 131.663  0.00  0.00    +0.000 A 
ATOM     16  C   UNL     1      -6.773   6.806 131.314  0.00  0.00    +0.000 A 
ATOM     17  C   UNL     1      -5.942   5.923 130.622  0.00  0.00    +0.000 A 
ATOM     18  C   UNL     1      -6.421   4.677 130.218  0.00  0.00    +0.000 A 
ATOM     19  C   UNL     1      -7.738   4.324 130.495  0.00  0.00    +0.000 A 
ENDBRANCH  13  14
ENDBRANCH   3  13
TORSDOF 5
ENDMDL
MODEL 6
REMARK VINA RESULT:      -6.7      1.569      1.966
REMARK  Name = Fenoprofen
REMARK  6 active torsions:
REMARK  status: ('A' for Active; 'I' for Inactive)
REMARK    1  A    between atoms: C_1  and  C_2
REMARK    2  A    between atoms: C_2  and  C_3
REMARK    3  A    between atoms: C_2  and  C_6
REMARK    4  A    between atoms: C_3  and  O_4
REMARK    5  A    between atoms: C_8  and  O_9
REMARK    6  A    between atoms: O_9  and  C_10
REMARK                            x       y       z     vdW  Elec       q    Type
REMARK                         _______ _______ _______ _____ _____    ______ ____
ROOT
ATOM      1  C   UNL     1      -8.153  -0.603 123.502  0.00  0.00    +0.000 A 
ATOM      2  C   UNL     1      -7.625   0.688 123.679  0.00  0.00    +0.000 A 
ATOM      3  C   UNL     1      -8.304   1.808 123.187  0.00  0.00    +0.000 A 
ATOM      4  C   UNL     1      -9.527   1.657 122.533  0.00  0.00    +0.000 A 
ATOM      5  C   UNL     1     -10.140   0.422 122.497  0.00  0.00    +0.000 A 
ATOM      6  C   UNL     1      -9.460  -0.687 122.977  0.00  0.00    +0.000 A 
ENDROOT
BRANCH   1   8
ATOM      7  C   UNL     1      -8.385  -3.113 123.886  0.00  0.00    +0.000 C 
ATOM      8  C   UNL     1      -7.450  -1.885 123.956  0.00  0.00    +0.000 C 
BRANCH   8   9
ATOM      9  C   UNL     1      -6.142  -2.311 123.286  0.00  0.00    +0.000 C 
ATOM     10  O   UNL     1      -5.898  -2.026 122.114  0.00  0.00    +0.000 OA
BRANCH   9  11
ATOM     11  O   UNL     1      -5.218  -2.967 124.012  0.00  0.00    +0.000 OA
ATOM     12  H   UNL     1      -5.446  -3.152 124.940  0.00  0.00    +0.000 HD
ENDBRANCH   9  11
ENDBRANCH   8   9
ENDBRANCH   1   8
BRANCH   3  13
ATOM     13  O   UNL     1      -7.689   3.026 123.376  0.00  0.00    +0.000 OA
BRANCH  13  14
ATOM     14  C   UNL     1      -6.951   3.542 122.336  0.00  0.00    +0.000 A 
ATOM     15  C   UNL     1      -5.665   3.978 122.638  0.00  0.00    +0.000 A 
ATOM     16  C   UNL     1      -4.876   4.532 121.633  0.00  0.00    +0.000 A 
ATOM     17  C   UNL     1      -5.345   4.579 120.319  0.00  0.00    +0.000 A 
ATOM     18  C   UNL     1      -6.630   4.132 120.014  0.00  0.00    +0.000 A 
ATOM     19  C   UNL     1      -7.451   3.654 121.031  0.00  0.00    +0.000 A 
ENDBRANCH  13  14
ENDBRANCH   3  13
TORSDOF 5
ENDMDL
MODEL 7
REMARK VINA RESULT:      -6.7      8.728     10.881
REMARK  Name = Fenoprofen
REMARK  6 active torsions:
REMARK  status: ('A' for Active; 'I' for Inactive)
REMARK    1  A    between atoms: C_1  and  C_2
REMARK    2  A    between atoms: C_2  and  C_3
REMARK    3  A    between atoms: C_2  and  C_6
REMARK    4  A    between atoms: C_3  and  O_4
REMARK    5  A    between atoms: C_8  and  O_9
REMARK    6  A    between atoms: O_9  and  C_10
REMARK                            x       y       z     vdW  Elec       q    Type
REMARK                         _______ _______ _______ _____ _____    ______ ____
ROOT
ATOM      1  C   UNL     1     -11.916   7.031 129.583  0.00  0.00    +0.000 A 
ATOM      2  C   UNL     1     -10.717   6.299 129.594  0.00  0.00    +0.000 A 
ATOM      3  C   UNL     1     -10.131   5.911 130.805  0.00  0.00    +0.000 A 
ATOM      4  C   UNL     1     -10.747   6.227 132.015  0.00  0.00    +0.000 A 
ATOM      5  C   UNL     1     -12.004   6.795 132.021  0.00  0.00    +0.000 A 
ATOM      6  C   UNL     1     -12.576   7.187 130.820  0.00  0.00    +0.000 A 
ENDROOT
BRANCH   1   8
ATOM      7  C   UNL     1     -13.121   8.987 128.477  0.00  0.00    +0.000 C 
ATOM      8  C   UNL     1     -12.594   7.544 128.309  0.00  0.00    +0.000 C 
BRANCH   8   9
ATOM      9  C   UNL     1     -11.831   7.524 126.984  0.00  0.00    +0.000 C 
ATOM     10  O   UNL     1     -10.911   8.311 126.760  0.00  0.00    +0.000 OA
BRANCH   9  11
ATOM     11  O   UNL     1     -12.140   6.592 126.064  0.00  0.00    +0.000 OA
ATOM     12  H   UNL     1     -11.654   6.635 125.222  0.00  0.00    +0.000 HD
ENDBRANCH   9  11
ENDBRANCH   8   9
ENDBRANCH   1   8
BRANCH   3  13
ATOM     13  O   UNL     1      -8.937   5.231 130.715  0.00  0.00    +0.000 OA
BRANCH  13  14
ATOM     14  C   UNL     1      -8.851   3.999 131.322  0.00  0.00    +0.000 A 
ATOM     15  C   UNL     1      -7.887   3.857 132.314  0.00  0.00    +0.000 A 
ATOM     16  C   UNL     1      -7.734   2.628 132.952  0.00  0.00    +0.000 A 
ATOM     17  C   UNL     1      -8.594   1.571 132.651  0.00  0.00    +0.000 A 
ATOM     18  C   UNL     1      -9.568   1.716 131.664  0.00  0.00    +0.000 A 
ATOM     19  C   UNL     1      -9.669   2.917 130.968  0.00  0.00    +0.000 A 
ENDBRANCH  13  14
ENDBRANCH   3  13
TORSDOF 5
ENDMDL
MODEL 8
REMARK VINA RESULT:      -6.7     10.259     11.690
REMARK  Name = Fenoprofen
REMARK  6 active torsions:
REMARK  status: ('A' for Active; 'I' for Inactive)
REMARK    1  A    between atoms: C_1  and  C_2
REMARK    2  A    between atoms: C_2  and  C_3
REMARK    3  A    between atoms: C_2  and  C_6
REMARK    4  A    between atoms: C_3  and  O_4
REMARK    5  A    between atoms: C_8  and  O_9
REMARK    6  A    between atoms: O_9  and  C_10
REMARK                            x       y       z     vdW  Elec       q    Type
REMARK                         _______ _______ _______ _____ _____    ______ ____
ROOT
ATOM      1  C   UNL     1      -8.666   5.710 132.915  0.00  0.00    +0.000 A 
ATOM      2  C   UNL     1     -10.043   5.752 132.637  0.00  0.00    +0.000 A 
ATOM      3  C   UNL     1     -10.523   6.435 131.513  0.00  0.00    +0.000 A 
ATOM      4  C   UNL     1      -9.634   7.064 130.643  0.00  0.00    +0.000 A 
ATOM      5  C   UNL     1      -8.274   6.894 130.804  0.00  0.00    +0.000 A 
ATOM      6  C   UNL     1      -7.804   6.225 131.924  0.00  0.00    +0.000 A 
ENDROOT
BRANCH   1   8
ATOM      7  C   UNL     1      -6.689   4.397 133.845  0.00  0.00    +0.000 C 
ATOM      8  C   UNL     1      -8.062   5.037 134.150  0.00  0.00    +0.000 C 
BRANCH   8   9
ATOM      9  C   UNL     1      -7.877   5.840 135.438  0.00  0.00    +0.000 C 
ATOM     10  O   UNL     1      -7.002   5.552 136.255  0.00  0.00    +0.000 OA
BRANCH   9  11
ATOM     11  O   UNL     1      -8.656   6.915 135.657  0.00  0.00    +0.000 OA
ATOM     12  H   UNL     1      -9.588   6.839 135.386  0.00  0.00    +0.000 HD
ENDBRANCH   9  11
ENDBRANCH   8   9
ENDBRANCH   1   8
BRANCH   3  13
ATOM     13  O   UNL     1     -11.890   6.451 131.347  0.00  0.00    +0.000 OA
BRANCH  13  14
ATOM     14  C   UNL     1     -12.396   7.111 130.250  0.00  0.00    +0.000 A 
ATOM     15  C   UNL     1     -12.731   6.329 129.150  0.00  0.00    +0.000 A 
ATOM     16  C   UNL     1     -13.227   6.939 128.000  0.00  0.00    +0.000 A 
ATOM     17  C   UNL     1     -13.456   8.316 127.981  0.00  0.00    +0.000 A 
ATOM     18  C   UNL     1     -13.130   9.099 129.087  0.00  0.00    +0.000 A 
ATOM     19  C   UNL     1     -12.558   8.502 130.207  0.00  0.00    +0.000 A 
ENDBRANCH  13  14
ENDBRANCH   3  13
TORSDOF 5
ENDMDL
MODEL 9
REMARK VINA RESULT:      -6.6      5.033      7.169
REMARK  Name = Fenoprofen
REMARK  6 active torsions:
REMARK  status: ('A' for Active; 'I' for Inactive)
REMARK    1  A    between atoms: C_1  and  C_2
REMARK    2  A    between atoms: C_2  and  C_3
REMARK    3  A    between atoms: C_2  and  C_6
REMARK    4  A    between atoms: C_3  and  O_4
REMARK    5  A    between atoms: C_8  and  O_9
REMARK    6  A    between atoms: O_9  and  C_10
REMARK                            x       y       z     vdW  Elec       q    Type
REMARK                         _______ _______ _______ _____ _____    ______ ____
ROOT
ATOM      1  C   UNL     1      -5.927  -2.937 129.187  0.00  0.00    +0.000 A 
ATOM      2  C   UNL     1      -5.900  -2.023 128.120  0.00  0.00    +0.000 A 
ATOM      3  C   UNL     1      -7.008  -1.882 127.276  0.00  0.00    +0.000 A 
ATOM      4  C   UNL     1      -8.162  -2.632 127.501  0.00  0.00    +0.000 A 
ATOM      5  C   UNL     1      -8.269  -3.407 128.636  0.00  0.00    +0.000 A 
ATOM      6  C   UNL     1      -7.166  -3.553 129.464  0.00  0.00    +0.000 A 
ENDROOT
BRANCH   1   8
ATOM      7  C   UNL     1      -4.899  -4.524 130.898  0.00  0.00    +0.000 C 
ATOM      8  C   UNL     1      -4.742  -3.198 130.121  0.00  0.00    +0.000 C 
BRANCH   8   9
ATOM      9  C   UNL     1      -3.320  -3.202 129.559  0.00  0.00    +0.000 C 
ATOM     10  O   UNL     1      -2.929  -4.095 128.807  0.00  0.00    +0.000 OA
BRANCH   9  11
ATOM     11  O   UNL     1      -2.496  -2.180 129.853  0.00  0.00    +0.000 OA
ATOM     12  H   UNL     1      -2.697  -1.325 129.432  0.00  0.00    +0.000 HD
ENDBRANCH   9  11
ENDBRANCH   8   9
ENDBRANCH   1   8
BRANCH   3  13
ATOM     13  O   UNL     1      -6.873  -0.989 126.236  0.00  0.00    +0.000 OA
BRANCH  13  14
ATOM     14  C   UNL     1      -6.530  -1.489 125.000  0.00  0.00    +0.000 A 
ATOM     15  C   UNL     1      -7.296  -1.064 123.920  0.00  0.00    +0.000 A 
ATOM     16  C   UNL     1      -7.014  -1.551 122.646  0.00  0.00    +0.000 A 
ATOM     17  C   UNL     1      -5.924  -2.400 122.445  0.00  0.00    +0.000 A 
ATOM     18  C   UNL     1      -5.150  -2.817 123.526  0.00  0.00    +0.000 A 
ATOM     19  C   UNL     1      -5.479  -2.397 124.812  0.00  0.00    +0.000 A 
ENDBRANCH  13  14
ENDBRANCH   3  13
TORSDOF 5
ENDMDL
