MODEL 1
REMARK VINA RESULT:      -7.7      0.000      0.000
REMARK  Name = Fenofibrate
REMARK  11 active torsions:
REMARK  status: ('A' for Active; 'I' for Inactive)
REMARK    1  A    between atoms: C_1  and  C_2
REMARK    2  A    between atoms: C_2  and  C_3
REMARK    3  A    between atoms: C_2  and  O_4
REMARK    4  A    between atoms: O_4  and  C_5
REMARK    5  A    between atoms: C_5  and  C_7
REMARK    6  A    between atoms: C_7  and  C_8
REMARK    7  A    between atoms: C_7  and  C_9
REMARK    8  A    between atoms: C_7  and  O_10
REMARK    9  A    between atoms: O_10  and  C_11
REMARK   10  A    between atoms: C_14  and  C_17
REMARK   11  A    between atoms: C_17  and  C_19
REMARK                            x       y       z     vdW  Elec       q    Type
REMARK                         _______ _______ _______ _____ _____    ______ ____
ROOT
ATOM      1  C   UNL     1      -5.756   5.756 130.594  0.00  0.00    +0.000 A 
ATOM      2  C   UNL     1      -6.588   6.760 131.099  0.00  0.00    +0.000 A 
ATOM      3  C   UNL     1      -7.990   6.648 130.985  0.00  0.00    +0.000 A 
ATOM      4  C   UNL     1      -8.558   5.588 130.262  0.00  0.00    +0.000 A 
ATOM      5  C   UNL     1      -7.720   4.607 129.757  0.00  0.00    +0.000 A 
ATOM      6  C   UNL     1      -6.358   4.662 129.994  0.00  0.00    +0.000 A 
ENDROOT
BRANCH   4   7
ATOM      7  C   UNL     1     -10.021   5.522 130.009  0.00  0.00    +0.000 C 
ATOM      8  O   UNL     1     -10.601   4.440 129.997  0.00  0.00    +0.000 OA
BRANCH   7   9
ATOM      9  C   UNL     1     -10.825   6.752 129.782  0.00  0.00    +0.000 A 
ATOM     10  C   UNL     1     -11.859   7.072 130.669  0.00  0.00    +0.000 A 
ATOM     11  C   UNL     1     -12.732   8.122 130.363  0.00  0.00    +0.000 A 
ATOM     12  C   UNL     1     -12.511   8.903 129.227  0.00  0.00    +0.000 A 
ATOM     13 CL   UNL     1     -13.545  10.235 128.890  0.00  0.00    +0.000 Cl
ATOM     14  C   UNL     1     -11.451   8.620 128.370  0.00  0.00    +0.000 A 
ATOM     15  C   UNL     1     -10.620   7.531 128.635  0.00  0.00    +0.000 A 
ENDBRANCH   7   9
ENDBRANCH   4   7
BRANCH   1  16
ATOM     16  O   UNL     1      -4.411   5.833 130.825  0.00  0.00    +0.000 OA
BRANCH  16  17
ATOM     17  C   UNL     1      -3.532   6.608 129.955  0.00  0.00    +0.000 C 
ATOM     18  C   UNL     1      -2.098   6.478 130.469  0.00  0.00    +0.000 C 
ATOM     19  C   UNL     1      -3.913   8.082 129.768  0.00  0.00    +0.000 C 
BRANCH  17  20
ATOM     20  C   UNL     1      -3.656   5.979 128.541  0.00  0.00    +0.000 C 
ATOM     21  O   UNL     1      -4.189   6.537 127.579  0.00  0.00    +0.000 OA
BRANCH  20  22
ATOM     22  O   UNL     1      -3.054   4.745 128.463  0.00  0.00    +0.000 OA
BRANCH  22  24
ATOM     23  C   UNL     1      -1.897   3.272 126.910  0.00  0.00    +0.000 C 
ATOM     24  C   UNL     1      -3.196   4.027 127.212  0.00  0.00    +0.000 C 
ATOM     25  C   UNL     1      -4.331   3.011 127.308  0.00  0.00    +0.000 C 
ENDBRANCH  22  24
ENDBRANCH  20  22
ENDBRANCH  17  20
ENDBRANCH  16  17
ENDBRANCH   1  16
TORSDOF 7
ENDMDL
MODEL 2
REMARK VINA RESULT:      -7.5      3.430      8.184
REMARK  Name = Fenofibrate
REMARK  11 active torsions:
REMARK  status: ('A' for Active; 'I' for Inactive)
REMARK    1  A    between atoms: C_1  and  C_2
REMARK    2  A    between atoms: C_2  and  C_3
REMARK    3  A    between atoms: C_2  and  O_4
REMARK    4  A    between atoms: O_4  and  C_5
REMARK    5  A    between atoms: C_5  and  C_7
REMARK    6  A    between atoms: C_7  and  C_8
REMARK    7  A    between atoms: C_7  and  C_9
REMARK    8  A    between atoms: C_7  and  O_10
REMARK    9  A    between atoms: O_10  and  C_11
REMARK   10  A    between atoms: C_14  and  C_17
REMARK   11  A    between atoms: C_17  and  C_19
REMARK                            x       y       z     vdW  Elec       q    Type
REMARK                         _______ _______ _______ _____ _____    ______ ____
ROOT
ATOM      1  C   UNL     1      -8.385   6.332 131.640  0.00  0.00    +0.000 A 
ATOM      2  C   UNL     1      -8.068   5.128 132.277  0.00  0.00    +0.000 A 
ATOM      3  C   UNL     1      -6.744   4.641 132.263  0.00  0.00    +0.000 A 
ATOM      4  C   UNL     1      -5.757   5.299 131.512  0.00  0.00    +0.000 A 
ATOM      5  C   UNL     1      -6.089   6.483 130.876  0.00  0.00    +0.000 A 
ATOM      6  C   UNL     1      -7.358   7.017 131.012  0.00  0.00    +0.000 A 
ENDROOT
BRANCH   4   7
ATOM      7  C   UNL     1      -4.391   4.731 131.366  0.00  0.00    +0.000 C 
ATOM      8  O   UNL     1      -3.705   4.502 132.358  0.00  0.00    +0.000 OA
BRANCH   7   9
ATOM      9  C   UNL     1      -3.823   4.407 130.031  0.00  0.00    +0.000 A 
ATOM     10  C   UNL     1      -4.012   3.130 129.493  0.00  0.00    +0.000 A 
ATOM     11  C   UNL     1      -3.331   2.763 128.327  0.00  0.00    +0.000 A 
ATOM     12  C   UNL     1      -2.544   3.700 127.656  0.00  0.00    +0.000 A 
ATOM     13 CL   UNL     1      -1.763   3.267 126.187  0.00  0.00    +0.000 Cl
ATOM     14  C   UNL     1      -2.396   4.990 128.160  0.00  0.00    +0.000 A 
ATOM     15  C   UNL     1      -3.018   5.338 129.359  0.00  0.00    +0.000 A 
ENDBRANCH   7   9
ENDBRANCH   4   7
BRANCH   1  16
ATOM     16  O   UNL     1      -9.648   6.838 131.774  0.00  0.00    +0.000 OA
BRANCH  16  17
ATOM     17  C   UNL     1     -10.721   6.455 130.863  0.00  0.00    +0.000 C 
ATOM     18  C   UNL     1     -12.049   6.516 131.619  0.00  0.00    +0.000 C 
ATOM     19  C   UNL     1     -10.551   5.097 130.169  0.00  0.00    +0.000 C 
BRANCH  17  20
ATOM     20  C   UNL     1     -10.708   7.497 129.713  0.00  0.00    +0.000 C 
ATOM     21  O   UNL     1      -9.875   7.516 128.805  0.00  0.00    +0.000 OA
BRANCH  20  22
ATOM     22  O   UNL     1     -11.768   8.371 129.787  0.00  0.00    +0.000 OA
BRANCH  22  24
ATOM     23  C   UNL     1     -13.341   7.359 128.229  0.00  0.00    +0.000 C 
ATOM     24  C   UNL     1     -12.510   8.603 128.564  0.00  0.00    +0.000 C 
ATOM     25  C   UNL     1     -13.462   9.784 128.735  0.00  0.00    +0.000 C 
ENDBRANCH  22  24
ENDBRANCH  20  22
ENDBRANCH  17  20
ENDBRANCH  16  17
ENDBRANCH   1  16
TORSDOF 7
ENDMDL
MODEL 3
REMARK VINA RESULT:      -7.3      1.488      2.792
REMARK  Name = Fenofibrate
REMARK  11 active torsions:
REMARK  status: ('A' for Active; 'I' for Inactive)
REMARK    1  A    between atoms: C_1  and  C_2
REMARK    2  A    between atoms: C_2  and  C_3
REMARK    3  A    between atoms: C_2  and  O_4
REMARK    4  A    between atoms: O_4  and  C_5
REMARK    5  A    between atoms: C_5  and  C_7
REMARK    6  A    between atoms: C_7  and  C_8
REMARK    7  A    between atoms: C_7  and  C_9
REMARK    8  A    between atoms: C_7  and  O_10
REMARK    9  A    between atoms: O_10  and  C_11
REMARK   10  A    between atoms: C_14  and  C_17
REMARK   11  A    between atoms: C_17  and  C_19
REMARK                            x       y       z     vdW  Elec       q    Type
REMARK                         _______ _______ _______ _____ _____    ______ ____
ROOT
ATOM      1  C   UNL     1      -6.007   5.863 130.456  0.00  0.00    +0.000 A 
ATOM      2  C   UNL     1      -6.863   6.737 131.133  0.00  0.00    +0.000 A 
ATOM      3  C   UNL     1      -8.260   6.548 131.083  0.00  0.00    +0.000 A 
ATOM      4  C   UNL     1      -8.809   5.553 130.260  0.00  0.00    +0.000 A 
ATOM      5  C   UNL     1      -7.949   4.702 129.585  0.00  0.00    +0.000 A 
ATOM      6  C   UNL     1      -6.581   4.817 129.753  0.00  0.00    +0.000 A 
ENDROOT
BRANCH   4   7
ATOM      7  C   UNL     1     -10.280   5.423 130.081  0.00  0.00    +0.000 C 
ATOM      8  O   UNL     1     -10.814   4.318 130.113  0.00  0.00    +0.000 OA
BRANCH   7   9
ATOM      9  C   UNL     1     -11.145   6.615 129.877  0.00  0.00    +0.000 A 
ATOM     10  C   UNL     1     -10.953   7.420 128.749  0.00  0.00    +0.000 A 
ATOM     11  C   UNL     1     -11.637   8.637 128.645  0.00  0.00    +0.000 A 
ATOM     12  C   UNL     1     -12.573   8.996 129.616  0.00  0.00    +0.000 A 
ATOM     13 CL   UNL     1     -13.461  10.459 129.450  0.00  0.00    +0.000 Cl
ATOM     14  C   UNL     1     -12.805   8.171 130.714  0.00  0.00    +0.000 A 
ATOM     15  C   UNL     1     -12.075   6.990 130.857  0.00  0.00    +0.000 A 
ENDBRANCH   7   9
ENDBRANCH   4   7
BRANCH   1  16
ATOM     16  O   UNL     1      -4.656   5.999 130.622  0.00  0.00    +0.000 OA
BRANCH  16  17
ATOM     17  C   UNL     1      -3.861   6.837 129.729  0.00  0.00    +0.000 C 
ATOM     18  C   UNL     1      -4.268   8.296 129.938  0.00  0.00    +0.000 C 
ATOM     19  C   UNL     1      -3.916   6.462 128.242  0.00  0.00    +0.000 C 
BRANCH  17  20
ATOM     20  C   UNL     1      -2.380   6.626 130.142  0.00  0.00    +0.000 C 
ATOM     21  O   UNL     1      -1.461   6.425 129.345  0.00  0.00    +0.000 OA
BRANCH  20  22
ATOM     22  O   UNL     1      -2.193   6.745 131.499  0.00  0.00    +0.000 OA
BRANCH  22  24
ATOM     23  C   UNL     1      -0.411   6.923 133.148  0.00  0.00    +0.000 C 
ATOM     24  C   UNL     1      -1.055   6.049 132.066  0.00  0.00    +0.000 C 
ATOM     25  C   UNL     1      -1.500   4.738 132.709  0.00  0.00    +0.000 C 
ENDBRANCH  22  24
ENDBRANCH  20  22
ENDBRANCH  17  20
ENDBRANCH  16  17
ENDBRANCH   1  16
TORSDOF 7
ENDMDL
MODEL 4
REMARK VINA RESULT:      -7.3      1.393      2.374
REMARK  Name = Fenofibrate
REMARK  11 active torsions:
REMARK  status: ('A' for Active; 'I' for Inactive)
REMARK    1  A    between atoms: C_1  and  C_2
REMARK    2  A    between atoms: C_2  and  C_3
REMARK    3  A    between atoms: C_2  and  O_4
REMARK    4  A    between atoms: O_4  and  C_5
REMARK    5  A    between atoms: C_5  and  C_7
REMARK    6  A    between atoms: C_7  and  C_8
REMARK    7  A    between atoms: C_7  and  C_9
REMARK    8  A    between atoms: C_7  and  O_10
REMARK    9  A    between atoms: O_10  and  C_11
REMARK   10  A    between atoms: C_14  and  C_17
REMARK   11  A    between atoms: C_17  and  C_19
REMARK                            x       y       z     vdW  Elec       q    Type
REMARK                         _______ _______ _______ _____ _____    ______ ____
ROOT
ATOM      1  C   UNL     1      -6.942   5.172 131.761  0.00  0.00    +0.000 A 
ATOM      2  C   UNL     1      -7.344   4.324 130.725  0.00  0.00    +0.000 A 
ATOM      3  C   UNL     1      -8.634   4.444 130.165  0.00  0.00    +0.000 A 
ATOM      4  C   UNL     1      -9.565   5.335 130.721  0.00  0.00    +0.000 A 
ATOM      5  C   UNL     1      -9.157   6.160 131.755  0.00  0.00    +0.000 A 
ATOM      6  C   UNL     1      -7.848   6.124 132.201  0.00  0.00    +0.000 A 
ENDROOT
BRANCH   4   7
ATOM      7  C   UNL     1     -10.972   5.380 130.241  0.00  0.00    +0.000 C 
ATOM      8  O   UNL     1     -11.584   4.341 130.011  0.00  0.00    +0.000 OA
BRANCH   7   9
ATOM      9  C   UNL     1     -11.683   6.671 130.042  0.00  0.00    +0.000 A 
ATOM     10  C   UNL     1     -11.446   7.416 128.881  0.00  0.00    +0.000 A 
ATOM     11  C   UNL     1     -11.968   8.709 128.771  0.00  0.00    +0.000 A 
ATOM     12  C   UNL     1     -12.798   9.213 129.774  0.00  0.00    +0.000 A 
ATOM     13 CL   UNL     1     -13.494  10.776 129.606  0.00  0.00    +0.000 Cl
ATOM     14  C   UNL     1     -13.079   8.454 130.907  0.00  0.00    +0.000 A 
ATOM     15  C   UNL     1     -12.504   7.190 131.052  0.00  0.00    +0.000 A 
ENDBRANCH   7   9
ENDBRANCH   4   7
BRANCH   1  16
ATOM     16  O   UNL     1      -5.649   5.113 132.200  0.00  0.00    +0.000 OA
BRANCH  16  17
ATOM     17  C   UNL     1      -4.633   6.032 131.697  0.00  0.00    +0.000 C 
ATOM     18  C   UNL     1      -3.914   6.663 132.890  0.00  0.00    +0.000 C 
ATOM     19  C   UNL     1      -5.133   7.111 130.728  0.00  0.00    +0.000 C 
BRANCH  17  20
ATOM     20  C   UNL     1      -3.643   5.173 130.865  0.00  0.00    +0.000 C 
ATOM     21  O   UNL     1      -2.883   4.330 131.347  0.00  0.00    +0.000 OA
BRANCH  20  22
ATOM     22  O   UNL     1      -3.747   5.416 129.516  0.00  0.00    +0.000 OA
BRANCH  22  24
ATOM     23  C   UNL     1      -2.583   4.429 127.620  0.00  0.00    +0.000 C 
ATOM     24  C   UNL     1      -2.510   5.450 128.761  0.00  0.00    +0.000 C 
ATOM     25  C   UNL     1      -2.295   6.833 128.154  0.00  0.00    +0.000 C 
ENDBRANCH  22  24
ENDBRANCH  20  22
ENDBRANCH  17  20
ENDBRANCH  16  17
ENDBRANCH   1  16
TORSDOF 7
ENDMDL
MODEL 5
REMARK VINA RESULT:      -7.2      4.043      8.440
REMARK  Name = Fenofibrate
REMARK  11 active torsions:
REMARK  status: ('A' for Active; 'I' for Inactive)
REMARK    1  A    between atoms: C_1  and  C_2
REMARK    2  A    between atoms: C_2  and  C_3
REMARK    3  A    between atoms: C_2  and  O_4
REMARK    4  A    between atoms: O_4  and  C_5
REMARK    5  A    between atoms: C_5  and  C_7
REMARK    6  A    between atoms: C_7  and  C_8
REMARK    7  A    between atoms: C_7  and  C_9
REMARK    8  A    between atoms: C_7  and  O_10
REMARK    9  A    between atoms: O_10  and  C_11
REMARK   10  A    between atoms: C_14  and  C_17
REMARK   11  A    between atoms: C_17  and  C_19
REMARK                            x       y       z     vdW  Elec       q    Type
REMARK                         _______ _______ _______ _____ _____    ______ ____
ROOT
ATOM      1  C   UNL     1      -8.079   6.509 131.823  0.00  0.00    +0.000 A 
ATOM      2  C   UNL     1      -7.700   5.675 132.880  0.00  0.00    +0.000 A 
ATOM      3  C   UNL     1      -6.342   5.344 133.074  0.00  0.00    +0.000 A 
ATOM      4  C   UNL     1      -5.374   5.751 132.143  0.00  0.00    +0.000 A 
ATOM      5  C   UNL     1      -5.766   6.566 131.094  0.00  0.00    +0.000 A 
ATOM      6  C   UNL     1      -7.079   6.993 130.995  0.00  0.00    +0.000 A 
ENDROOT
BRANCH   4   7
ATOM      7  C   UNL     1      -3.962   5.298 132.249  0.00  0.00    +0.000 C 
ATOM      8  O   UNL     1      -3.665   4.131 132.014  0.00  0.00    +0.000 OA
BRANCH   7   9
ATOM      9  C   UNL     1      -2.872   6.239 132.621  0.00  0.00    +0.000 A 
ATOM     10  C   UNL     1      -3.155   7.324 133.457  0.00  0.00    +0.000 A 
ATOM     11  C   UNL     1      -2.182   8.309 133.663  0.00  0.00    +0.000 A 
ATOM     12  C   UNL     1      -0.909   8.156 133.113  0.00  0.00    +0.000 A 
ATOM     13 CL   UNL     1       0.305   9.334 133.424  0.00  0.00    +0.000 Cl
ATOM     14  C   UNL     1      -0.607   7.050 132.323  0.00  0.00    +0.000 A 
ATOM     15  C   UNL     1      -1.595   6.101 132.059  0.00  0.00    +0.000 A 
ENDBRANCH   7   9
ENDBRANCH   4   7
BRANCH   1  16
ATOM     16  O   UNL     1      -9.382   6.910 131.732  0.00  0.00    +0.000 OA
BRANCH  16  17
ATOM     17  C   UNL     1     -10.276   6.365 130.715  0.00  0.00    +0.000 C 
ATOM     18  C   UNL     1     -11.599   5.987 131.381  0.00  0.00    +0.000 C 
ATOM     19  C   UNL     1      -9.719   5.190 129.900  0.00  0.00    +0.000 C 
BRANCH  17  20
ATOM     20  C   UNL     1     -10.500   7.500 129.680  0.00  0.00    +0.000 C 
ATOM     21  O   UNL     1      -9.708   7.781 128.777  0.00  0.00    +0.000 OA
BRANCH  20  22
ATOM     22  O   UNL     1     -11.712   8.128 129.846  0.00  0.00    +0.000 OA
BRANCH  22  24
ATOM     23  C   UNL     1     -13.365   7.314 128.256  0.00  0.00    +0.000 C 
ATOM     24  C   UNL     1     -12.440   8.474 128.641  0.00  0.00    +0.000 C 
ATOM     25  C   UNL     1     -13.297   9.714 128.875  0.00  0.00    +0.000 C 
ENDBRANCH  22  24
ENDBRANCH  20  22
ENDBRANCH  17  20
ENDBRANCH  16  17
ENDBRANCH   1  16
TORSDOF 7
ENDMDL
MODEL 6
REMARK VINA RESULT:      -7.2      8.470     11.209
REMARK  Name = Fenofibrate
REMARK  11 active torsions:
REMARK  status: ('A' for Active; 'I' for Inactive)
REMARK    1  A    between atoms: C_1  and  C_2
REMARK    2  A    between atoms: C_2  and  C_3
REMARK    3  A    between atoms: C_2  and  O_4
REMARK    4  A    between atoms: O_4  and  C_5
REMARK    5  A    between atoms: C_5  and  C_7
REMARK    6  A    between atoms: C_7  and  C_8
REMARK    7  A    between atoms: C_7  and  C_9
REMARK    8  A    between atoms: C_7  and  O_10
REMARK    9  A    between atoms: O_10  and  C_11
REMARK   10  A    between atoms: C_14  and  C_17
REMARK   11  A    between atoms: C_17  and  C_19
REMARK                            x       y       z     vdW  Elec       q    Type
REMARK                         _______ _______ _______ _____ _____    ______ ____
ROOT
ATOM      1  C   UNL     1      -8.566  -2.431 126.733  0.00  0.00    +0.000 A 
ATOM      2  C   UNL     1      -8.648  -3.426 127.712  0.00  0.00    +0.000 A 
ATOM      3  C   UNL     1      -7.969  -3.275 128.940  0.00  0.00    +0.000 A 
ATOM      4  C   UNL     1      -7.113  -2.182 129.144  0.00  0.00    +0.000 A 
ATOM      5  C   UNL     1      -7.032  -1.211 128.160  0.00  0.00    +0.000 A 
ATOM      6  C   UNL     1      -7.808  -1.307 127.020  0.00  0.00    +0.000 A 
ENDROOT
BRANCH   4   7
ATOM      7  C   UNL     1      -6.280  -2.073 130.371  0.00  0.00    +0.000 C 
ATOM      8  O   UNL     1      -5.513  -1.125 130.518  0.00  0.00    +0.000 OA
BRANCH   7   9
ATOM      9  C   UNL     1      -6.361  -3.085 131.457  0.00  0.00    +0.000 A 
ATOM     10  C   UNL     1      -7.247  -2.885 132.521  0.00  0.00    +0.000 A 
ATOM     11  C   UNL     1      -7.198  -3.736 133.630  0.00  0.00    +0.000 A 
ATOM     12  C   UNL     1      -6.335  -4.833 133.629  0.00  0.00    +0.000 A 
ATOM     13 CL   UNL     1      -6.326  -5.917 134.964  0.00  0.00    +0.000 Cl
ATOM     14  C   UNL     1      -5.489  -5.066 132.548  0.00  0.00    +0.000 A 
ATOM     15  C   UNL     1      -5.486  -4.180 131.470  0.00  0.00    +0.000 A 
ENDBRANCH   7   9
ENDBRANCH   4   7
BRANCH   1  16
ATOM     16  O   UNL     1      -9.329  -2.549 125.605  0.00  0.00    +0.000 OA
BRANCH  16  17
ATOM     17  C   UNL     1      -8.738  -2.908 124.320  0.00  0.00    +0.000 C 
ATOM     18  C   UNL     1      -9.796  -3.624 123.480  0.00  0.00    +0.000 C 
ATOM     19  C   UNL     1      -7.446  -3.732 124.390  0.00  0.00    +0.000 C 
BRANCH  17  20
ATOM     20  C   UNL     1      -8.326  -1.573 123.643  0.00  0.00    +0.000 C 
ATOM     21  O   UNL     1      -7.212  -1.356 123.161  0.00  0.00    +0.000 OA
BRANCH  20  22
ATOM     22  O   UNL     1      -9.364  -0.672 123.589  0.00  0.00    +0.000 OA
BRANCH  22  24
ATOM     23  C   UNL     1      -9.424   1.663 122.908  0.00  0.00    +0.000 C 
ATOM     24  C   UNL     1      -9.080   0.679 124.031  0.00  0.00    +0.000 C 
ATOM     25  C   UNL     1      -9.926   1.029 125.252  0.00  0.00    +0.000 C 
ENDBRANCH  22  24
ENDBRANCH  20  22
ENDBRANCH  17  20
ENDBRANCH  16  17
ENDBRANCH   1  16
TORSDOF 7
ENDMDL
MODEL 7
REMARK VINA RESULT:      -7.2      8.193     10.425
REMARK  Name = Fenofibrate
REMARK  11 active torsions:
REMARK  status: ('A' for Active; 'I' for Inactive)
REMARK    1  A    between atoms: C_1  and  C_2
REMARK    2  A    between atoms: C_2  and  C_3
REMARK    3  A    between atoms: C_2  and  O_4
REMARK    4  A    between atoms: O_4  and  C_5
REMARK    5  A    between atoms: C_5  and  C_7
REMARK    6  A    between atoms: C_7  and  C_8
REMARK    7  A    between atoms: C_7  and  C_9
REMARK    8  A    between atoms: C_7  and  O_10
REMARK    9  A    between atoms: O_10  and  C_11
REMARK   10  A    between atoms: C_14  and  C_17
REMARK   11  A    between atoms: C_17  and  C_19
REMARK                            x       y       z     vdW  Elec       q    Type
REMARK                         _______ _______ _______ _____ _____    ______ ____
ROOT
ATOM      1  C   UNL     1      -8.757  -2.232 126.423  0.00  0.00    +0.000 A 
ATOM      2  C   UNL     1      -9.008  -3.489 126.981  0.00  0.00    +0.000 A 
ATOM      3  C   UNL     1      -8.420  -3.854 128.210  0.00  0.00    +0.000 A 
ATOM      4  C   UNL     1      -7.486  -3.006 128.826  0.00  0.00    +0.000 A 
ATOM      5  C   UNL     1      -7.238  -1.769 128.256  0.00  0.00    +0.000 A 
ATOM      6  C   UNL     1      -7.926  -1.372 127.123  0.00  0.00    +0.000 A 
ENDROOT
BRANCH   4   7
ATOM      7  C   UNL     1      -6.749  -3.426 130.047  0.00  0.00    +0.000 C 
ATOM      8  O   UNL     1      -6.291  -4.561 130.136  0.00  0.00    +0.000 OA
BRANCH   7   9
ATOM      9  C   UNL     1      -6.528  -2.490 131.181  0.00  0.00    +0.000 A 
ATOM     10  C   UNL     1      -5.239  -2.013 131.439  0.00  0.00    +0.000 A 
ATOM     11  C   UNL     1      -4.993  -1.281 132.606  0.00  0.00    +0.000 A 
ATOM     12  C   UNL     1      -6.050  -0.950 133.456  0.00  0.00    +0.000 A 
ATOM     13 CL   UNL     1      -5.757   0.007 134.854  0.00  0.00    +0.000 Cl
ATOM     14  C   UNL     1      -7.345  -1.378 133.175  0.00  0.00    +0.000 A 
ATOM     15  C   UNL     1      -7.582  -2.167 132.048  0.00  0.00    +0.000 A 
ENDBRANCH   7   9
ENDBRANCH   4   7
BRANCH   1  16
ATOM     16  O   UNL     1      -9.434  -1.862 125.295  0.00  0.00    +0.000 OA
BRANCH  16  17
ATOM     17  C   UNL     1      -8.887  -2.105 123.964  0.00  0.00    +0.000 C 
ATOM     18  C   UNL     1      -9.605  -3.309 123.353  0.00  0.00    +0.000 C 
ATOM     19  C   UNL     1      -7.364  -2.285 123.895  0.00  0.00    +0.000 C 
BRANCH  17  20
ATOM     20  C   UNL     1      -9.177  -0.826 123.134  0.00  0.00    +0.000 C 
ATOM     21  O   UNL     1     -10.217  -0.634 122.499  0.00  0.00    +0.000 OA
BRANCH  20  22
ATOM     22  O   UNL     1      -8.165   0.100 123.229  0.00  0.00    +0.000 OA
BRANCH  22  24
ATOM     23  C   UNL     1      -7.231   1.599 124.904  0.00  0.00    +0.000 C 
ATOM     24  C   UNL     1      -8.439   1.289 124.013  0.00  0.00    +0.000 C 
ATOM     25  C   UNL     1      -8.680   2.486 123.098  0.00  0.00    +0.000 C 
ENDBRANCH  22  24
ENDBRANCH  20  22
ENDBRANCH  17  20
ENDBRANCH  16  17
ENDBRANCH   1  16
TORSDOF 7
ENDMDL
MODEL 8
REMARK VINA RESULT:      -7.2      4.855      8.551
REMARK  Name = Fenofibrate
REMARK  11 active torsions:
REMARK  status: ('A' for Active; 'I' for Inactive)
REMARK    1  A    between atoms: C_1  and  C_2
REMARK    2  A    between atoms: C_2  and  C_3
REMARK    3  A    between atoms: C_2  and  O_4
REMARK    4  A    between atoms: O_4  and  C_5
REMARK    5  A    between atoms: C_5  and  C_7
REMARK    6  A    between atoms: C_7  and  C_8
REMARK    7  A    between atoms: C_7  and  C_9
REMARK    8  A    between atoms: C_7  and  O_10
REMARK    9  A    between atoms: O_10  and  C_11
REMARK   10  A    between atoms: C_14  and  C_17
REMARK   11  A    between atoms: C_17  and  C_19
REMARK                            x       y       z     vdW  Elec       q    Type
REMARK                         _______ _______ _______ _____ _____    ______ ____
ROOT
ATOM      1  C   UNL     1      -9.403   4.314 129.671  0.00  0.00    +0.000 A 
ATOM      2  C   UNL     1      -8.167   4.172 129.032  0.00  0.00    +0.000 A 
ATOM      3  C   UNL     1      -7.427   2.979 129.169  0.00  0.00    +0.000 A 
ATOM      4  C   UNL     1      -7.867   1.970 130.040  0.00  0.00    +0.000 A 
ATOM      5  C   UNL     1      -9.086   2.130 130.676  0.00  0.00    +0.000 A 
ATOM      6  C   UNL     1      -9.863   3.247 130.425  0.00  0.00    +0.000 A 
ENDROOT
BRANCH   4   7
ATOM      7  C   UNL     1      -7.037   0.766 130.308  0.00  0.00    +0.000 C 
ATOM      8  O   UNL     1      -6.071   0.833 131.063  0.00  0.00    +0.000 OA
BRANCH   7   9
ATOM      9  C   UNL     1      -7.356  -0.549 129.692  0.00  0.00    +0.000 A 
ATOM     10  C   UNL     1      -7.427  -0.658 128.300  0.00  0.00    +0.000 A 
ATOM     11  C   UNL     1      -7.902  -1.841 127.722  0.00  0.00    +0.000 A 
ATOM     12  C   UNL     1      -8.212  -2.935 128.531  0.00  0.00    +0.000 A 
ATOM     13 CL   UNL     1      -8.731  -4.410 127.815  0.00  0.00    +0.000 Cl
ATOM     14  C   UNL     1      -8.092  -2.848 129.915  0.00  0.00    +0.000 A 
ATOM     15  C   UNL     1      -7.684  -1.648 130.499  0.00  0.00    +0.000 A 
ENDBRANCH   7   9
ENDBRANCH   4   7
BRANCH   1  16
ATOM     16  O   UNL     1     -10.151   5.431 129.423  0.00  0.00    +0.000 OA
BRANCH  16  17
ATOM     17  C   UNL     1     -10.191   6.545 130.365  0.00  0.00    +0.000 C 
ATOM     18  C   UNL     1      -8.811   6.690 131.007  0.00  0.00    +0.000 C 
ATOM     19  C   UNL     1     -11.286   6.469 131.437  0.00  0.00    +0.000 C 
BRANCH  17  20
ATOM     20  C   UNL     1     -10.533   7.807 129.530  0.00  0.00    +0.000 C 
ATOM     21  O   UNL     1      -9.760   8.340 128.731  0.00  0.00    +0.000 OA
BRANCH  20  22
ATOM     22  O   UNL     1     -11.822   8.239 129.739  0.00  0.00    +0.000 OA
BRANCH  22  24
ATOM     23  C   UNL     1     -13.572   7.286 128.343  0.00  0.00    +0.000 C 
ATOM     24  C   UNL     1     -12.632   8.476 128.560  0.00  0.00    +0.000 C 
ATOM     25  C   UNL     1     -13.479   9.732 128.740  0.00  0.00    +0.000 C 
ENDBRANCH  22  24
ENDBRANCH  20  22
ENDBRANCH  17  20
ENDBRANCH  16  17
ENDBRANCH   1  16
TORSDOF 7
ENDMDL
MODEL 9
REMARK VINA RESULT:      -7.1      5.282      8.624
REMARK  Name = Fenofibrate
REMARK  11 active torsions:
REMARK  status: ('A' for Active; 'I' for Inactive)
REMARK    1  A    between atoms: C_1  and  C_2
REMARK    2  A    between atoms: C_2  and  C_3
REMARK    3  A    between atoms: C_2  and  O_4
REMARK    4  A    between atoms: O_4  and  C_5
REMARK    5  A    between atoms: C_5  and  C_7
REMARK    6  A    between atoms: C_7  and  C_8
REMARK    7  A    between atoms: C_7  and  C_9
REMARK    8  A    between atoms: C_7  and  O_10
REMARK    9  A    between atoms: O_10  and  C_11
REMARK   10  A    between atoms: C_14  and  C_17
REMARK   11  A    between atoms: C_17  and  C_19
REMARK                            x       y       z     vdW  Elec       q    Type
REMARK                         _______ _______ _______ _____ _____    ______ ____
ROOT
ATOM      1  C   UNL     1      -6.277   1.743 125.188  0.00  0.00    +0.000 A 
ATOM      2  C   UNL     1      -5.463   0.948 126.002  0.00  0.00    +0.000 A 
ATOM      3  C   UNL     1      -4.368   1.516 126.687  0.00  0.00    +0.000 A 
ATOM      4  C   UNL     1      -4.015   2.856 126.467  0.00  0.00    +0.000 A 
ATOM      5  C   UNL     1      -4.823   3.628 125.648  0.00  0.00    +0.000 A 
ATOM      6  C   UNL     1      -5.970   3.090 125.092  0.00  0.00    +0.000 A 
ENDROOT
BRANCH   4   7
ATOM      7  C   UNL     1      -2.786   3.439 127.066  0.00  0.00    +0.000 C 
ATOM      8  O   UNL     1      -1.679   3.142 126.626  0.00  0.00    +0.000 OA
BRANCH   7   9
ATOM      9  C   UNL     1      -2.856   4.405 128.195  0.00  0.00    +0.000 A 
ATOM     10  C   UNL     1      -3.425   4.005 129.408  0.00  0.00    +0.000 A 
ATOM     11  C   UNL     1      -3.659   4.956 130.408  0.00  0.00    +0.000 A 
ATOM     12  C   UNL     1      -3.237   6.274 130.228  0.00  0.00    +0.000 A 
ATOM     13 CL   UNL     1      -3.464   7.425 131.485  0.00  0.00    +0.000 Cl
ATOM     14  C   UNL     1      -2.622   6.664 129.042  0.00  0.00    +0.000 A 
ATOM     15  C   UNL     1      -2.450   5.735 128.015  0.00  0.00    +0.000 A 
ENDBRANCH   7   9
ENDBRANCH   4   7
BRANCH   1  16
ATOM     16  O   UNL     1      -7.399   1.192 124.635  0.00  0.00    +0.000 OA
BRANCH  16  17
ATOM     17  C   UNL     1      -8.599   0.950 125.429  0.00  0.00    +0.000 C 
ATOM     18  C   UNL     1      -9.812   1.446 124.641  0.00  0.00    +0.000 C 
ATOM     19  C   UNL     1      -8.589   1.541 126.845  0.00  0.00    +0.000 C 
BRANCH  17  20
ATOM     20  C   UNL     1      -8.682  -0.585 125.636  0.00  0.00    +0.000 C 
ATOM     21  O   UNL     1      -8.286  -1.171 126.646  0.00  0.00    +0.000 OA
BRANCH  20  22
ATOM     22  O   UNL     1      -9.300  -1.222 124.585  0.00  0.00    +0.000 OA
BRANCH  22  24
ATOM     23  C   UNL     1      -9.600  -3.344 123.432  0.00  0.00    +0.000 C 
ATOM     24  C   UNL     1      -8.589  -2.332 123.983  0.00  0.00    +0.000 C 
ATOM     25  C   UNL     1      -7.720  -1.844 122.828  0.00  0.00    +0.000 C 
ENDBRANCH  22  24
ENDBRANCH  20  22
ENDBRANCH  17  20
ENDBRANCH  16  17
ENDBRANCH   1  16
TORSDOF 7
ENDMDL
