MODEL 1
REMARK VINA RESULT:      -6.9      0.000      0.000
REMARK  Name = Fenpropidin
REMARK  9 active torsions:
REMARK  status: ('A' for Active; 'I' for Inactive)
REMARK    1  A    between atoms: C_1  and  C_2
REMARK    2  A    between atoms: C_2  and  C_3
REMARK    3  A    between atoms: C_2  and  C_10
REMARK    4  A    between atoms: C_3  and  N_4
REMARK    5  A    between atoms: C_10  and  C_11
REMARK    6  A    between atoms: C_14  and  C_17
REMARK    7  A    between atoms: C_17  and  C_18
REMARK    8  A    between atoms: C_17  and  C_19
REMARK    9  A    between atoms: C_17  and  C_20
REMARK                            x       y       z     vdW  Elec       q    Type
REMARK                         _______ _______ _______ _____ _____    ______ ____
ROOT
ATOM      1  C   UNL     1      -9.013   5.704 133.372  0.00  0.00    +0.000 C 
ENDROOT
BRANCH   1   2
ATOM      2  C   UNL     1      -9.743   6.186 132.162  0.00  0.00    +0.000 A 
ATOM      3  C   UNL     1      -9.017   6.680 131.080  0.00  0.00    +0.000 A 
ATOM      4  C   UNL     1      -9.681   7.292 130.032  0.00  0.00    +0.000 A 
ATOM      5  C   UNL     1     -11.088   7.385 130.014  0.00  0.00    +0.000 A 
ATOM      6  C   UNL     1     -11.794   6.869 131.101  0.00  0.00    +0.000 A 
ATOM      7  C   UNL     1     -11.139   6.222 132.115  0.00  0.00    +0.000 A 
BRANCH   5   8
ATOM      8  C   UNL     1     -11.827   7.931 128.802  0.00  0.00    +0.000 C 
ATOM      9  C   UNL     1     -12.775   6.863 128.236  0.00  0.00    +0.000 C 
ATOM     10  C   UNL     1     -12.622   9.169 129.258  0.00  0.00    +0.000 C 
ATOM     11  C   UNL     1     -10.865   8.376 127.676  0.00  0.00    +0.000 C 
ENDBRANCH   5   8
ENDBRANCH   1   2
BRANCH   1  13
ATOM     12  C   UNL     1      -7.325   4.246 134.373  0.00  0.00    +0.000 C 
ATOM     13  C   UNL     1      -8.326   4.338 133.201  0.00  0.00    +0.000 C 
BRANCH  13  14
ATOM     14  C   UNL     1      -9.381   3.155 133.097  0.00  0.00    +0.000 C 
BRANCH  14  15
ATOM     15  N   UNL     1      -9.358   2.317 131.873  0.00  0.00    +0.000 NA
ATOM     16  C   UNL     1      -8.721   2.968 130.716  0.00  0.00    +0.000 C 
ATOM     17  C   UNL     1      -8.700   2.003 129.517  0.00  0.00    +0.000 C 
ATOM     18  C   UNL     1      -7.976   0.698 129.842  0.00  0.00    +0.000 C 
ATOM     19  C   UNL     1      -8.599   0.046 131.058  0.00  0.00    +0.000 C 
ATOM     20  C   UNL     1      -8.701   1.055 132.164  0.00  0.00    +0.000 C 
ENDBRANCH  14  15
ENDBRANCH  13  14
ENDBRANCH   1  13
TORSDOF 5
ENDMDL
MODEL 2
REMARK VINA RESULT:      -6.9      7.623     10.808
REMARK  Name = Fenpropidin
REMARK  9 active torsions:
REMARK  status: ('A' for Active; 'I' for Inactive)
REMARK    1  A    between atoms: C_1  and  C_2
REMARK    2  A    between atoms: C_2  and  C_3
REMARK    3  A    between atoms: C_2  and  C_10
REMARK    4  A    between atoms: C_3  and  N_4
REMARK    5  A    between atoms: C_10  and  C_11
REMARK    6  A    between atoms: C_14  and  C_17
REMARK    7  A    between atoms: C_17  and  C_18
REMARK    8  A    between atoms: C_17  and  C_19
REMARK    9  A    between atoms: C_17  and  C_20
REMARK                            x       y       z     vdW  Elec       q    Type
REMARK                         _______ _______ _______ _____ _____    ______ ____
ROOT
ATOM      1  C   UNL     1      -9.127  -2.423 125.616  0.00  0.00    +0.000 C 
ENDROOT
BRANCH   1   2
ATOM      2  C   UNL     1      -8.301  -2.758 126.814  0.00  0.00    +0.000 A 
ATOM      3  C   UNL     1      -8.832  -3.593 127.795  0.00  0.00    +0.000 A 
ATOM      4  C   UNL     1      -8.153  -3.767 128.988  0.00  0.00    +0.000 A 
ATOM      5  C   UNL     1      -6.904  -3.150 129.213  0.00  0.00    +0.000 A 
ATOM      6  C   UNL     1      -6.385  -2.332 128.210  0.00  0.00    +0.000 A 
ATOM      7  C   UNL     1      -7.036  -2.198 127.013  0.00  0.00    +0.000 A 
BRANCH   5   8
ATOM      8  C   UNL     1      -6.091  -3.450 130.464  0.00  0.00    +0.000 C 
ATOM      9  C   UNL     1      -4.799  -2.621 130.465  0.00  0.00    +0.000 C 
ATOM     10  C   UNL     1      -6.962  -3.093 131.683  0.00  0.00    +0.000 C 
ATOM     11  C   UNL     1      -5.712  -4.945 130.577  0.00  0.00    +0.000 C 
ENDBRANCH   5   8
ENDBRANCH   1   2
BRANCH   1  13
ATOM     12  C   UNL     1      -9.637  -3.469 123.466  0.00  0.00    +0.000 C 
ATOM     13  C   UNL     1      -8.491  -2.818 124.272  0.00  0.00    +0.000 C 
BRANCH  13  14
ATOM     14  C   UNL     1      -7.766  -1.589 123.577  0.00  0.00    +0.000 C 
BRANCH  14  15
ATOM     15  N   UNL     1      -8.155  -0.224 124.011  0.00  0.00    +0.000 NA
ATOM     16  C   UNL     1      -7.060   0.758 123.943  0.00  0.00    +0.000 C 
ATOM     17  C   UNL     1      -7.576   2.147 124.363  0.00  0.00    +0.000 C 
ATOM     18  C   UNL     1      -8.746   2.612 123.497  0.00  0.00    +0.000 C 
ATOM     19  C   UNL     1      -9.856   1.584 123.528  0.00  0.00    +0.000 C 
ATOM     20  C   UNL     1      -9.287   0.229 123.223  0.00  0.00    +0.000 C 
ENDBRANCH  14  15
ENDBRANCH  13  14
ENDBRANCH   1  13
TORSDOF 5
ENDMDL
MODEL 3
REMARK VINA RESULT:      -6.9      3.253      6.474
REMARK  Name = Fenpropidin
REMARK  9 active torsions:
REMARK  status: ('A' for Active; 'I' for Inactive)
REMARK    1  A    between atoms: C_1  and  C_2
REMARK    2  A    between atoms: C_2  and  C_3
REMARK    3  A    between atoms: C_2  and  C_10
REMARK    4  A    between atoms: C_3  and  N_4
REMARK    5  A    between atoms: C_10  and  C_11
REMARK    6  A    between atoms: C_14  and  C_17
REMARK    7  A    between atoms: C_17  and  C_18
REMARK    8  A    between atoms: C_17  and  C_19
REMARK    9  A    between atoms: C_17  and  C_20
REMARK                            x       y       z     vdW  Elec       q    Type
REMARK                         _______ _______ _______ _____ _____    ______ ____
ROOT
ATOM      1  C   UNL     1      -9.223   5.631 132.454  0.00  0.00    +0.000 C 
ENDROOT
BRANCH   1   2
ATOM      2  C   UNL     1      -7.808   6.074 132.272  0.00  0.00    +0.000 A 
ATOM      3  C   UNL     1      -7.469   6.827 131.150  0.00  0.00    +0.000 A 
ATOM      4  C   UNL     1      -6.138   7.089 130.879  0.00  0.00    +0.000 A 
ATOM      5  C   UNL     1      -5.115   6.647 131.744  0.00  0.00    +0.000 A 
ATOM      6  C   UNL     1      -5.481   5.909 132.869  0.00  0.00    +0.000 A 
ATOM      7  C   UNL     1      -6.801   5.690 133.162  0.00  0.00    +0.000 A 
BRANCH   5   8
ATOM      8  C   UNL     1      -3.666   7.052 131.523  0.00  0.00    +0.000 C 
ATOM      9  C   UNL     1      -2.852   5.850 131.022  0.00  0.00    +0.000 C 
ATOM     10  C   UNL     1      -3.652   8.185 130.480  0.00  0.00    +0.000 C 
ATOM     11  C   UNL     1      -3.000   7.589 132.811  0.00  0.00    +0.000 C 
ENDBRANCH   5   8
ENDBRANCH   1   2
BRANCH   1  13
ATOM     12  C   UNL     1     -10.260   4.002 130.955  0.00  0.00    +0.000 C 
ATOM     13  C   UNL     1     -10.028   5.517 131.148  0.00  0.00    +0.000 C 
BRANCH  13  14
ATOM     14  C   UNL     1     -11.335   6.419 131.179  0.00  0.00    +0.000 C 
BRANCH  14  15
ATOM     15  N   UNL     1     -11.638   7.232 129.975  0.00  0.00    +0.000 NA
ATOM     16  C   UNL     1     -10.451   7.586 129.179  0.00  0.00    +0.000 C 
ATOM     17  C   UNL     1     -10.875   8.381 127.931  0.00  0.00    +0.000 C 
ATOM     18  C   UNL     1     -11.868   7.607 127.066  0.00  0.00    +0.000 C 
ATOM     19  C   UNL     1     -13.071   7.201 127.890  0.00  0.00    +0.000 C 
ATOM     20  C   UNL     1     -12.606   6.530 129.150  0.00  0.00    +0.000 C 
ENDBRANCH  14  15
ENDBRANCH  13  14
ENDBRANCH   1  13
TORSDOF 5
ENDMDL
MODEL 4
REMARK VINA RESULT:      -6.8      1.434      2.182
REMARK  Name = Fenpropidin
REMARK  9 active torsions:
REMARK  status: ('A' for Active; 'I' for Inactive)
REMARK    1  A    between atoms: C_1  and  C_2
REMARK    2  A    between atoms: C_2  and  C_3
REMARK    3  A    between atoms: C_2  and  C_10
REMARK    4  A    between atoms: C_3  and  N_4
REMARK    5  A    between atoms: C_10  and  C_11
REMARK    6  A    between atoms: C_14  and  C_17
REMARK    7  A    between atoms: C_17  and  C_18
REMARK    8  A    between atoms: C_17  and  C_19
REMARK    9  A    between atoms: C_17  and  C_20
REMARK                            x       y       z     vdW  Elec       q    Type
REMARK                         _______ _______ _______ _____ _____    ______ ____
ROOT
ATOM      1  C   UNL     1      -8.666   5.879 133.058  0.00  0.00    +0.000 C 
ENDROOT
BRANCH   1   2
ATOM      2  C   UNL     1      -9.545   6.323 131.935  0.00  0.00    +0.000 A 
ATOM      3  C   UNL     1      -8.966   6.878 130.795  0.00  0.00    +0.000 A 
ATOM      4  C   UNL     1      -9.772   7.454 129.829  0.00  0.00    +0.000 A 
ATOM      5  C   UNL     1     -11.177   7.449 129.953  0.00  0.00    +0.000 A 
ATOM      6  C   UNL     1     -11.734   6.873 131.095  0.00  0.00    +0.000 A 
ATOM      7  C   UNL     1     -10.938   6.262 132.027  0.00  0.00    +0.000 A 
BRANCH   5   8
ATOM      8  C   UNL     1     -12.070   7.956 128.830  0.00  0.00    +0.000 C 
ATOM      9  C   UNL     1     -11.231   8.229 127.573  0.00  0.00    +0.000 C 
ATOM     10  C   UNL     1     -13.126   6.870 128.548  0.00  0.00    +0.000 C 
ATOM     11  C   UNL     1     -12.818   9.254 129.210  0.00  0.00    +0.000 C 
ENDBRANCH   5   8
ENDBRANCH   1   2
BRANCH   1  13
ATOM     12  C   UNL     1      -6.320   5.727 133.728  0.00  0.00    +0.000 C 
ATOM     13  C   UNL     1      -7.307   5.308 132.617  0.00  0.00    +0.000 C 
BRANCH  13  14
ATOM     14  C   UNL     1      -7.391   3.751 132.315  0.00  0.00    +0.000 C 
BRANCH  14  15
ATOM     15  N   UNL     1      -7.313   3.319 130.897  0.00  0.00    +0.000 NA
ATOM     16  C   UNL     1      -8.624   3.041 130.287  0.00  0.00    +0.000 C 
ATOM     17  C   UNL     1      -8.440   2.652 128.808  0.00  0.00    +0.000 C 
ATOM     18  C   UNL     1      -7.717   3.739 128.014  0.00  0.00    +0.000 C 
ATOM     19  C   UNL     1      -6.389   4.062 128.663  0.00  0.00    +0.000 C 
ATOM     20  C   UNL     1      -6.602   4.323 130.126  0.00  0.00    +0.000 C 
ENDBRANCH  14  15
ENDBRANCH  13  14
ENDBRANCH   1  13
TORSDOF 5
ENDMDL
MODEL 5
REMARK VINA RESULT:      -6.6      7.464      9.325
REMARK  Name = Fenpropidin
REMARK  9 active torsions:
REMARK  status: ('A' for Active; 'I' for Inactive)
REMARK    1  A    between atoms: C_1  and  C_2
REMARK    2  A    between atoms: C_2  and  C_3
REMARK    3  A    between atoms: C_2  and  C_10
REMARK    4  A    between atoms: C_3  and  N_4
REMARK    5  A    between atoms: C_10  and  C_11
REMARK    6  A    between atoms: C_14  and  C_17
REMARK    7  A    between atoms: C_17  and  C_18
REMARK    8  A    between atoms: C_17  and  C_19
REMARK    9  A    between atoms: C_17  and  C_20
REMARK                            x       y       z     vdW  Elec       q    Type
REMARK                         _______ _______ _______ _____ _____    ______ ____
ROOT
ATOM      1  C   UNL     1      -7.394   1.772 123.527  0.00  0.00    +0.000 C 
ENDROOT
BRANCH   1   2
ATOM      2  C   UNL     1      -6.402   2.217 124.551  0.00  0.00    +0.000 A 
ATOM      3  C   UNL     1      -5.896   3.514 124.490  0.00  0.00    +0.000 A 
ATOM      4  C   UNL     1      -4.849   3.880 125.318  0.00  0.00    +0.000 A 
ATOM      5  C   UNL     1      -4.313   2.977 126.259  0.00  0.00    +0.000 A 
ATOM      6  C   UNL     1      -4.847   1.690 126.312  0.00  0.00    +0.000 A 
ATOM      7  C   UNL     1      -5.913   1.343 125.525  0.00  0.00    +0.000 A 
BRANCH   5   8
ATOM      8  C   UNL     1      -3.260   3.419 127.264  0.00  0.00    +0.000 C 
ATOM      9  C   UNL     1      -3.337   4.937 127.476  0.00  0.00    +0.000 C 
ATOM     10  C   UNL     1      -3.534   2.675 128.585  0.00  0.00    +0.000 C 
ATOM     11  C   UNL     1      -1.825   3.061 126.811  0.00  0.00    +0.000 C 
ENDBRANCH   5   8
ENDBRANCH   1   2
BRANCH   1  13
ATOM     12  C   UNL     1      -9.748   1.793 124.185  0.00  0.00    +0.000 C 
ATOM     13  C   UNL     1      -8.515   0.871 124.074  0.00  0.00    +0.000 C 
BRANCH  13  14
ATOM     14  C   UNL     1      -8.705  -0.436 123.192  0.00  0.00    +0.000 C 
BRANCH  14  15
ATOM     15  N   UNL     1      -7.802  -1.584 123.459  0.00  0.00    +0.000 NA
ATOM     16  C   UNL     1      -6.491  -1.477 122.798  0.00  0.00    +0.000 C 
ATOM     17  C   UNL     1      -5.613  -2.684 123.176  0.00  0.00    +0.000 C 
ATOM     18  C   UNL     1      -5.424  -2.806 124.688  0.00  0.00    +0.000 C 
ATOM     19  C   UNL     1      -6.770  -2.870 125.377  0.00  0.00    +0.000 C 
ATOM     20  C   UNL     1      -7.631  -1.740 124.892  0.00  0.00    +0.000 C 
ENDBRANCH  14  15
ENDBRANCH  13  14
ENDBRANCH   1  13
TORSDOF 5
ENDMDL
MODEL 6
REMARK VINA RESULT:      -6.6      8.533     11.271
REMARK  Name = Fenpropidin
REMARK  9 active torsions:
REMARK  status: ('A' for Active; 'I' for Inactive)
REMARK    1  A    between atoms: C_1  and  C_2
REMARK    2  A    between atoms: C_2  and  C_3
REMARK    3  A    between atoms: C_2  and  C_10
REMARK    4  A    between atoms: C_3  and  N_4
REMARK    5  A    between atoms: C_10  and  C_11
REMARK    6  A    between atoms: C_14  and  C_17
REMARK    7  A    between atoms: C_17  and  C_18
REMARK    8  A    between atoms: C_17  and  C_19
REMARK    9  A    between atoms: C_17  and  C_20
REMARK                            x       y       z     vdW  Elec       q    Type
REMARK                         _______ _______ _______ _____ _____    ______ ____
ROOT
ATOM      1  C   UNL     1      -7.962  -2.462 129.465  0.00  0.00    +0.000 C 
ENDROOT
BRANCH   1   2
ATOM      2  C   UNL     1      -7.194  -3.020 130.618  0.00  0.00    +0.000 A 
ATOM      3  C   UNL     1      -6.216  -3.983 130.383  0.00  0.00    +0.000 A 
ATOM      4  C   UNL     1      -5.625  -4.635 131.451  0.00  0.00    +0.000 A 
ATOM      5  C   UNL     1      -5.961  -4.308 132.782  0.00  0.00    +0.000 A 
ATOM      6  C   UNL     1      -6.931  -3.329 132.992  0.00  0.00    +0.000 A 
ATOM      7  C   UNL     1      -7.481  -2.653 131.936  0.00  0.00    +0.000 A 
BRANCH   5   8
ATOM      8  C   UNL     1      -5.215  -4.922 133.957  0.00  0.00    +0.000 C 
ATOM      9  C   UNL     1      -4.583  -3.817 134.816  0.00  0.00    +0.000 C 
ATOM     10  C   UNL     1      -6.232  -5.732 134.783  0.00  0.00    +0.000 C 
ATOM     11  C   UNL     1      -4.096  -5.890 133.505  0.00  0.00    +0.000 C 
ENDBRANCH   5   8
ENDBRANCH   1   2
BRANCH   1  13
ATOM     12  C   UNL     1      -8.922  -3.906 127.742  0.00  0.00    +0.000 C 
ATOM     13  C   UNL     1      -7.646  -3.119 128.111  0.00  0.00    +0.000 C 
BRANCH  13  14
ATOM     14  C   UNL     1      -7.154  -2.055 127.039  0.00  0.00    +0.000 C 
BRANCH  14  15
ATOM     15  N   UNL     1      -7.046  -2.499 125.627  0.00  0.00    +0.000 NA
ATOM     16  C   UNL     1      -7.945  -1.784 124.706  0.00  0.00    +0.000 C 
ATOM     17  C   UNL     1      -7.721  -2.279 123.265  0.00  0.00    +0.000 C 
ATOM     18  C   UNL     1      -6.271  -2.104 122.817  0.00  0.00    +0.000 C 
ATOM     19  C   UNL     1      -5.339  -2.799 123.785  0.00  0.00    +0.000 C 
ATOM     20  C   UNL     1      -5.669  -2.371 125.185  0.00  0.00    +0.000 C 
ENDBRANCH  14  15
ENDBRANCH  13  14
ENDBRANCH   1  13
TORSDOF 5
ENDMDL
MODEL 7
REMARK VINA RESULT:      -6.6      2.998      3.715
REMARK  Name = Fenpropidin
REMARK  9 active torsions:
REMARK  status: ('A' for Active; 'I' for Inactive)
REMARK    1  A    between atoms: C_1  and  C_2
REMARK    2  A    between atoms: C_2  and  C_3
REMARK    3  A    between atoms: C_2  and  C_10
REMARK    4  A    between atoms: C_3  and  N_4
REMARK    5  A    between atoms: C_10  and  C_11
REMARK    6  A    between atoms: C_14  and  C_17
REMARK    7  A    between atoms: C_17  and  C_18
REMARK    8  A    between atoms: C_17  and  C_19
REMARK    9  A    between atoms: C_17  and  C_20
REMARK                            x       y       z     vdW  Elec       q    Type
REMARK                         _______ _______ _______ _____ _____    ______ ____
ROOT
ATOM      1  C   UNL     1      -8.651   5.686 132.883  0.00  0.00    +0.000 C 
ENDROOT
BRANCH   1   2
ATOM      2  C   UNL     1      -9.563   6.199 131.818  0.00  0.00    +0.000 A 
ATOM      3  C   UNL     1      -9.023   6.873 130.724  0.00  0.00    +0.000 A 
ATOM      4  C   UNL     1      -9.864   7.507 129.826  0.00  0.00    +0.000 A 
ATOM      5  C   UNL     1     -11.266   7.445 129.970  0.00  0.00    +0.000 A 
ATOM      6  C   UNL     1     -11.783   6.751 131.064  0.00  0.00    +0.000 A 
ATOM      7  C   UNL     1     -10.952   6.086 131.925  0.00  0.00    +0.000 A 
BRANCH   5   8
ATOM      8  C   UNL     1     -12.193   8.020 128.911  0.00  0.00    +0.000 C 
ATOM      9  C   UNL     1     -13.327   7.030 128.607  0.00  0.00    +0.000 C 
ATOM     10  C   UNL     1     -12.764   9.342 129.459  0.00  0.00    +0.000 C 
ATOM     11  C   UNL     1     -11.455   8.337 127.589  0.00  0.00    +0.000 C 
ENDBRANCH   5   8
ENDBRANCH   1   2
BRANCH   1  13
ATOM     12  C   UNL     1      -6.457   5.713 133.960  0.00  0.00    +0.000 C 
ATOM     13  C   UNL     1      -7.154   5.892 132.594  0.00  0.00    +0.000 C 
BRANCH  13  14
ATOM     14  C   UNL     1      -6.642   4.946 131.426  0.00  0.00    +0.000 C 
BRANCH  14  15
ATOM     15  N   UNL     1      -5.499   5.420 130.607  0.00  0.00    +0.000 NA
ATOM     16  C   UNL     1      -5.241   6.864 130.723  0.00  0.00    +0.000 C 
ATOM     17  C   UNL     1      -4.010   7.246 129.880  0.00  0.00    +0.000 C 
ATOM     18  C   UNL     1      -2.766   6.461 130.292  0.00  0.00    +0.000 C 
ATOM     19  C   UNL     1      -3.040   4.975 130.218  0.00  0.00    +0.000 C 
ATOM     20  C   UNL     1      -4.309   4.666 130.959  0.00  0.00    +0.000 C 
ENDBRANCH  14  15
ENDBRANCH  13  14
ENDBRANCH   1  13
TORSDOF 5
ENDMDL
MODEL 8
REMARK VINA RESULT:      -6.5      2.484      4.845
REMARK  Name = Fenpropidin
REMARK  9 active torsions:
REMARK  status: ('A' for Active; 'I' for Inactive)
REMARK    1  A    between atoms: C_1  and  C_2
REMARK    2  A    between atoms: C_2  and  C_3
REMARK    3  A    between atoms: C_2  and  C_10
REMARK    4  A    between atoms: C_3  and  N_4
REMARK    5  A    between atoms: C_10  and  C_11
REMARK    6  A    between atoms: C_14  and  C_17
REMARK    7  A    between atoms: C_17  and  C_18
REMARK    8  A    between atoms: C_17  and  C_19
REMARK    9  A    between atoms: C_17  and  C_20
REMARK                            x       y       z     vdW  Elec       q    Type
REMARK                         _______ _______ _______ _____ _____    ______ ____
ROOT
ATOM      1  C   UNL     1      -8.073   5.852 132.972  0.00  0.00    +0.000 C 
ENDROOT
BRANCH   1   2
ATOM      2  C   UNL     1      -9.074   6.272 131.947  0.00  0.00    +0.000 A 
ATOM      3  C   UNL     1      -8.634   6.889 130.778  0.00  0.00    +0.000 A 
ATOM      4  C   UNL     1      -9.556   7.442 129.906  0.00  0.00    +0.000 A 
ATOM      5  C   UNL     1     -10.941   7.352 130.155  0.00  0.00    +0.000 A 
ATOM      6  C   UNL     1     -11.358   6.716 131.324  0.00  0.00    +0.000 A 
ATOM      7  C   UNL     1     -10.448   6.129 132.162  0.00  0.00    +0.000 A 
BRANCH   5   8
ATOM      8  C   UNL     1     -11.959   7.834 129.132  0.00  0.00    +0.000 C 
ATOM      9  C   UNL     1     -11.252   8.218 127.824  0.00  0.00    +0.000 C 
ATOM     10  C   UNL     1     -12.956   6.685 128.890  0.00  0.00    +0.000 C 
ATOM     11  C   UNL     1     -12.762   9.058 129.630  0.00  0.00    +0.000 C 
ENDBRANCH   5   8
ENDBRANCH   1   2
BRANCH   1  13
ATOM     12  C   UNL     1      -8.270   3.417 133.028  0.00  0.00    +0.000 C 
ATOM     13  C   UNL     1      -8.527   4.687 133.867  0.00  0.00    +0.000 C 
BRANCH  13  14
ATOM     14  C   UNL     1      -7.828   4.729 135.293  0.00  0.00    +0.000 C 
BRANCH  14  15
ATOM     15  N   UNL     1      -7.268   6.026 135.747  0.00  0.00    +0.000 NA
ATOM     16  C   UNL     1      -7.844   6.515 137.010  0.00  0.00    +0.000 C 
ATOM     17  C   UNL     1      -7.164   7.834 137.421  0.00  0.00    +0.000 C 
ATOM     18  C   UNL     1      -5.651   7.680 137.565  0.00  0.00    +0.000 C 
ATOM     19  C   UNL     1      -5.059   7.135 136.284  0.00  0.00    +0.000 C 
ATOM     20  C   UNL     1      -5.825   5.915 135.862  0.00  0.00    +0.000 C 
ENDBRANCH  14  15
ENDBRANCH  13  14
ENDBRANCH   1  13
TORSDOF 5
ENDMDL
MODEL 9
REMARK VINA RESULT:      -6.4      6.899      9.332
REMARK  Name = Fenpropidin
REMARK  9 active torsions:
REMARK  status: ('A' for Active; 'I' for Inactive)
REMARK    1  A    between atoms: C_1  and  C_2
REMARK    2  A    between atoms: C_2  and  C_3
REMARK    3  A    between atoms: C_2  and  C_10
REMARK    4  A    between atoms: C_3  and  N_4
REMARK    5  A    between atoms: C_10  and  C_11
REMARK    6  A    between atoms: C_14  and  C_17
REMARK    7  A    between atoms: C_17  and  C_18
REMARK    8  A    between atoms: C_17  and  C_19
REMARK    9  A    between atoms: C_17  and  C_20
REMARK                            x       y       z     vdW  Elec       q    Type
REMARK                         _______ _______ _______ _____ _____    ______ ____
ROOT
ATOM      1  C   UNL     1      -7.990  -2.646 129.785  0.00  0.00    +0.000 C 
ENDROOT
BRANCH   1   2
ATOM      2  C   UNL     1      -8.042  -2.615 128.293  0.00  0.00    +0.000 A 
ATOM      3  C   UNL     1      -7.410  -1.577 127.611  0.00  0.00    +0.000 A 
ATOM      4  C   UNL     1      -7.600  -1.437 126.248  0.00  0.00    +0.000 A 
ATOM      5  C   UNL     1      -8.388  -2.355 125.523  0.00  0.00    +0.000 A 
ATOM      6  C   UNL     1      -8.998  -3.395 126.224  0.00  0.00    +0.000 A 
ATOM      7  C   UNL     1      -8.771  -3.559 127.565  0.00  0.00    +0.000 A 
BRANCH   5   8
ATOM      8  C   UNL     1      -8.486  -2.285 124.006  0.00  0.00    +0.000 C 
ATOM      9  C   UNL     1      -7.111  -2.553 123.376  0.00  0.00    +0.000 C 
ATOM     10  C   UNL     1      -9.503  -3.350 123.555  0.00  0.00    +0.000 C 
ATOM     11  C   UNL     1      -8.991  -0.910 123.510  0.00  0.00    +0.000 C 
ENDBRANCH   5   8
ENDBRANCH   1   2
BRANCH   1  13
ATOM     12  C   UNL     1      -8.421  -0.616 131.076  0.00  0.00    +0.000 C 
ATOM     13  C   UNL     1      -7.287  -1.437 130.425  0.00  0.00    +0.000 C 
BRANCH  13  14
ATOM     14  C   UNL     1      -6.109  -1.882 131.393  0.00  0.00    +0.000 C 
BRANCH  14  15
ATOM     15  N   UNL     1      -6.165  -3.253 131.960  0.00  0.00    +0.000 NA
ATOM     16  C   UNL     1      -4.885  -3.977 131.897  0.00  0.00    +0.000 C 
ATOM     17  C   UNL     1      -5.034  -5.362 132.554  0.00  0.00    +0.000 C 
ATOM     18  C   UNL     1      -5.503  -5.262 134.004  0.00  0.00    +0.000 C 
ATOM     19  C   UNL     1      -6.796  -4.479 134.081  0.00  0.00    +0.000 C 
ATOM     20  C   UNL     1      -6.639  -3.188 133.331  0.00  0.00    +0.000 C 
ENDBRANCH  14  15
ENDBRANCH  13  14
ENDBRANCH   1  13
TORSDOF 5
ENDMDL
