MODEL 1
REMARK VINA RESULT:      -7.1      0.000      0.000
REMARK  Name = Fentanyl
REMARK  7 active torsions:
REMARK  status: ('A' for Active; 'I' for Inactive)
REMARK    1  A    between atoms: C_1  and  C_2
REMARK    2  A    between atoms: C_2  and  C_3
REMARK    3  A    between atoms: N_5  and  C_6
REMARK    4  A    between atoms: N_5  and  C_20
REMARK    5  A    between atoms: N_9  and  C_10
REMARK    6  A    between atoms: C_10  and  C_11
REMARK    7  A    between atoms: C_11  and  C_12
REMARK                            x       y       z     vdW  Elec       q    Type
REMARK                         _______ _______ _______ _____ _____    ______ ____
ROOT
ATOM      1  C   UNL     1      -6.605   3.052 125.243  0.00  0.00    +0.000 C 
ATOM      2  C   UNL     1      -5.243   2.546 125.718  0.00  0.00    +0.000 C 
ATOM      3  C   UNL     1      -5.278   1.127 126.186  0.00  0.00    +0.000 C 
ATOM      4  N   UNL     1      -6.181   1.009 127.322  0.00  0.00    +0.000 NA
ATOM      5  C   UNL     1      -7.556   1.385 126.986  0.00  0.00    +0.000 C 
ATOM      6  C   UNL     1      -7.665   2.753 126.323  0.00  0.00    +0.000 C 
ENDROOT
BRANCH   1   9
ATOM      7  C   UNL     1      -6.277   3.414 122.655  0.00  0.00    +0.000 C 
ATOM      8  O   UNL     1      -6.613   3.181 121.483  0.00  0.00    +0.000 OA
ATOM      9  N   UNL     1      -6.832   2.766 123.777  0.00  0.00    +0.000 N 
BRANCH   9  10
ATOM     10  C   UNL     1      -7.824   1.710 123.541  0.00  0.00    +0.000 A 
ATOM     11  C   UNL     1      -7.494   0.340 123.473  0.00  0.00    +0.000 A 
ATOM     12  C   UNL     1      -8.400  -0.641 123.082  0.00  0.00    +0.000 A 
ATOM     13  C   UNL     1      -9.698  -0.281 122.788  0.00  0.00    +0.000 A 
ATOM     14  C   UNL     1     -10.073   1.057 122.883  0.00  0.00    +0.000 A 
ATOM     15  C   UNL     1      -9.150   2.041 123.258  0.00  0.00    +0.000 A 
ENDBRANCH   9  10
BRANCH   7  17
ATOM     16  C   UNL     1      -4.413   4.892 121.687  0.00  0.00    +0.000 C 
ATOM     17  C   UNL     1      -5.258   4.497 122.881  0.00  0.00    +0.000 C 
ENDBRANCH   7  17
ENDBRANCH   1   9
BRANCH   4  18
ATOM     18  C   UNL     1      -6.132  -0.391 127.741  0.00  0.00    +0.000 C 
BRANCH  18  19
ATOM     19  C   UNL     1      -5.509  -1.286 126.673  0.00  0.00    +0.000 C 
BRANCH  19  20
ATOM     20  C   UNL     1      -6.510  -2.235 126.094  0.00  0.00    +0.000 A 
ATOM     21  C   UNL     1      -6.155  -2.960 124.957  0.00  0.00    +0.000 A 
ATOM     22  C   UNL     1      -7.116  -3.719 124.304  0.00  0.00    +0.000 A 
ATOM     23  C   UNL     1      -8.401  -3.831 124.837  0.00  0.00    +0.000 A 
ATOM     24  C   UNL     1      -8.733  -3.179 126.018  0.00  0.00    +0.000 A 
ATOM     25  C   UNL     1      -7.786  -2.395 126.653  0.00  0.00    +0.000 A 
ENDBRANCH  19  20
ENDBRANCH  18  19
ENDBRANCH   4  18
TORSDOF 6
ENDMDL
MODEL 2
REMARK VINA RESULT:      -7.0      2.477      6.339
REMARK  Name = Fentanyl
REMARK  7 active torsions:
REMARK  status: ('A' for Active; 'I' for Inactive)
REMARK    1  A    between atoms: C_1  and  C_2
REMARK    2  A    between atoms: C_2  and  C_3
REMARK    3  A    between atoms: N_5  and  C_6
REMARK    4  A    between atoms: N_5  and  C_20
REMARK    5  A    between atoms: N_9  and  C_10
REMARK    6  A    between atoms: C_10  and  C_11
REMARK    7  A    between atoms: C_11  and  C_12
REMARK                            x       y       z     vdW  Elec       q    Type
REMARK                         _______ _______ _______ _____ _____    ______ ____
ROOT
ATOM      1  C   UNL     1      -6.873  -0.462 127.217  0.00  0.00    +0.000 C 
ATOM      2  C   UNL     1      -8.019   0.545 127.308  0.00  0.00    +0.000 C 
ATOM      3  C   UNL     1      -8.092   1.454 126.124  0.00  0.00    +0.000 C 
ATOM      4  N   UNL     1      -6.865   2.232 126.027  0.00  0.00    +0.000 NA
ATOM      5  C   UNL     1      -5.681   1.388 125.849  0.00  0.00    +0.000 C 
ATOM      6  C   UNL     1      -5.562   0.283 126.890  0.00  0.00    +0.000 C 
ENDROOT
BRANCH   1   9
ATOM      7  C   UNL     1      -7.998  -2.835 127.011  0.00  0.00    +0.000 C 
ATOM      8  O   UNL     1      -8.197  -3.883 126.375  0.00  0.00    +0.000 OA
ATOM      9  N   UNL     1      -7.291  -1.727 126.503  0.00  0.00    +0.000 N 
BRANCH   9  10
ATOM     10  C   UNL     1      -6.814  -1.792 125.116  0.00  0.00    +0.000 A 
ATOM     11  C   UNL     1      -7.543  -1.279 124.022  0.00  0.00    +0.000 A 
ATOM     12  C   UNL     1      -7.175  -1.492 122.698  0.00  0.00    +0.000 A 
ATOM     13  C   UNL     1      -6.020  -2.194 122.423  0.00  0.00    +0.000 A 
ATOM     14  C   UNL     1      -5.253  -2.683 123.478  0.00  0.00    +0.000 A 
ATOM     15  C   UNL     1      -5.640  -2.482 124.808  0.00  0.00    +0.000 A 
ENDBRANCH   9  10
BRANCH   7  17
ATOM     16  C   UNL     1      -7.659  -3.504 129.468  0.00  0.00    +0.000 C 
ATOM     17  C   UNL     1      -8.494  -2.782 128.431  0.00  0.00    +0.000 C 
ENDBRANCH   7  17
ENDBRANCH   1   9
BRANCH   4  18
ATOM     18  C   UNL     1      -7.031   3.116 124.873  0.00  0.00    +0.000 C 
BRANCH  18  19
ATOM     19  C   UNL     1      -7.992   2.534 123.840  0.00  0.00    +0.000 C 
BRANCH  19  20
ATOM     20  C   UNL     1      -7.661   2.995 122.456  0.00  0.00    +0.000 A 
ATOM     21  C   UNL     1      -6.319   3.041 122.077  0.00  0.00    +0.000 A 
ATOM     22  C   UNL     1      -5.973   3.620 120.863  0.00  0.00    +0.000 A 
ATOM     23  C   UNL     1      -6.967   4.063 119.990  0.00  0.00    +0.000 A 
ATOM     24  C   UNL     1      -8.309   3.939 120.328  0.00  0.00    +0.000 A 
ATOM     25  C   UNL     1      -8.656   3.393 121.552  0.00  0.00    +0.000 A 
ENDBRANCH  19  20
ENDBRANCH  18  19
ENDBRANCH   4  18
TORSDOF 6
ENDMDL
MODEL 3
REMARK VINA RESULT:      -6.8      2.586      4.662
REMARK  Name = Fentanyl
REMARK  7 active torsions:
REMARK  status: ('A' for Active; 'I' for Inactive)
REMARK    1  A    between atoms: C_1  and  C_2
REMARK    2  A    between atoms: C_2  and  C_3
REMARK    3  A    between atoms: N_5  and  C_6
REMARK    4  A    between atoms: N_5  and  C_20
REMARK    5  A    between atoms: N_9  and  C_10
REMARK    6  A    between atoms: C_10  and  C_11
REMARK    7  A    between atoms: C_11  and  C_12
REMARK                            x       y       z     vdW  Elec       q    Type
REMARK                         _______ _______ _______ _____ _____    ______ ____
ROOT
ATOM      1  C   UNL     1      -9.039  -0.868 124.193  0.00  0.00    +0.000 C 
ATOM      2  C   UNL     1      -9.384  -0.514 125.639  0.00  0.00    +0.000 C 
ATOM      3  C   UNL     1      -8.755  -1.436 126.632  0.00  0.00    +0.000 C 
ATOM      4  N   UNL     1      -9.236  -2.793 126.414  0.00  0.00    +0.000 NA
ATOM      5  C   UNL     1      -8.897  -3.299 125.082  0.00  0.00    +0.000 C 
ATOM      6  C   UNL     1      -9.320  -2.366 123.954  0.00  0.00    +0.000 C 
ENDROOT
BRANCH   1   9
ATOM      7  C   UNL     1      -7.567   1.145 123.349  0.00  0.00    +0.000 C 
ATOM      8  O   UNL     1      -6.503   1.580 122.878  0.00  0.00    +0.000 OA
ATOM      9  N   UNL     1      -7.767  -0.195 123.736  0.00  0.00    +0.000 N 
BRANCH   9  10
ATOM     10  C   UNL     1      -6.629  -1.117 123.634  0.00  0.00    +0.000 A 
ATOM     11  C   UNL     1      -6.324  -1.842 122.462  0.00  0.00    +0.000 A 
ATOM     12  C   UNL     1      -5.356  -2.840 122.416  0.00  0.00    +0.000 A 
ATOM     13  C   UNL     1      -4.616  -3.114 123.547  0.00  0.00    +0.000 A 
ATOM     14  C   UNL     1      -4.861  -2.392 124.713  0.00  0.00    +0.000 A 
ATOM     15  C   UNL     1      -5.851  -1.403 124.756  0.00  0.00    +0.000 A 
ENDBRANCH   9  10
BRANCH   7  17
ATOM     16  C   UNL     1      -8.641   3.151 124.540  0.00  0.00    +0.000 C 
ATOM     17  C   UNL     1      -8.722   2.103 123.449  0.00  0.00    +0.000 C 
ENDBRANCH   7  17
ENDBRANCH   1   9
BRANCH   4  18
ATOM     18  C   UNL     1      -8.606  -3.621 127.441  0.00  0.00    +0.000 C 
BRANCH  18  19
ATOM     19  C   UNL     1      -8.113  -2.791 128.623  0.00  0.00    +0.000 C 
BRANCH  19  20
ATOM     20  C   UNL     1      -6.712  -3.149 129.005  0.00  0.00    +0.000 A 
ATOM     21  C   UNL     1      -6.522  -4.095 130.013  0.00  0.00    +0.000 A 
ATOM     22  C   UNL     1      -5.243  -4.322 130.501  0.00  0.00    +0.000 A 
ATOM     23  C   UNL     1      -4.148  -3.681 129.922  0.00  0.00    +0.000 A 
ATOM     24  C   UNL     1      -4.325  -2.803 128.860  0.00  0.00    +0.000 A 
ATOM     25  C   UNL     1      -5.603  -2.549 128.393  0.00  0.00    +0.000 A 
ENDBRANCH  19  20
ENDBRANCH  18  19
ENDBRANCH   4  18
TORSDOF 6
ENDMDL
MODEL 4
REMARK VINA RESULT:      -6.6      2.523      6.868
REMARK  Name = Fentanyl
REMARK  7 active torsions:
REMARK  status: ('A' for Active; 'I' for Inactive)
REMARK    1  A    between atoms: C_1  and  C_2
REMARK    2  A    between atoms: C_2  and  C_3
REMARK    3  A    between atoms: N_5  and  C_6
REMARK    4  A    between atoms: N_5  and  C_20
REMARK    5  A    between atoms: N_9  and  C_10
REMARK    6  A    between atoms: C_10  and  C_11
REMARK    7  A    between atoms: C_11  and  C_12
REMARK                            x       y       z     vdW  Elec       q    Type
REMARK                         _______ _______ _______ _____ _____    ______ ____
ROOT
ATOM      1  C   UNL     1      -8.291  -1.449 125.114  0.00  0.00    +0.000 C 
ATOM      2  C   UNL     1      -7.800  -1.098 123.709  0.00  0.00    +0.000 C 
ATOM      3  C   UNL     1      -7.489   0.354 123.546  0.00  0.00    +0.000 C 
ATOM      4  N   UNL     1      -8.693   1.141 123.771  0.00  0.00    +0.000 NA
ATOM      5  C   UNL     1      -9.232   0.966 125.121  0.00  0.00    +0.000 C 
ATOM      6  C   UNL     1      -9.437  -0.494 125.508  0.00  0.00    +0.000 C 
ENDROOT
BRANCH   1   9
ATOM      7  C   UNL     1      -5.851  -2.228 125.725  0.00  0.00    +0.000 C 
ATOM      8  O   UNL     1      -5.012  -2.582 126.569  0.00  0.00    +0.000 OA
ATOM      9  N   UNL     1      -7.147  -1.778 126.044  0.00  0.00    +0.000 N 
BRANCH   9  10
ATOM     10  C   UNL     1      -7.506  -1.664 127.463  0.00  0.00    +0.000 A 
ATOM     11  C   UNL     1      -7.259  -0.507 128.233  0.00  0.00    +0.000 A 
ATOM     12  C   UNL     1      -7.440  -0.459 129.612  0.00  0.00    +0.000 A 
ATOM     13  C   UNL     1      -7.930  -1.569 130.266  0.00  0.00    +0.000 A 
ATOM     14  C   UNL     1      -8.223  -2.717 129.535  0.00  0.00    +0.000 A 
ATOM     15  C   UNL     1      -8.019  -2.764 128.151  0.00  0.00    +0.000 A 
ENDBRANCH   9  10
BRANCH   7  17
ATOM     16  C   UNL     1      -4.877  -3.674 123.839  0.00  0.00    +0.000 C 
ATOM     17  C   UNL     1      -5.468  -2.350 124.275  0.00  0.00    +0.000 C 
ENDBRANCH   7  17
ENDBRANCH   1   9
BRANCH   4  18
ATOM     18  C   UNL     1      -8.315   2.538 123.558  0.00  0.00    +0.000 C 
BRANCH  18  19
ATOM     19  C   UNL     1      -8.663   3.016 122.151  0.00  0.00    +0.000 C 
BRANCH  19  20
ATOM     20  C   UNL     1      -7.464   3.556 121.438  0.00  0.00    +0.000 A 
ATOM     21  C   UNL     1      -6.253   3.610 122.128  0.00  0.00    +0.000 A 
ATOM     22  C   UNL     1      -5.168   4.257 121.551  0.00  0.00    +0.000 A 
ATOM     23  C   UNL     1      -5.263   4.763 120.254  0.00  0.00    +0.000 A 
ATOM     24  C   UNL     1      -6.442   4.633 119.531  0.00  0.00    +0.000 A 
ATOM     25  C   UNL     1      -7.536   4.018 120.116  0.00  0.00    +0.000 A 
ENDBRANCH  19  20
ENDBRANCH  18  19
ENDBRANCH   4  18
TORSDOF 6
ENDMDL
MODEL 5
REMARK VINA RESULT:      -6.6      7.333      9.397
REMARK  Name = Fentanyl
REMARK  7 active torsions:
REMARK  status: ('A' for Active; 'I' for Inactive)
REMARK    1  A    between atoms: C_1  and  C_2
REMARK    2  A    between atoms: C_2  and  C_3
REMARK    3  A    between atoms: N_5  and  C_6
REMARK    4  A    between atoms: N_5  and  C_20
REMARK    5  A    between atoms: N_9  and  C_10
REMARK    6  A    between atoms: C_10  and  C_11
REMARK    7  A    between atoms: C_11  and  C_12
REMARK                            x       y       z     vdW  Elec       q    Type
REMARK                         _______ _______ _______ _____ _____    ______ ____
ROOT
ATOM      1  C   UNL     1      -8.928   6.116 132.087  0.00  0.00    +0.000 C 
ATOM      2  C   UNL     1      -7.747   6.591 131.241  0.00  0.00    +0.000 C 
ATOM      3  C   UNL     1      -6.724   5.526 131.016  0.00  0.00    +0.000 C 
ATOM      4  N   UNL     1      -6.171   5.101 132.293  0.00  0.00    +0.000 NA
ATOM      5  C   UNL     1      -7.189   4.538 133.184  0.00  0.00    +0.000 C 
ATOM      6  C   UNL     1      -8.398   5.446 133.371  0.00  0.00    +0.000 C 
ENDROOT
BRANCH   1   9
ATOM      7  C   UNL     1     -10.177   4.164 130.837  0.00  0.00    +0.000 C 
ATOM      8  O   UNL     1     -11.048   3.776 130.041  0.00  0.00    +0.000 OA
ATOM      9  N   UNL     1     -10.018   5.505 131.239  0.00  0.00    +0.000 N 
BRANCH   9  10
ATOM     10  C   UNL     1     -10.978   6.493 130.732  0.00  0.00    +0.000 A 
ATOM     11  C   UNL     1     -10.772   7.237 129.550  0.00  0.00    +0.000 A 
ATOM     12  C   UNL     1     -11.594   8.290 129.162  0.00  0.00    +0.000 A 
ATOM     13  C   UNL     1     -12.695   8.604 129.931  0.00  0.00    +0.000 A 
ATOM     14  C   UNL     1     -12.954   7.867 131.084  0.00  0.00    +0.000 A 
ATOM     15  C   UNL     1     -12.111   6.822 131.478  0.00  0.00    +0.000 A 
ENDBRANCH   9  10
BRANCH   7  17
ATOM     16  C   UNL     1      -9.784   1.985 132.140  0.00  0.00    +0.000 C 
ATOM     17  C   UNL     1      -9.202   3.139 131.349  0.00  0.00    +0.000 C 
ENDBRANCH   7  17
ENDBRANCH   1   9
BRANCH   4  18
ATOM     18  C   UNL     1      -5.159   4.090 131.986  0.00  0.00    +0.000 C 
BRANCH  18  19
ATOM     19  C   UNL     1      -3.749   4.675 131.986  0.00  0.00    +0.000 C 
BRANCH  19  20
ATOM     20  C   UNL     1      -3.237   4.883 130.596  0.00  0.00    +0.000 A 
ATOM     21  C   UNL     1      -2.513   6.045 130.325  0.00  0.00    +0.000 A 
ATOM     22  C   UNL     1      -2.171   6.344 129.013  0.00  0.00    +0.000 A 
ATOM     23  C   UNL     1      -2.465   5.443 127.990  0.00  0.00    +0.000 A 
ATOM     24  C   UNL     1      -3.110   4.244 128.269  0.00  0.00    +0.000 A 
ATOM     25  C   UNL     1      -3.482   3.958 129.572  0.00  0.00    +0.000 A 
ENDBRANCH  19  20
ENDBRANCH  18  19
ENDBRANCH   4  18
TORSDOF 6
ENDMDL
MODEL 6
REMARK VINA RESULT:      -6.5      6.594      9.401
REMARK  Name = Fentanyl
REMARK  7 active torsions:
REMARK  status: ('A' for Active; 'I' for Inactive)
REMARK    1  A    between atoms: C_1  and  C_2
REMARK    2  A    between atoms: C_2  and  C_3
REMARK    3  A    between atoms: N_5  and  C_6
REMARK    4  A    between atoms: N_5  and  C_20
REMARK    5  A    between atoms: N_9  and  C_10
REMARK    6  A    between atoms: C_10  and  C_11
REMARK    7  A    between atoms: C_11  and  C_12
REMARK                            x       y       z     vdW  Elec       q    Type
REMARK                         _______ _______ _______ _____ _____    ______ ____
ROOT
ATOM      1  C   UNL     1      -3.943   3.243 130.346  0.00  0.00    +0.000 C 
ATOM      2  C   UNL     1      -5.389   2.976 129.927  0.00  0.00    +0.000 C 
ATOM      3  C   UNL     1      -6.381   3.756 130.725  0.00  0.00    +0.000 C 
ATOM      4  N   UNL     1      -6.283   3.384 132.128  0.00  0.00    +0.000 NA
ATOM      5  C   UNL     1      -4.962   3.668 132.691  0.00  0.00    +0.000 C 
ATOM      6  C   UNL     1      -3.817   3.081 131.875  0.00  0.00    +0.000 C 
ENDROOT
BRANCH   1   9
ATOM      7  C   UNL     1      -2.802   4.447 128.300  0.00  0.00    +0.000 C 
ATOM      8  O   UNL     1      -2.231   5.436 127.812  0.00  0.00    +0.000 OA
ATOM      9  N   UNL     1      -3.348   4.414 129.599  0.00  0.00    +0.000 N 
BRANCH   9  10
ATOM     10  C   UNL     1      -3.291   5.642 130.400  0.00  0.00    +0.000 A 
ATOM     11  C   UNL     1      -4.282   6.646 130.351  0.00  0.00    +0.000 A 
ATOM     12  C   UNL     1      -4.145   7.881 130.977  0.00  0.00    +0.000 A 
ATOM     13  C   UNL     1      -3.015   8.136 131.724  0.00  0.00    +0.000 A 
ATOM     14  C   UNL     1      -2.032   7.155 131.830  0.00  0.00    +0.000 A 
ATOM     15  C   UNL     1      -2.168   5.922 131.181  0.00  0.00    +0.000 A 
ENDBRANCH   9  10
BRANCH   7  17
ATOM     16  C   UNL     1      -1.657   2.923 126.579  0.00  0.00    +0.000 C 
ATOM     17  C   UNL     1      -2.854   3.196 127.466  0.00  0.00    +0.000 C 
ENDBRANCH   7  17
ENDBRANCH   1   9
BRANCH   4  18
ATOM     18  C   UNL     1      -7.305   4.159 132.831  0.00  0.00    +0.000 C 
BRANCH  18  19
ATOM     19  C   UNL     1      -7.200   5.651 132.528  0.00  0.00    +0.000 C 
BRANCH  19  20
ATOM     20  C   UNL     1      -8.463   6.184 131.928  0.00  0.00    +0.000 A 
ATOM     21  C   UNL     1      -9.667   5.932 132.586  0.00  0.00    +0.000 A 
ATOM     22  C   UNL     1     -10.864   6.268 131.970  0.00  0.00    +0.000 A 
ATOM     23  C   UNL     1     -10.858   6.938 130.746  0.00  0.00    +0.000 A 
ATOM     24  C   UNL     1      -9.658   7.269 130.129  0.00  0.00    +0.000 A 
ATOM     25  C   UNL     1      -8.462   6.905 130.725  0.00  0.00    +0.000 A 
ENDBRANCH  19  20
ENDBRANCH  18  19
ENDBRANCH   4  18
TORSDOF 6
ENDMDL
MODEL 7
REMARK VINA RESULT:      -6.4      2.622      6.683
REMARK  Name = Fentanyl
REMARK  7 active torsions:
REMARK  status: ('A' for Active; 'I' for Inactive)
REMARK    1  A    between atoms: C_1  and  C_2
REMARK    2  A    between atoms: C_2  and  C_3
REMARK    3  A    between atoms: N_5  and  C_6
REMARK    4  A    between atoms: N_5  and  C_20
REMARK    5  A    between atoms: N_9  and  C_10
REMARK    6  A    between atoms: C_10  and  C_11
REMARK    7  A    between atoms: C_11  and  C_12
REMARK                            x       y       z     vdW  Elec       q    Type
REMARK                         _______ _______ _______ _____ _____    ______ ____
ROOT
ATOM      1  C   UNL     1      -7.132   0.196 127.179  0.00  0.00    +0.000 C 
ATOM      2  C   UNL     1      -8.347   1.083 126.909  0.00  0.00    +0.000 C 
ATOM      3  C   UNL     1      -8.793   1.044 125.484  0.00  0.00    +0.000 C 
ATOM      4  N   UNL     1      -7.726   1.533 124.623  0.00  0.00    +0.000 NA
ATOM      5  C   UNL     1      -6.514   0.716 124.716  0.00  0.00    +0.000 C 
ATOM      6  C   UNL     1      -6.030   0.511 126.146  0.00  0.00    +0.000 C 
ENDROOT
BRANCH   1   9
ATOM      7  C   UNL     1      -7.574  -1.829 128.804  0.00  0.00    +0.000 C 
ATOM      8  O   UNL     1      -7.810  -3.035 128.985  0.00  0.00    +0.000 OA
ATOM      9  N   UNL     1      -7.534  -1.216 127.535  0.00  0.00    +0.000 N 
BRANCH   9  10
ATOM     10  C   UNL     1      -7.850  -2.041 126.363  0.00  0.00    +0.000 A 
ATOM     11  C   UNL     1      -9.167  -2.389 125.994  0.00  0.00    +0.000 A 
ATOM     12  C   UNL     1      -9.458  -3.306 124.989  0.00  0.00    +0.000 A 
ATOM     13  C   UNL     1      -8.423  -3.875 124.276  0.00  0.00    +0.000 A 
ATOM     14  C   UNL     1      -7.110  -3.527 124.584  0.00  0.00    +0.000 A 
ATOM     15  C   UNL     1      -6.826  -2.618 125.611  0.00  0.00    +0.000 A 
ENDBRANCH   9  10
BRANCH   7  17
ATOM     16  C   UNL     1      -8.432  -0.444 130.788  0.00  0.00    +0.000 C 
ATOM     17  C   UNL     1      -7.253  -0.997 130.015  0.00  0.00    +0.000 C 
ENDBRANCH   7  17
ENDBRANCH   1   9
BRANCH   4  18
ATOM     18  C   UNL     1      -8.252   1.497 123.258  0.00  0.00    +0.000 C 
BRANCH  18  19
ATOM     19  C   UNL     1      -8.647   2.885 122.761  0.00  0.00    +0.000 C 
BRANCH  19  20
ATOM     20  C   UNL     1      -7.583   3.488 121.900  0.00  0.00    +0.000 A 
ATOM     21  C   UNL     1      -7.908   3.826 120.586  0.00  0.00    +0.000 A 
ATOM     22  C   UNL     1      -6.904   4.230 119.718  0.00  0.00    +0.000 A 
ATOM     23  C   UNL     1      -5.598   4.388 120.182  0.00  0.00    +0.000 A 
ATOM     24  C   UNL     1      -5.288   4.135 121.513  0.00  0.00    +0.000 A 
ATOM     25  C   UNL     1      -6.281   3.699 122.373  0.00  0.00    +0.000 A 
ENDBRANCH  19  20
ENDBRANCH  18  19
ENDBRANCH   4  18
TORSDOF 6
ENDMDL
MODEL 8
REMARK VINA RESULT:      -6.4      6.331      8.574
REMARK  Name = Fentanyl
REMARK  7 active torsions:
REMARK  status: ('A' for Active; 'I' for Inactive)
REMARK    1  A    between atoms: C_1  and  C_2
REMARK    2  A    between atoms: C_2  and  C_3
REMARK    3  A    between atoms: N_5  and  C_6
REMARK    4  A    between atoms: N_5  and  C_20
REMARK    5  A    between atoms: N_9  and  C_10
REMARK    6  A    between atoms: C_10  and  C_11
REMARK    7  A    between atoms: C_11  and  C_12
REMARK                            x       y       z     vdW  Elec       q    Type
REMARK                         _______ _______ _______ _____ _____    ______ ____
ROOT
ATOM      1  C   UNL     1      -8.872   6.064 131.984  0.00  0.00    +0.000 C 
ATOM      2  C   UNL     1      -7.921   6.908 131.137  0.00  0.00    +0.000 C 
ATOM      3  C   UNL     1      -6.619   6.226 130.867  0.00  0.00    +0.000 C 
ATOM      4  N   UNL     1      -5.932   5.966 132.123  0.00  0.00    +0.000 NA
ATOM      5  C   UNL     1      -6.701   5.090 133.011  0.00  0.00    +0.000 C 
ATOM      6  C   UNL     1      -8.130   5.565 133.241  0.00  0.00    +0.000 C 
ENDROOT
BRANCH   1   9
ATOM      7  C   UNL     1     -10.916   5.470 130.434  0.00  0.00    +0.000 C 
ATOM      8  O   UNL     1     -11.619   4.628 129.851  0.00  0.00    +0.000 OA
ATOM      9  N   UNL     1      -9.733   5.160 131.133  0.00  0.00    +0.000 N 
BRANCH   9  10
ATOM     10  C   UNL     1      -9.271   3.767 131.120  0.00  0.00    +0.000 A 
ATOM     11  C   UNL     1      -8.405   3.247 130.134  0.00  0.00    +0.000 A 
ATOM     12  C   UNL     1      -8.105   1.894 130.023  0.00  0.00    +0.000 A 
ATOM     13  C   UNL     1      -8.632   1.009 130.941  0.00  0.00    +0.000 A 
ATOM     14  C   UNL     1      -9.459   1.489 131.954  0.00  0.00    +0.000 A 
ATOM     15  C   UNL     1      -9.772   2.850 132.046  0.00  0.00    +0.000 A 
ENDBRANCH   9  10
BRANCH   7  17
ATOM     16  C   UNL     1     -12.545   7.218 131.376  0.00  0.00    +0.000 C 
ATOM     17  C   UNL     1     -11.402   6.894 130.437  0.00  0.00    +0.000 C 
ENDBRANCH   7  17
ENDBRANCH   1   9
BRANCH   4  18
ATOM     18  C   UNL     1      -4.660   5.335 131.772  0.00  0.00    +0.000 C 
BRANCH  18  19
ATOM     19  C   UNL     1      -4.859   4.073 130.937  0.00  0.00    +0.000 C 
BRANCH  19  20
ATOM     20  C   UNL     1      -3.952   4.047 129.749  0.00  0.00    +0.000 A 
ATOM     21  C   UNL     1      -3.224   5.199 129.446  0.00  0.00    +0.000 A 
ATOM     22  C   UNL     1      -2.506   5.260 128.260  0.00  0.00    +0.000 A 
ATOM     23  C   UNL     1      -2.436   4.144 127.426  0.00  0.00    +0.000 A 
ATOM     24  C   UNL     1      -3.089   2.966 127.767  0.00  0.00    +0.000 A 
ATOM     25  C   UNL     1      -3.834   2.913 128.933  0.00  0.00    +0.000 A 
ENDBRANCH  19  20
ENDBRANCH  18  19
ENDBRANCH   4  18
TORSDOF 6
ENDMDL
MODEL 9
REMARK VINA RESULT:      -6.4      1.771      2.417
REMARK  Name = Fentanyl
REMARK  7 active torsions:
REMARK  status: ('A' for Active; 'I' for Inactive)
REMARK    1  A    between atoms: C_1  and  C_2
REMARK    2  A    between atoms: C_2  and  C_3
REMARK    3  A    between atoms: N_5  and  C_6
REMARK    4  A    between atoms: N_5  and  C_20
REMARK    5  A    between atoms: N_9  and  C_10
REMARK    6  A    between atoms: C_10  and  C_11
REMARK    7  A    between atoms: C_11  and  C_12
REMARK                            x       y       z     vdW  Elec       q    Type
REMARK                         _______ _______ _______ _____ _____    ______ ____
ROOT
ATOM      1  C   UNL     1      -6.416   2.271 127.544  0.00  0.00    +0.000 C 
ATOM      2  C   UNL     1      -5.241   1.427 128.039  0.00  0.00    +0.000 C 
ATOM      3  C   UNL     1      -5.448  -0.038 127.834  0.00  0.00    +0.000 C 
ATOM      4  N   UNL     1      -6.616  -0.477 128.583  0.00  0.00    +0.000 NA
ATOM      5  C   UNL     1      -7.843   0.195 128.151  0.00  0.00    +0.000 C 
ATOM      6  C   UNL     1      -7.728   1.714 128.133  0.00  0.00    +0.000 C 
ENDROOT
BRANCH   1   9
ATOM      7  C   UNL     1      -5.373   3.553 125.494  0.00  0.00    +0.000 C 
ATOM      8  O   UNL     1      -5.404   3.876 124.295  0.00  0.00    +0.000 OA
ATOM      9  N   UNL     1      -6.269   2.641 126.087  0.00  0.00    +0.000 N 
BRANCH   9  10
ATOM     10  C   UNL     1      -7.260   1.989 125.222  0.00  0.00    +0.000 A 
ATOM     11  C   UNL     1      -7.008   0.789 124.524  0.00  0.00    +0.000 A 
ATOM     12  C   UNL     1      -7.879   0.264 123.576  0.00  0.00    +0.000 A 
ATOM     13  C   UNL     1      -9.073   0.907 123.329  0.00  0.00    +0.000 A 
ATOM     14  C   UNL     1      -9.377   2.073 124.027  0.00  0.00    +0.000 A 
ATOM     15  C   UNL     1      -8.485   2.606 124.965  0.00  0.00    +0.000 A 
ENDBRANCH   9  10
BRANCH   7  17
ATOM     16  C   UNL     1      -2.953   3.648 126.346  0.00  0.00    +0.000 C 
ATOM     17  C   UNL     1      -4.351   4.229 126.366  0.00  0.00    +0.000 C 
ENDBRANCH   7  17
ENDBRANCH   1   9
BRANCH   4  18
ATOM     18  C   UNL     1      -6.727  -1.919 128.361  0.00  0.00    +0.000 C 
BRANCH  18  19
ATOM     19  C   UNL     1      -8.114  -2.315 127.862  0.00  0.00    +0.000 C 
BRANCH  19  20
ATOM     20  C   UNL     1      -8.113  -2.601 126.393  0.00  0.00    +0.000 A 
ATOM     21  C   UNL     1      -9.340  -2.709 125.739  0.00  0.00    +0.000 A 
ATOM     22  C   UNL     1      -9.373  -3.138 124.419  0.00  0.00    +0.000 A 
ATOM     23  C   UNL     1      -8.184  -3.364 123.726  0.00  0.00    +0.000 A 
ATOM     24  C   UNL     1      -6.957  -3.173 124.350  0.00  0.00    +0.000 A 
ATOM     25  C   UNL     1      -6.921  -2.778 125.676  0.00  0.00    +0.000 A 
ENDBRANCH  19  20
ENDBRANCH  18  19
ENDBRANCH   4  18
TORSDOF 6
ENDMDL
