MODEL 1
REMARK VINA RESULT:      -2.7      0.000      0.000
REMARK  Name = Ferric chloride
REMARK  0 active torsions:
REMARK  status: ('A' for Active; 'I' for Inactive)
REMARK                            x       y       z     vdW  Elec       q    Type
REMARK                         _______ _______ _______ _____ _____    ______ ____
ROOT
ATOM      1 CL   UNL     1     -12.771   7.418 131.471  0.00  0.00    +0.000 Cl
ATOM      2 FE   UNL     1     -12.328   9.046 129.849  0.00  0.00    +0.000 Fe
ATOM      3 CL   UNL     1     -10.727   8.642 128.192  0.00  0.00    +0.000 Cl
ATOM      4 CL   UNL     1     -13.487  11.079 129.885  0.00  0.00    +0.000 Cl
ENDROOT
TORSDOF 0
ENDMDL
MODEL 2
REMARK VINA RESULT:      -2.7      0.100      3.482
REMARK  Name = Ferric chloride
REMARK  0 active torsions:
REMARK  status: ('A' for Active; 'I' for Inactive)
REMARK                            x       y       z     vdW  Elec       q    Type
REMARK                         _______ _______ _______ _____ _____    ______ ____
ROOT
ATOM      1 CL   UNL     1     -13.470  11.001 129.951  0.00  0.00    +0.000 Cl
ATOM      2 FE   UNL     1     -12.275   8.991 129.866  0.00  0.00    +0.000 Fe
ATOM      3 CL   UNL     1     -12.694   7.313 131.442  0.00  0.00    +0.000 Cl
ATOM      4 CL   UNL     1     -10.660   8.659 128.205  0.00  0.00    +0.000 Cl
ENDROOT
TORSDOF 0
ENDMDL
MODEL 3
REMARK VINA RESULT:      -2.7      0.079      3.513
REMARK  Name = Ferric chloride
REMARK  0 active torsions:
REMARK  status: ('A' for Active; 'I' for Inactive)
REMARK                            x       y       z     vdW  Elec       q    Type
REMARK                         _______ _______ _______ _____ _____    ______ ____
ROOT
ATOM      1 CL   UNL     1     -10.635   8.636 128.202  0.00  0.00    +0.000 Cl
ATOM      2 FE   UNL     1     -12.285   9.007 129.819  0.00  0.00    +0.000 Fe
ATOM      3 CL   UNL     1     -13.479  11.018 129.831  0.00  0.00    +0.000 Cl
ATOM      4 CL   UNL     1     -12.740   7.366 131.425  0.00  0.00    +0.000 Cl
ENDROOT
TORSDOF 0
ENDMDL
MODEL 4
REMARK VINA RESULT:      -2.7      0.050      2.866
REMARK  Name = Ferric chloride
REMARK  0 active torsions:
REMARK  status: ('A' for Active; 'I' for Inactive)
REMARK                            x       y       z     vdW  Elec       q    Type
REMARK                         _______ _______ _______ _____ _____    ______ ____
ROOT
ATOM      1 CL   UNL     1     -10.682   8.647 128.177  0.00  0.00    +0.000 Cl
ATOM      2 FE   UNL     1     -12.309   9.026 129.816  0.00  0.00    +0.000 Fe
ATOM      3 CL   UNL     1     -12.757   7.384 131.421  0.00  0.00    +0.000 Cl
ATOM      4 CL   UNL     1     -13.487  11.048 129.850  0.00  0.00    +0.000 Cl
ENDROOT
TORSDOF 0
ENDMDL
MODEL 5
REMARK VINA RESULT:      -2.7     14.686     15.546
REMARK  Name = Ferric chloride
REMARK  0 active torsions:
REMARK  status: ('A' for Active; 'I' for Inactive)
REMARK                            x       y       z     vdW  Elec       q    Type
REMARK                         _______ _______ _______ _____ _____    ______ ____
ROOT
ATOM      1 CL   UNL     1      -4.448  -5.042 123.599  0.00  0.00    +0.000 Cl
ATOM      2 FE   UNL     1      -6.307  -3.620 123.630  0.00  0.00    +0.000 Fe
ATOM      3 CL   UNL     1      -6.280  -1.632 122.398  0.00  0.00    +0.000 Cl
ATOM      4 CL   UNL     1      -8.193  -4.188 124.894  0.00  0.00    +0.000 Cl
ENDROOT
TORSDOF 0
ENDMDL
MODEL 6
REMARK VINA RESULT:      -2.7     14.632     15.551
REMARK  Name = Ferric chloride
REMARK  0 active torsions:
REMARK  status: ('A' for Active; 'I' for Inactive)
REMARK                            x       y       z     vdW  Elec       q    Type
REMARK                         _______ _______ _______ _____ _____    ______ ____
ROOT
ATOM      1 CL   UNL     1      -4.421  -4.953 123.606  0.00  0.00    +0.000 Cl
ATOM      2 FE   UNL     1      -6.309  -3.571 123.647  0.00  0.00    +0.000 Fe
ATOM      3 CL   UNL     1      -8.189  -4.195 124.891  0.00  0.00    +0.000 Cl
ATOM      4 CL   UNL     1      -6.316  -1.564 122.442  0.00  0.00    +0.000 Cl
ENDROOT
TORSDOF 0
ENDMDL
MODEL 7
REMARK VINA RESULT:      -2.6     14.602     15.559
REMARK  Name = Ferric chloride
REMARK  0 active torsions:
REMARK  status: ('A' for Active; 'I' for Inactive)
REMARK                            x       y       z     vdW  Elec       q    Type
REMARK                         _______ _______ _______ _____ _____    ______ ____
ROOT
ATOM      1 CL   UNL     1      -6.311  -1.529 122.502  0.00  0.00    +0.000 Cl
ATOM      2 FE   UNL     1      -6.324  -3.568 123.649  0.00  0.00    +0.000 Fe
ATOM      3 CL   UNL     1      -4.460  -4.978 123.552  0.00  0.00    +0.000 Cl
ATOM      4 CL   UNL     1      -8.203  -4.198 124.895  0.00  0.00    +0.000 Cl
ENDROOT
TORSDOF 0
ENDMDL
MODEL 8
REMARK VINA RESULT:      -2.6     11.226     12.099
REMARK  Name = Ferric chloride
REMARK  0 active torsions:
REMARK  status: ('A' for Active; 'I' for Inactive)
REMARK                            x       y       z     vdW  Elec       q    Type
REMARK                         _______ _______ _______ _____ _____    ______ ____
ROOT
ATOM      1 CL   UNL     1      -5.591   5.682 119.072  0.00  0.00    +0.000 Cl
ATOM      2 FE   UNL     1      -6.651   4.581 120.845  0.00  0.00    +0.000 Fe
ATOM      3 CL   UNL     1      -8.844   3.808 120.597  0.00  0.00    +0.000 Cl
ATOM      4 CL   UNL     1      -5.515   4.254 122.865  0.00  0.00    +0.000 Cl
ENDROOT
TORSDOF 0
ENDMDL
MODEL 9
REMARK VINA RESULT:      -2.5      2.257      3.665
REMARK  Name = Ferric chloride
REMARK  0 active torsions:
REMARK  status: ('A' for Active; 'I' for Inactive)
REMARK                            x       y       z     vdW  Elec       q    Type
REMARK                         _______ _______ _______ _____ _____    ______ ____
ROOT
ATOM      1 CL   UNL     1     -10.584   8.609 128.107  0.00  0.00    +0.000 Cl
ATOM      2 FE   UNL     1     -10.767   7.624 130.221  0.00  0.00    +0.000 Fe
ATOM      3 CL   UNL     1      -8.869   6.753 131.275  0.00  0.00    +0.000 Cl
ATOM      4 CL   UNL     1     -12.851   7.510 131.282  0.00  0.00    +0.000 Cl
ENDROOT
TORSDOF 0
ENDMDL
