MODEL 1
REMARK VINA RESULT:      -7.6      0.000      0.000
REMARK  Name = Fesoterodine
REMARK  18 active torsions:
REMARK  status: ('A' for Active; 'I' for Inactive)
REMARK    1  A    between atoms: C_1  and  C_2
REMARK    2  A    between atoms: C_2  and  C_3
REMARK    3  A    between atoms: C_2  and  N_4
REMARK    4  A    between atoms: N_4  and  C_5
REMARK    5  A    between atoms: N_4  and  C_28
REMARK    6  A    between atoms: C_5  and  C_6
REMARK    7  A    between atoms: C_6  and  C_7
REMARK    8  A    between atoms: C_7  and  C_8
REMARK    9  A    between atoms: C_7  and  C_14
REMARK   10  A    between atoms: C_15  and  O_16
REMARK   11  A    between atoms: O_16  and  C_17
REMARK   12  A    between atoms: C_17  and  C_19
REMARK   13  A    between atoms: C_19  and  C_20
REMARK   14  A    between atoms: C_19  and  C_21
REMARK   15  A    between atoms: C_24  and  C_25
REMARK   16  A    between atoms: C_25  and  O_26
REMARK   17  A    between atoms: C_28  and  C_29
REMARK   18  A    between atoms: C_28  and  C_30
REMARK                            x       y       z     vdW  Elec       q    Type
REMARK                         _______ _______ _______ _____ _____    ______ ____
ROOT
ATOM      1  C   UNL     1      -6.569  -0.883 126.068  0.00  0.00    +0.000 C 
ENDROOT
BRANCH   1   2
ATOM      2  C   UNL     1      -7.440  -1.825 126.912  0.00  0.00    +0.000 A 
ATOM      3  C   UNL     1      -7.263  -1.900 128.297  0.00  0.00    +0.000 A 
ATOM      4  C   UNL     1      -7.823  -2.942 129.026  0.00  0.00    +0.000 A 
ATOM      5  C   UNL     1      -8.697  -3.821 128.414  0.00  0.00    +0.000 A 
ATOM      6  C   UNL     1      -9.016  -3.643 127.075  0.00  0.00    +0.000 A 
ATOM      7  C   UNL     1      -8.412  -2.625 126.322  0.00  0.00    +0.000 A 
ENDBRANCH   1   2
BRANCH   1   8
ATOM      8  C   UNL     1      -6.093  -1.431 124.720  0.00  0.00    +0.000 A 
ATOM      9  C   UNL     1      -6.655  -1.050 123.508  0.00  0.00    +0.000 A 
ATOM     10  C   UNL     1      -6.470  -1.905 122.406  0.00  0.00    +0.000 A 
ATOM     11  C   UNL     1      -5.604  -3.035 122.481  0.00  0.00    +0.000 A 
ATOM     12  C   UNL     1      -4.835  -3.268 123.616  0.00  0.00    +0.000 A 
ATOM     13  C   UNL     1      -5.019  -2.349 124.638  0.00  0.00    +0.000 A 
BRANCH   9  14
ATOM     14  O   UNL     1      -7.423   0.164 123.383  0.00  0.00    +0.000 OA
BRANCH  14  15
ATOM     15  C   UNL     1      -8.829   0.131 123.559  0.00  0.00    +0.000 C 
ATOM     16  O   UNL     1      -9.563  -0.773 123.088  0.00  0.00    +0.000 OA
BRANCH  15  17
ATOM     17  C   UNL     1      -9.460   1.231 124.439  0.00  0.00    +0.000 C 
ATOM     18  C   UNL     1      -9.536   0.949 125.941  0.00  0.00    +0.000 C 
ATOM     19  C   UNL     1      -9.098   2.708 124.035  0.00  0.00    +0.000 C 
ENDBRANCH  15  17
ENDBRANCH  14  15
ENDBRANCH   9  14
BRANCH  12  20
ATOM     20  C   UNL     1      -3.936  -4.493 123.777  0.00  0.00    +0.000 C 
BRANCH  20  21
ATOM     21  O   UNL     1      -4.140  -5.606 122.899  0.00  0.00    +0.000 OA
ATOM     22  H   UNL     1      -4.832  -6.194 123.231  0.00  0.00    +0.000 HD
ENDBRANCH  20  21
ENDBRANCH  12  20
ENDBRANCH   1   8
BRANCH   1  23
ATOM     23  C   UNL     1      -5.567  -0.462 127.136  0.00  0.00    +0.000 C 
BRANCH  23  24
ATOM     24  C   UNL     1      -5.510   0.993 127.473  0.00  0.00    +0.000 C 
BRANCH  24  25
ATOM     25  N   UNL     1      -4.864   1.964 126.594  0.00  0.00    +0.000 NA
BRANCH  25  27
ATOM     26  C   UNL     1      -3.805   2.357 128.901  0.00  0.00    +0.000 C 
ATOM     27  C   UNL     1      -4.006   2.847 127.447  0.00  0.00    +0.000 C 
ATOM     28  C   UNL     1      -2.578   2.910 126.949  0.00  0.00    +0.000 C 
ENDBRANCH  25  27
BRANCH  25  29
ATOM     29  C   UNL     1      -5.993   2.660 125.852  0.00  0.00    +0.000 C 
ATOM     30  C   UNL     1      -6.784   3.664 126.683  0.00  0.00    +0.000 C 
ATOM     31  C   UNL     1      -5.519   3.545 124.661  0.00  0.00    +0.000 C 
ENDBRANCH  25  29
ENDBRANCH  24  25
ENDBRANCH  23  24
ENDBRANCH   1  23
TORSDOF 12
ENDMDL
MODEL 2
REMARK VINA RESULT:      -7.5      0.905      1.453
REMARK  Name = Fesoterodine
REMARK  18 active torsions:
REMARK  status: ('A' for Active; 'I' for Inactive)
REMARK    1  A    between atoms: C_1  and  C_2
REMARK    2  A    between atoms: C_2  and  C_3
REMARK    3  A    between atoms: C_2  and  N_4
REMARK    4  A    between atoms: N_4  and  C_5
REMARK    5  A    between atoms: N_4  and  C_28
REMARK    6  A    between atoms: C_5  and  C_6
REMARK    7  A    between atoms: C_6  and  C_7
REMARK    8  A    between atoms: C_7  and  C_8
REMARK    9  A    between atoms: C_7  and  C_14
REMARK   10  A    between atoms: C_15  and  O_16
REMARK   11  A    between atoms: O_16  and  C_17
REMARK   12  A    between atoms: C_17  and  C_19
REMARK   13  A    between atoms: C_19  and  C_20
REMARK   14  A    between atoms: C_19  and  C_21
REMARK   15  A    between atoms: C_24  and  C_25
REMARK   16  A    between atoms: C_25  and  O_26
REMARK   17  A    between atoms: C_28  and  C_29
REMARK   18  A    between atoms: C_28  and  C_30
REMARK                            x       y       z     vdW  Elec       q    Type
REMARK                         _______ _______ _______ _____ _____    ______ ____
ROOT
ATOM      1  C   UNL     1      -6.758  -0.794 126.059  0.00  0.00    +0.000 C 
ENDROOT
BRANCH   1   2
ATOM      2  C   UNL     1      -7.562  -1.763 126.938  0.00  0.00    +0.000 A 
ATOM      3  C   UNL     1      -7.396  -1.761 128.327  0.00  0.00    +0.000 A 
ATOM      4  C   UNL     1      -7.880  -2.810 129.098  0.00  0.00    +0.000 A 
ATOM      5  C   UNL     1      -8.677  -3.781 128.520  0.00  0.00    +0.000 A 
ATOM      6  C   UNL     1      -8.993  -3.690 127.171  0.00  0.00    +0.000 A 
ATOM      7  C   UNL     1      -8.462  -2.662 126.378  0.00  0.00    +0.000 A 
ENDBRANCH   1   2
BRANCH   1   8
ATOM      8  C   UNL     1      -6.237  -1.359 124.734  0.00  0.00    +0.000 A 
ATOM      9  C   UNL     1      -6.741  -0.975 123.498  0.00  0.00    +0.000 A 
ATOM     10  C   UNL     1      -6.527  -1.840 122.409  0.00  0.00    +0.000 A 
ATOM     11  C   UNL     1      -5.686  -2.985 122.526  0.00  0.00    +0.000 A 
ATOM     12  C   UNL     1      -4.969  -3.226 123.693  0.00  0.00    +0.000 A 
ATOM     13  C   UNL     1      -5.177  -2.297 124.702  0.00  0.00    +0.000 A 
BRANCH   9  14
ATOM     14  O   UNL     1      -7.480   0.252 123.335  0.00  0.00    +0.000 OA
BRANCH  14  15
ATOM     15  C   UNL     1      -8.891   0.249 123.467  0.00  0.00    +0.000 C 
ATOM     16  O   UNL     1      -9.638  -0.570 122.876  0.00  0.00    +0.000 OA
BRANCH  15  17
ATOM     17  C   UNL     1      -9.514   1.265 124.449  0.00  0.00    +0.000 C 
ATOM     18  C   UNL     1      -9.936   0.727 125.817  0.00  0.00    +0.000 C 
ATOM     19  C   UNL     1      -8.858   2.695 124.445  0.00  0.00    +0.000 C 
ENDBRANCH  15  17
ENDBRANCH  14  15
ENDBRANCH   9  14
BRANCH  12  20
ATOM     20  C   UNL     1      -4.101  -4.466 123.898  0.00  0.00    +0.000 C 
BRANCH  20  21
ATOM     21  O   UNL     1      -4.179  -5.518 122.928  0.00  0.00    +0.000 OA
ATOM     22  H   UNL     1      -4.764  -6.227 123.225  0.00  0.00    +0.000 HD
ENDBRANCH  20  21
ENDBRANCH  12  20
ENDBRANCH   1   8
BRANCH   1  23
ATOM     23  C   UNL     1      -5.793  -0.259 127.110  0.00  0.00    +0.000 C 
BRANCH  23  24
ATOM     24  C   UNL     1      -5.236   1.109 126.882  0.00  0.00    +0.000 C 
BRANCH  24  25
ATOM     25  N   UNL     1      -5.572   2.233 127.751  0.00  0.00    +0.000 NA
BRANCH  25  27
ATOM     26  C   UNL     1      -6.900   1.944 129.931  0.00  0.00    +0.000 C 
ATOM     27  C   UNL     1      -6.897   1.935 128.384  0.00  0.00    +0.000 C 
ATOM     28  C   UNL     1      -7.929   2.998 128.073  0.00  0.00    +0.000 C 
ENDBRANCH  25  27
BRANCH  25  29
ATOM     29  C   UNL     1      -5.529   3.465 126.862  0.00  0.00    +0.000 C 
ATOM     30  C   UNL     1      -4.369   4.415 127.139  0.00  0.00    +0.000 C 
ATOM     31  C   UNL     1      -5.320   3.150 125.351  0.00  0.00    +0.000 C 
ENDBRANCH  25  29
ENDBRANCH  24  25
ENDBRANCH  23  24
ENDBRANCH   1  23
TORSDOF 12
ENDMDL
MODEL 3
REMARK VINA RESULT:      -7.4      2.299      5.784
REMARK  Name = Fesoterodine
REMARK  18 active torsions:
REMARK  status: ('A' for Active; 'I' for Inactive)
REMARK    1  A    between atoms: C_1  and  C_2
REMARK    2  A    between atoms: C_2  and  C_3
REMARK    3  A    between atoms: C_2  and  N_4
REMARK    4  A    between atoms: N_4  and  C_5
REMARK    5  A    between atoms: N_4  and  C_28
REMARK    6  A    between atoms: C_5  and  C_6
REMARK    7  A    between atoms: C_6  and  C_7
REMARK    8  A    between atoms: C_7  and  C_8
REMARK    9  A    between atoms: C_7  and  C_14
REMARK   10  A    between atoms: C_15  and  O_16
REMARK   11  A    between atoms: O_16  and  C_17
REMARK   12  A    between atoms: C_17  and  C_19
REMARK   13  A    between atoms: C_19  and  C_20
REMARK   14  A    between atoms: C_19  and  C_21
REMARK   15  A    between atoms: C_24  and  C_25
REMARK   16  A    between atoms: C_25  and  O_26
REMARK   17  A    between atoms: C_28  and  C_29
REMARK   18  A    between atoms: C_28  and  C_30
REMARK                            x       y       z     vdW  Elec       q    Type
REMARK                         _______ _______ _______ _____ _____    ______ ____
ROOT
ATOM      1  C   UNL     1      -6.417   0.238 125.900  0.00  0.00    +0.000 C 
ENDROOT
BRANCH   1   2
ATOM      2  C   UNL     1      -6.088  -0.721 124.748  0.00  0.00    +0.000 A 
ATOM      3  C   UNL     1      -6.783  -0.636 123.536  0.00  0.00    +0.000 A 
ATOM      4  C   UNL     1      -6.711  -1.664 122.606  0.00  0.00    +0.000 A 
ATOM      5  C   UNL     1      -5.821  -2.705 122.794  0.00  0.00    +0.000 A 
ATOM      6  C   UNL     1      -4.998  -2.704 123.912  0.00  0.00    +0.000 A 
ATOM      7  C   UNL     1      -5.105  -1.695 124.881  0.00  0.00    +0.000 A 
ENDBRANCH   1   2
BRANCH   1   8
ATOM      8  C   UNL     1      -5.830   1.648 125.792  0.00  0.00    +0.000 A 
ATOM      9  C   UNL     1      -6.214   2.553 124.809  0.00  0.00    +0.000 A 
ATOM     10  C   UNL     1      -5.335   3.614 124.521  0.00  0.00    +0.000 A 
ATOM     11  C   UNL     1      -4.174   3.852 125.314  0.00  0.00    +0.000 A 
ATOM     12  C   UNL     1      -3.929   3.104 126.460  0.00  0.00    +0.000 A 
ATOM     13  C   UNL     1      -4.871   2.119 126.720  0.00  0.00    +0.000 A 
BRANCH   9  14
ATOM     14  O   UNL     1      -7.454   2.402 124.090  0.00  0.00    +0.000 OA
BRANCH  14  15
ATOM     15  C   UNL     1      -8.684   2.676 124.738  0.00  0.00    +0.000 C 
ATOM     16  O   UNL     1      -8.925   3.755 125.334  0.00  0.00    +0.000 OA
BRANCH  15  17
ATOM     17  C   UNL     1      -9.795   1.609 124.631  0.00  0.00    +0.000 C 
ATOM     18  C   UNL     1     -10.130   1.106 123.226  0.00  0.00    +0.000 C 
ATOM     19  C   UNL     1      -9.800   0.524 125.770  0.00  0.00    +0.000 C 
ENDBRANCH  15  17
ENDBRANCH  14  15
ENDBRANCH   9  14
BRANCH  12  20
ATOM     20  C   UNL     1      -2.674   3.273 127.314  0.00  0.00    +0.000 C 
BRANCH  20  21
ATOM     21  O   UNL     1      -1.506   2.521 126.962  0.00  0.00    +0.000 OA
ATOM     22  H   UNL     1      -1.023   2.941 126.238  0.00  0.00    +0.000 HD
ENDBRANCH  20  21
ENDBRANCH  12  20
ENDBRANCH   1   8
BRANCH   1  23
ATOM     23  C   UNL     1      -6.060  -0.665 127.074  0.00  0.00    +0.000 C 
BRANCH  23  24
ATOM     24  C   UNL     1      -7.198  -1.229 127.862  0.00  0.00    +0.000 C 
BRANCH  24  25
ATOM     25  N   UNL     1      -7.418  -2.669 127.978  0.00  0.00    +0.000 NA
BRANCH  25  27
ATOM     26  C   UNL     1      -8.382  -3.509 125.750  0.00  0.00    +0.000 C 
ATOM     27  C   UNL     1      -8.646  -3.004 127.189  0.00  0.00    +0.000 C 
ATOM     28  C   UNL     1      -9.407  -4.169 127.785  0.00  0.00    +0.000 C 
ENDBRANCH  25  27
BRANCH  25  29
ATOM     29  C   UNL     1      -7.495  -2.953 129.469  0.00  0.00    +0.000 C 
ATOM     30  C   UNL     1      -6.203  -3.471 130.091  0.00  0.00    +0.000 C 
ATOM     31  C   UNL     1      -7.777  -1.694 130.341  0.00  0.00    +0.000 C 
ENDBRANCH  25  29
ENDBRANCH  24  25
ENDBRANCH  23  24
ENDBRANCH   1  23
TORSDOF 12
ENDMDL
MODEL 4
REMARK VINA RESULT:      -7.3      2.205      4.614
REMARK  Name = Fesoterodine
REMARK  18 active torsions:
REMARK  status: ('A' for Active; 'I' for Inactive)
REMARK    1  A    between atoms: C_1  and  C_2
REMARK    2  A    between atoms: C_2  and  C_3
REMARK    3  A    between atoms: C_2  and  N_4
REMARK    4  A    between atoms: N_4  and  C_5
REMARK    5  A    between atoms: N_4  and  C_28
REMARK    6  A    between atoms: C_5  and  C_6
REMARK    7  A    between atoms: C_6  and  C_7
REMARK    8  A    between atoms: C_7  and  C_8
REMARK    9  A    between atoms: C_7  and  C_14
REMARK   10  A    between atoms: C_15  and  O_16
REMARK   11  A    between atoms: O_16  and  C_17
REMARK   12  A    between atoms: C_17  and  C_19
REMARK   13  A    between atoms: C_19  and  C_20
REMARK   14  A    between atoms: C_19  and  C_21
REMARK   15  A    between atoms: C_24  and  C_25
REMARK   16  A    between atoms: C_25  and  O_26
REMARK   17  A    between atoms: C_28  and  C_29
REMARK   18  A    between atoms: C_28  and  C_30
REMARK                            x       y       z     vdW  Elec       q    Type
REMARK                         _______ _______ _______ _____ _____    ______ ____
ROOT
ATOM      1  C   UNL     1      -5.399  -0.494 126.142  0.00  0.00    +0.000 C 
ENDROOT
BRANCH   1   2
ATOM      2  C   UNL     1      -5.672  -1.274 124.848  0.00  0.00    +0.000 A 
ATOM      3  C   UNL     1      -5.027  -2.492 124.607  0.00  0.00    +0.000 A 
ATOM      4  C   UNL     1      -5.030  -3.055 123.338  0.00  0.00    +0.000 A 
ATOM      5  C   UNL     1      -5.811  -2.503 122.339  0.00  0.00    +0.000 A 
ATOM      6  C   UNL     1      -6.595  -1.393 122.623  0.00  0.00    +0.000 A 
ATOM      7  C   UNL     1      -6.553  -0.789 123.889  0.00  0.00    +0.000 A 
ENDBRANCH   1   2
BRANCH   1   8
ATOM      8  C   UNL     1      -5.845  -1.169 127.442  0.00  0.00    +0.000 A 
ATOM      9  C   UNL     1      -7.141  -1.078 127.935  0.00  0.00    +0.000 A 
ATOM     10  C   UNL     1      -7.337  -1.338 129.304  0.00  0.00    +0.000 A 
ATOM     11  C   UNL     1      -6.282  -1.836 130.124  0.00  0.00    +0.000 A 
ATOM     12  C   UNL     1      -5.053  -2.178 129.571  0.00  0.00    +0.000 A 
ATOM     13  C   UNL     1      -4.951  -1.958 128.205  0.00  0.00    +0.000 A 
BRANCH   9  14
ATOM     14  O   UNL     1      -8.245  -0.705 127.086  0.00  0.00    +0.000 OA
BRANCH  14  15
ATOM     15  C   UNL     1      -8.921  -1.697 126.333  0.00  0.00    +0.000 C 
ATOM     16  O   UNL     1      -9.839  -1.437 125.516  0.00  0.00    +0.000 OA
BRANCH  15  17
ATOM     17  C   UNL     1      -8.438  -3.156 126.485  0.00  0.00    +0.000 C 
ATOM     18  C   UNL     1      -9.012  -3.951 127.659  0.00  0.00    +0.000 C 
ATOM     19  C   UNL     1      -8.259  -3.950 125.139  0.00  0.00    +0.000 C 
ENDBRANCH  15  17
ENDBRANCH  14  15
ENDBRANCH   9  14
BRANCH  12  20
ATOM     20  C   UNL     1      -3.868  -2.660 130.406  0.00  0.00    +0.000 C 
BRANCH  20  21
ATOM     21  O   UNL     1      -2.721  -3.179 129.722  0.00  0.00    +0.000 OA
ATOM     22  H   UNL     1      -2.132  -2.469 129.434  0.00  0.00    +0.000 HD
ENDBRANCH  20  21
ENDBRANCH  12  20
ENDBRANCH   1   8
BRANCH   1  23
ATOM     23  C   UNL     1      -5.968   0.858 125.732  0.00  0.00    +0.000 C 
BRANCH  23  24
ATOM     24  C   UNL     1      -5.597   2.032 126.580  0.00  0.00    +0.000 C 
BRANCH  24  25
ATOM     25  N   UNL     1      -4.335   2.085 127.313  0.00  0.00    +0.000 NA
BRANCH  25  27
ATOM     26  C   UNL     1      -6.161   2.325 129.103  0.00  0.00    +0.000 C 
ATOM     27  C   UNL     1      -4.656   2.373 128.747  0.00  0.00    +0.000 C 
ATOM     28  C   UNL     1      -4.091   1.324 129.681  0.00  0.00    +0.000 C 
ENDBRANCH  25  27
BRANCH  25  29
ATOM     29  C   UNL     1      -3.492   3.132 126.603  0.00  0.00    +0.000 C 
ATOM     30  C   UNL     1      -3.848   4.576 126.938  0.00  0.00    +0.000 C 
ATOM     31  C   UNL     1      -1.980   3.089 126.976  0.00  0.00    +0.000 C 
ENDBRANCH  25  29
ENDBRANCH  24  25
ENDBRANCH  23  24
ENDBRANCH   1  23
TORSDOF 12
ENDMDL
MODEL 5
REMARK VINA RESULT:      -7.1      2.679      6.051
REMARK  Name = Fesoterodine
REMARK  18 active torsions:
REMARK  status: ('A' for Active; 'I' for Inactive)
REMARK    1  A    between atoms: C_1  and  C_2
REMARK    2  A    between atoms: C_2  and  C_3
REMARK    3  A    between atoms: C_2  and  N_4
REMARK    4  A    between atoms: N_4  and  C_5
REMARK    5  A    between atoms: N_4  and  C_28
REMARK    6  A    between atoms: C_5  and  C_6
REMARK    7  A    between atoms: C_6  and  C_7
REMARK    8  A    between atoms: C_7  and  C_8
REMARK    9  A    between atoms: C_7  and  C_14
REMARK   10  A    between atoms: C_15  and  O_16
REMARK   11  A    between atoms: O_16  and  C_17
REMARK   12  A    between atoms: C_17  and  C_19
REMARK   13  A    between atoms: C_19  and  C_20
REMARK   14  A    between atoms: C_19  and  C_21
REMARK   15  A    between atoms: C_24  and  C_25
REMARK   16  A    between atoms: C_25  and  O_26
REMARK   17  A    between atoms: C_28  and  C_29
REMARK   18  A    between atoms: C_28  and  C_30
REMARK                            x       y       z     vdW  Elec       q    Type
REMARK                         _______ _______ _______ _____ _____    ______ ____
ROOT
ATOM      1  C   UNL     1      -6.638  -0.139 126.095  0.00  0.00    +0.000 C 
ENDROOT
BRANCH   1   2
ATOM      2  C   UNL     1      -7.364  -1.329 125.450  0.00  0.00    +0.000 A 
ATOM      3  C   UNL     1      -8.736  -1.513 125.651  0.00  0.00    +0.000 A 
ATOM      4  C   UNL     1      -9.342  -2.721 125.331  0.00  0.00    +0.000 A 
ATOM      5  C   UNL     1      -8.628  -3.694 124.657  0.00  0.00    +0.000 A 
ATOM      6  C   UNL     1      -7.310  -3.446 124.296  0.00  0.00    +0.000 A 
ATOM      7  C   UNL     1      -6.679  -2.248 124.664  0.00  0.00    +0.000 A 
ENDBRANCH   1   2
BRANCH   1   8
ATOM      8  C   UNL     1      -6.458   1.099 125.212  0.00  0.00    +0.000 A 
ATOM      9  C   UNL     1      -5.527   2.094 125.485  0.00  0.00    +0.000 A 
ATOM     10  C   UNL     1      -5.733   3.358 124.902  0.00  0.00    +0.000 A 
ATOM     11  C   UNL     1      -6.762   3.571 123.938  0.00  0.00    +0.000 A 
ATOM     12  C   UNL     1      -7.528   2.511 123.468  0.00  0.00    +0.000 A 
ATOM     13  C   UNL     1      -7.227   1.282 124.037  0.00  0.00    +0.000 A 
BRANCH   9  14
ATOM     14  O   UNL     1      -4.402   1.853 126.353  0.00  0.00    +0.000 OA
BRANCH  14  15
ATOM     15  C   UNL     1      -4.044   2.818 127.328  0.00  0.00    +0.000 C 
ATOM     16  O   UNL     1      -4.628   2.931 128.435  0.00  0.00    +0.000 OA
BRANCH  15  17
ATOM     17  C   UNL     1      -2.824   3.714 127.025  0.00  0.00    +0.000 C 
ATOM     18  C   UNL     1      -2.603   4.910 127.952  0.00  0.00    +0.000 C 
ATOM     19  C   UNL     1      -1.527   2.953 126.563  0.00  0.00    +0.000 C 
ENDBRANCH  15  17
ENDBRANCH  14  15
ENDBRANCH   9  14
BRANCH  12  20
ATOM     20  C   UNL     1      -8.682   2.687 122.482  0.00  0.00    +0.000 C 
BRANCH  20  21
ATOM     21  O   UNL     1      -8.691   3.853 121.649  0.00  0.00    +0.000 OA
ATOM     22  H   UNL     1      -7.915   4.406 121.809  0.00  0.00    +0.000 HD
ENDBRANCH  20  21
ENDBRANCH  12  20
ENDBRANCH   1   8
BRANCH   1  23
ATOM     23  C   UNL     1      -5.428  -0.873 126.661  0.00  0.00    +0.000 C 
BRANCH  23  24
ATOM     24  C   UNL     1      -5.497  -1.278 128.098  0.00  0.00    +0.000 C 
BRANCH  24  25
ATOM     25  N   UNL     1      -5.836  -2.640 128.500  0.00  0.00    +0.000 NA
BRANCH  25  27
ATOM     26  C   UNL     1      -7.670  -1.153 129.513  0.00  0.00    +0.000 C 
ATOM     27  C   UNL     1      -7.052  -2.565 129.372  0.00  0.00    +0.000 C 
ATOM     28  C   UNL     1      -8.214  -3.349 128.800  0.00  0.00    +0.000 C 
ENDBRANCH  25  27
BRANCH  25  29
ATOM     29  C   UNL     1      -4.585  -3.196 129.161  0.00  0.00    +0.000 C 
ATOM     30  C   UNL     1      -3.730  -2.164 129.887  0.00  0.00    +0.000 C 
ATOM     31  C   UNL     1      -4.871  -4.221 130.299  0.00  0.00    +0.000 C 
ENDBRANCH  25  29
ENDBRANCH  24  25
ENDBRANCH  23  24
ENDBRANCH   1  23
TORSDOF 12
ENDMDL
MODEL 6
REMARK VINA RESULT:      -7.0      1.341      1.962
REMARK  Name = Fesoterodine
REMARK  18 active torsions:
REMARK  status: ('A' for Active; 'I' for Inactive)
REMARK    1  A    between atoms: C_1  and  C_2
REMARK    2  A    between atoms: C_2  and  C_3
REMARK    3  A    between atoms: C_2  and  N_4
REMARK    4  A    between atoms: N_4  and  C_5
REMARK    5  A    between atoms: N_4  and  C_28
REMARK    6  A    between atoms: C_5  and  C_6
REMARK    7  A    between atoms: C_6  and  C_7
REMARK    8  A    between atoms: C_7  and  C_8
REMARK    9  A    between atoms: C_7  and  C_14
REMARK   10  A    between atoms: C_15  and  O_16
REMARK   11  A    between atoms: O_16  and  C_17
REMARK   12  A    between atoms: C_17  and  C_19
REMARK   13  A    between atoms: C_19  and  C_20
REMARK   14  A    between atoms: C_19  and  C_21
REMARK   15  A    between atoms: C_24  and  C_25
REMARK   16  A    between atoms: C_25  and  O_26
REMARK   17  A    between atoms: C_28  and  C_29
REMARK   18  A    between atoms: C_28  and  C_30
REMARK                            x       y       z     vdW  Elec       q    Type
REMARK                         _______ _______ _______ _____ _____    ______ ____
ROOT
ATOM      1  C   UNL     1      -6.680  -0.838 126.704  0.00  0.00    +0.000 C 
ENDROOT
BRANCH   1   2
ATOM      2  C   UNL     1      -7.614  -1.858 127.371  0.00  0.00    +0.000 A 
ATOM      3  C   UNL     1      -7.563  -2.066 128.754  0.00  0.00    +0.000 A 
ATOM      4  C   UNL     1      -8.176  -3.173 129.325  0.00  0.00    +0.000 A 
ATOM      5  C   UNL     1      -8.983  -3.989 128.556  0.00  0.00    +0.000 A 
ATOM      6  C   UNL     1      -9.182  -3.684 127.216  0.00  0.00    +0.000 A 
ATOM      7  C   UNL     1      -8.522  -2.598 126.622  0.00  0.00    +0.000 A 
ENDBRANCH   1   2
BRANCH   1   8
ATOM      8  C   UNL     1      -6.231  -1.168 125.278  0.00  0.00    +0.000 A 
ATOM      9  C   UNL     1      -6.545  -0.371 124.184  0.00  0.00    +0.000 A 
ATOM     10  C   UNL     1      -6.481  -0.961 122.908  0.00  0.00    +0.000 A 
ATOM     11  C   UNL     1      -5.958  -2.275 122.723  0.00  0.00    +0.000 A 
ATOM     12  C   UNL     1      -5.399  -2.974 123.787  0.00  0.00    +0.000 A 
ATOM     13  C   UNL     1      -5.436  -2.306 125.002  0.00  0.00    +0.000 A 
BRANCH   9  14
ATOM     14  O   UNL     1      -6.946   1.004 124.344  0.00  0.00    +0.000 OA
BRANCH  14  15
ATOM     15  C   UNL     1      -7.931   1.556 123.488  0.00  0.00    +0.000 C 
ATOM     16  O   UNL     1      -7.662   2.311 122.521  0.00  0.00    +0.000 OA
BRANCH  15  17
ATOM     17  C   UNL     1      -9.397   1.135 123.729  0.00  0.00    +0.000 C 
ATOM     18  C   UNL     1     -10.055   0.284 122.641  0.00  0.00    +0.000 C 
ATOM     19  C   UNL     1      -9.752   0.748 125.213  0.00  0.00    +0.000 C 
ENDBRANCH  15  17
ENDBRANCH  14  15
ENDBRANCH   9  14
BRANCH  12  20
ATOM     20  C   UNL     1      -4.878  -4.405 123.663  0.00  0.00    +0.000 C 
BRANCH  20  21
ATOM     21  O   UNL     1      -3.481  -4.600 123.408  0.00  0.00    +0.000 OA
ATOM     22  H   UNL     1      -3.114  -5.293 123.972  0.00  0.00    +0.000 HD
ENDBRANCH  20  21
ENDBRANCH  12  20
ENDBRANCH   1   8
BRANCH   1  23
ATOM     23  C   UNL     1      -5.659  -0.678 127.824  0.00  0.00    +0.000 C 
BRANCH  23  24
ATOM     24  C   UNL     1      -5.322   0.718 128.237  0.00  0.00    +0.000 C 
BRANCH  24  25
ATOM     25  N   UNL     1      -6.056   1.872 127.723  0.00  0.00    +0.000 NA
BRANCH  25  27
ATOM     26  C   UNL     1      -5.406   4.355 127.826  0.00  0.00    +0.000 C 
ATOM     27  C   UNL     1      -5.051   2.922 127.361  0.00  0.00    +0.000 C 
ATOM     28  C   UNL     1      -3.721   2.701 128.049  0.00  0.00    +0.000 C 
ENDBRANCH  25  27
BRANCH  25  29
ATOM     29  C   UNL     1      -7.041   2.251 128.816  0.00  0.00    +0.000 C 
ATOM     30  C   UNL     1      -8.457   1.722 128.616  0.00  0.00    +0.000 C 
ATOM     31  C   UNL     1      -6.686   1.673 130.218  0.00  0.00    +0.000 C 
ENDBRANCH  25  29
ENDBRANCH  24  25
ENDBRANCH  23  24
ENDBRANCH   1  23
TORSDOF 12
ENDMDL
MODEL 7
REMARK VINA RESULT:      -7.0      2.949      6.009
REMARK  Name = Fesoterodine
REMARK  18 active torsions:
REMARK  status: ('A' for Active; 'I' for Inactive)
REMARK    1  A    between atoms: C_1  and  C_2
REMARK    2  A    between atoms: C_2  and  C_3
REMARK    3  A    between atoms: C_2  and  N_4
REMARK    4  A    between atoms: N_4  and  C_5
REMARK    5  A    between atoms: N_4  and  C_28
REMARK    6  A    between atoms: C_5  and  C_6
REMARK    7  A    between atoms: C_6  and  C_7
REMARK    8  A    between atoms: C_7  and  C_8
REMARK    9  A    between atoms: C_7  and  C_14
REMARK   10  A    between atoms: C_15  and  O_16
REMARK   11  A    between atoms: O_16  and  C_17
REMARK   12  A    between atoms: C_17  and  C_19
REMARK   13  A    between atoms: C_19  and  C_20
REMARK   14  A    between atoms: C_19  and  C_21
REMARK   15  A    between atoms: C_24  and  C_25
REMARK   16  A    between atoms: C_25  and  O_26
REMARK   17  A    between atoms: C_28  and  C_29
REMARK   18  A    between atoms: C_28  and  C_30
REMARK                            x       y       z     vdW  Elec       q    Type
REMARK                         _______ _______ _______ _____ _____    ______ ____
ROOT
ATOM      1  C   UNL     1      -6.250   2.801 125.617  0.00  0.00    +0.000 C 
ENDROOT
BRANCH   1   2
ATOM      2  C   UNL     1      -4.964   3.243 126.330  0.00  0.00    +0.000 A 
ATOM      3  C   UNL     1      -4.909   4.476 126.989  0.00  0.00    +0.000 A 
ATOM      4  C   UNL     1      -3.690   5.017 127.377  0.00  0.00    +0.000 A 
ATOM      5  C   UNL     1      -2.535   4.266 127.265  0.00  0.00    +0.000 A 
ATOM      6  C   UNL     1      -2.609   2.970 126.773  0.00  0.00    +0.000 A 
ATOM      7  C   UNL     1      -3.830   2.439 126.331  0.00  0.00    +0.000 A 
ENDBRANCH   1   2
BRANCH   1   8
ATOM      8  C   UNL     1      -6.443   3.322 124.190  0.00  0.00    +0.000 A 
ATOM      9  C   UNL     1      -7.510   2.942 123.385  0.00  0.00    +0.000 A 
ATOM     10  C   UNL     1      -7.368   3.108 121.995  0.00  0.00    +0.000 A 
ATOM     11  C   UNL     1      -6.245   3.789 121.439  0.00  0.00    +0.000 A 
ATOM     12  C   UNL     1      -5.305   4.400 122.261  0.00  0.00    +0.000 A 
ATOM     13  C   UNL     1      -5.543   4.254 123.620  0.00  0.00    +0.000 A 
BRANCH   9  14
ATOM     14  O   UNL     1      -8.711   2.376 123.945  0.00  0.00    +0.000 OA
BRANCH  14  15
ATOM     15  C   UNL     1      -9.206   1.143 123.452  0.00  0.00    +0.000 C 
ATOM     16  O   UNL     1     -10.104   1.060 122.577  0.00  0.00    +0.000 OA
BRANCH  15  17
ATOM     17  C   UNL     1      -8.542  -0.148 123.975  0.00  0.00    +0.000 C 
ATOM     18  C   UNL     1      -7.156  -0.482 123.420  0.00  0.00    +0.000 C 
ATOM     19  C   UNL     1      -8.759  -0.446 125.505  0.00  0.00    +0.000 C 
ENDBRANCH  15  17
ENDBRANCH  14  15
ENDBRANCH   9  14
BRANCH  12  20
ATOM     20  C   UNL     1      -4.053   5.091 121.725  0.00  0.00    +0.000 C 
BRANCH  20  21
ATOM     21  O   UNL     1      -4.213   6.292 120.961  0.00  0.00    +0.000 OA
ATOM     22  H   UNL     1      -3.372   6.585 120.586  0.00  0.00    +0.000 HD
ENDBRANCH  20  21
ENDBRANCH  12  20
ENDBRANCH   1   8
BRANCH   1  23
ATOM     23  C   UNL     1      -7.258   3.135 126.710  0.00  0.00    +0.000 C 
BRANCH  23  24
ATOM     24  C   UNL     1      -7.511   2.081 127.740  0.00  0.00    +0.000 C 
BRANCH  24  25
ATOM     25  N   UNL     1      -7.384   2.353 129.169  0.00  0.00    +0.000 NA
BRANCH  25  27
ATOM     26  C   UNL     1      -5.791   0.387 128.731  0.00  0.00    +0.000 C 
ATOM     27  C   UNL     1      -6.278   1.492 129.698  0.00  0.00    +0.000 C 
ATOM     28  C   UNL     1      -5.005   2.276 129.929  0.00  0.00    +0.000 C 
ENDBRANCH  25  27
BRANCH  25  29
ATOM     29  C   UNL     1      -8.761   2.094 129.759  0.00  0.00    +0.000 C 
ATOM     30  C   UNL     1      -8.761   1.311 131.067  0.00  0.00    +0.000 C 
ATOM     31  C   UNL     1      -9.529   3.386 130.168  0.00  0.00    +0.000 C 
ENDBRANCH  25  29
ENDBRANCH  24  25
ENDBRANCH  23  24
ENDBRANCH   1  23
TORSDOF 12
ENDMDL
MODEL 8
REMARK VINA RESULT:      -6.9      3.134      7.086
REMARK  Name = Fesoterodine
REMARK  18 active torsions:
REMARK  status: ('A' for Active; 'I' for Inactive)
REMARK    1  A    between atoms: C_1  and  C_2
REMARK    2  A    between atoms: C_2  and  C_3
REMARK    3  A    between atoms: C_2  and  N_4
REMARK    4  A    between atoms: N_4  and  C_5
REMARK    5  A    between atoms: N_4  and  C_28
REMARK    6  A    between atoms: C_5  and  C_6
REMARK    7  A    between atoms: C_6  and  C_7
REMARK    8  A    between atoms: C_7  and  C_8
REMARK    9  A    between atoms: C_7  and  C_14
REMARK   10  A    between atoms: C_15  and  O_16
REMARK   11  A    between atoms: O_16  and  C_17
REMARK   12  A    between atoms: C_17  and  C_19
REMARK   13  A    between atoms: C_19  and  C_20
REMARK   14  A    between atoms: C_19  and  C_21
REMARK   15  A    between atoms: C_24  and  C_25
REMARK   16  A    between atoms: C_25  and  O_26
REMARK   17  A    between atoms: C_28  and  C_29
REMARK   18  A    between atoms: C_28  and  C_30
REMARK                            x       y       z     vdW  Elec       q    Type
REMARK                         _______ _______ _______ _____ _____    ______ ____
ROOT
ATOM      1  C   UNL     1      -6.694   2.188 124.957  0.00  0.00    +0.000 C 
ENDROOT
BRANCH   1   2
ATOM      2  C   UNL     1      -7.004   2.867 123.615  0.00  0.00    +0.000 A 
ATOM      3  C   UNL     1      -8.308   2.871 123.109  0.00  0.00    +0.000 A 
ATOM      4  C   UNL     1      -8.552   3.210 121.785  0.00  0.00    +0.000 A 
ATOM      5  C   UNL     1      -7.528   3.707 120.999  0.00  0.00    +0.000 A 
ATOM      6  C   UNL     1      -6.265   3.873 121.551  0.00  0.00    +0.000 A 
ATOM      7  C   UNL     1      -6.002   3.482 122.873  0.00  0.00    +0.000 A 
ENDBRANCH   1   2
BRANCH   1   8
ATOM      8  C   UNL     1      -5.768   2.958 125.904  0.00  0.00    +0.000 A 
ATOM      9  C   UNL     1      -6.210   3.999 126.711  0.00  0.00    +0.000 A 
ATOM     10  C   UNL     1      -5.247   4.906 127.190  0.00  0.00    +0.000 A 
ATOM     11  C   UNL     1      -3.852   4.680 126.994  0.00  0.00    +0.000 A 
ATOM     12  C   UNL     1      -3.397   3.502 126.413  0.00  0.00    +0.000 A 
ATOM     13  C   UNL     1      -4.399   2.623 126.025  0.00  0.00    +0.000 A 
BRANCH   9  14
ATOM     14  O   UNL     1      -7.606   4.164 127.031  0.00  0.00    +0.000 OA
BRANCH  14  15
ATOM     15  C   UNL     1      -8.026   4.146 128.384  0.00  0.00    +0.000 C 
ATOM     16  O   UNL     1      -8.219   5.187 129.061  0.00  0.00    +0.000 OA
BRANCH  15  17
ATOM     17  C   UNL     1      -8.330   2.770 129.015  0.00  0.00    +0.000 C 
ATOM     18  C   UNL     1      -8.570   1.609 128.048  0.00  0.00    +0.000 C 
ATOM     19  C   UNL     1      -7.505   2.426 130.310  0.00  0.00    +0.000 C 
ENDBRANCH  15  17
ENDBRANCH  14  15
ENDBRANCH   9  14
BRANCH  12  20
ATOM     20  C   UNL     1      -1.922   3.229 126.124  0.00  0.00    +0.000 C 
BRANCH  20  21
ATOM     21  O   UNL     1      -1.212   2.340 126.995  0.00  0.00    +0.000 OA
ATOM     22  H   UNL     1      -0.479   1.910 126.536  0.00  0.00    +0.000 HD
ENDBRANCH  20  21
ENDBRANCH  12  20
ENDBRANCH   1   8
BRANCH   1  23
ATOM     23  C   UNL     1      -6.309   0.806 124.445  0.00  0.00    +0.000 C 
BRANCH  23  24
ATOM     24  C   UNL     1      -7.103  -0.351 124.961  0.00  0.00    +0.000 C 
BRANCH  24  25
ATOM     25  N   UNL     1      -7.328  -1.550 124.158  0.00  0.00    +0.000 NA
BRANCH  25  27
ATOM     26  C   UNL     1      -9.397  -0.845 122.808  0.00  0.00    +0.000 C 
ATOM     27  C   UNL     1      -8.807  -1.691 123.961  0.00  0.00    +0.000 C 
ATOM     28  C   UNL     1      -9.195  -3.092 123.539  0.00  0.00    +0.000 C 
ENDBRANCH  25  27
BRANCH  25  29
ATOM     29  C   UNL     1      -6.653  -2.682 124.915  0.00  0.00    +0.000 C 
ATOM     30  C   UNL     1      -5.411  -3.253 124.241  0.00  0.00    +0.000 C 
ATOM     31  C   UNL     1      -6.091  -2.267 126.307  0.00  0.00    +0.000 C 
ENDBRANCH  25  29
ENDBRANCH  24  25
ENDBRANCH  23  24
ENDBRANCH   1  23
TORSDOF 12
ENDMDL
MODEL 9
REMARK VINA RESULT:      -6.9      2.073      2.986
REMARK  Name = Fesoterodine
REMARK  18 active torsions:
REMARK  status: ('A' for Active; 'I' for Inactive)
REMARK    1  A    between atoms: C_1  and  C_2
REMARK    2  A    between atoms: C_2  and  C_3
REMARK    3  A    between atoms: C_2  and  N_4
REMARK    4  A    between atoms: N_4  and  C_5
REMARK    5  A    between atoms: N_4  and  C_28
REMARK    6  A    between atoms: C_5  and  C_6
REMARK    7  A    between atoms: C_6  and  C_7
REMARK    8  A    between atoms: C_7  and  C_8
REMARK    9  A    between atoms: C_7  and  C_14
REMARK   10  A    between atoms: C_15  and  O_16
REMARK   11  A    between atoms: O_16  and  C_17
REMARK   12  A    between atoms: C_17  and  C_19
REMARK   13  A    between atoms: C_19  and  C_20
REMARK   14  A    between atoms: C_19  and  C_21
REMARK   15  A    between atoms: C_24  and  C_25
REMARK   16  A    between atoms: C_25  and  O_26
REMARK   17  A    between atoms: C_28  and  C_29
REMARK   18  A    between atoms: C_28  and  C_30
REMARK                            x       y       z     vdW  Elec       q    Type
REMARK                         _______ _______ _______ _____ _____    ______ ____
ROOT
ATOM      1  C   UNL     1      -6.256  -1.238 127.495  0.00  0.00    +0.000 C 
ENDROOT
BRANCH   1   2
ATOM      2  C   UNL     1      -5.898  -2.232 128.609  0.00  0.00    +0.000 A 
ATOM      3  C   UNL     1      -4.579  -2.669 128.770  0.00  0.00    +0.000 A 
ATOM      4  C   UNL     1      -4.291  -3.772 129.563  0.00  0.00    +0.000 A 
ATOM      5  C   UNL     1      -5.285  -4.347 130.334  0.00  0.00    +0.000 A 
ATOM      6  C   UNL     1      -6.562  -3.804 130.313  0.00  0.00    +0.000 A 
ATOM      7  C   UNL     1      -6.870  -2.723 129.473  0.00  0.00    +0.000 A 
ENDBRANCH   1   2
BRANCH   1   8
ATOM      8  C   UNL     1      -6.567  -1.846 126.124  0.00  0.00    +0.000 A 
ATOM      9  C   UNL     1      -7.859  -1.962 125.625  0.00  0.00    +0.000 A 
ATOM     10  C   UNL     1      -8.080  -2.902 124.602  0.00  0.00    +0.000 A 
ATOM     11  C   UNL     1      -6.997  -3.593 123.982  0.00  0.00    +0.000 A 
ATOM     12  C   UNL     1      -5.680  -3.283 124.302  0.00  0.00    +0.000 A 
ATOM     13  C   UNL     1      -5.535  -2.301 125.270  0.00  0.00    +0.000 A 
BRANCH   9  14
ATOM     14  O   UNL     1      -8.943  -1.170 126.150  0.00  0.00    +0.000 OA
BRANCH  14  15
ATOM     15  C   UNL     1      -9.263   0.073 125.550  0.00  0.00    +0.000 C 
ATOM     16  O   UNL     1     -10.071   0.192 124.595  0.00  0.00    +0.000 OA
BRANCH  15  17
ATOM     17  C   UNL     1      -8.633   1.341 126.165  0.00  0.00    +0.000 C 
ATOM     18  C   UNL     1      -8.681   1.462 127.689  0.00  0.00    +0.000 C 
ATOM     19  C   UNL     1      -7.307   1.837 125.477  0.00  0.00    +0.000 C 
ENDBRANCH  15  17
ENDBRANCH  14  15
ENDBRANCH   9  14
BRANCH  12  20
ATOM     20  C   UNL     1      -4.482  -4.029 123.716  0.00  0.00    +0.000 C 
BRANCH  20  21
ATOM     21  O   UNL     1      -4.578  -5.450 123.556  0.00  0.00    +0.000 OA
ATOM     22  H   UNL     1      -5.475  -5.763 123.733  0.00  0.00    +0.000 HD
ENDBRANCH  20  21
ENDBRANCH  12  20
ENDBRANCH   1   8
BRANCH   1  23
ATOM     23  C   UNL     1      -5.102  -0.258 127.668  0.00  0.00    +0.000 C 
BRANCH  23  24
ATOM     24  C   UNL     1      -5.297   0.847 128.657  0.00  0.00    +0.000 C 
BRANCH  24  25
ATOM     25  N   UNL     1      -4.244   1.243 129.587  0.00  0.00    +0.000 NA
BRANCH  25  27
ATOM     26  C   UNL     1      -6.226   0.587 131.084  0.00  0.00    +0.000 C 
ATOM     27  C   UNL     1      -4.721   0.928 130.972  0.00  0.00    +0.000 C 
ATOM     28  C   UNL     1      -4.083  -0.329 131.524  0.00  0.00    +0.000 C 
ENDBRANCH  25  27
BRANCH  25  29
ATOM     29  C   UNL     1      -3.976   2.712 129.301  0.00  0.00    +0.000 C 
ATOM     30  C   UNL     1      -5.042   3.406 128.461  0.00  0.00    +0.000 C 
ATOM     31  C   UNL     1      -3.945   3.610 130.572  0.00  0.00    +0.000 C 
ENDBRANCH  25  29
ENDBRANCH  24  25
ENDBRANCH  23  24
ENDBRANCH   1  23
TORSDOF 12
ENDMDL
