MODEL 1
REMARK VINA RESULT:      -6.3      0.000      0.000
REMARK  Name = Fexinidazole
REMARK  7 active torsions:
REMARK  status: ('A' for Active; 'I' for Inactive)
REMARK    1  A    between atoms: C_1  and  S_2
REMARK    2  A    between atoms: S_2  and  C_3
REMARK    3  A    between atoms: C_6  and  O_7
REMARK    4  A    between atoms: O_7  and  C_8
REMARK    5  A    between atoms: C_8  and  C_9
REMARK    6  A    between atoms: C_12  and  N_15
REMARK    7  A    between atoms: N_13  and  C_14
REMARK                            x       y       z     vdW  Elec       q    Type
REMARK                         _______ _______ _______ _____ _____    ______ ____
ROOT
ATOM      1  C   UNL     1      -8.474  -1.985 123.986  0.00  0.00    +0.000 C 
ENDROOT
BRANCH   1   2
ATOM      2  C   UNL     1      -9.008  -0.651 123.505  0.00  0.00    +0.000 A 
ATOM      3  N   UNL     1     -10.170  -0.432 122.912  0.00  0.00    +0.000 NA
ATOM      4  C   UNL     1     -10.184   0.891 122.560  0.00  0.00    +0.000 A 
ATOM      5  C   UNL     1      -9.031   1.511 122.970  0.00  0.00    +0.000 A 
ATOM      6  N   UNL     1      -8.292   0.546 123.614  0.00  0.00    +0.000 N 
ATOM      7  C   UNL     1      -7.021   0.659 124.293  0.00  0.00    +0.000 C 
BRANCH   5   8
ATOM      8  N   UNL     1      -8.671   2.875 122.750  0.00  0.00    +0.000 N 
ATOM      9  O   UNL     1      -8.451   3.554 123.763  0.00  0.00    +0.000 OA
ATOM     10  O   UNL     1      -8.609   3.293 121.594  0.00  0.00    +0.000 OA
ENDBRANCH   5   8
ENDBRANCH   1   2
BRANCH   1  11
ATOM     11  O   UNL     1      -9.337  -2.525 125.000  0.00  0.00    +0.000 OA
BRANCH  11  15
ATOM     12  C   UNL     1      -7.950  -2.769 128.960  0.00  0.00    +0.000 A 
ATOM     13  C   UNL     1      -8.710  -3.786 128.380  0.00  0.00    +0.000 A 
ATOM     14  C   UNL     1      -9.111  -3.690 127.036  0.00  0.00    +0.000 A 
ATOM     15  C   UNL     1      -8.852  -2.536 126.287  0.00  0.00    +0.000 A 
ATOM     16  C   UNL     1      -8.147  -1.496 126.896  0.00  0.00    +0.000 A 
ATOM     17  C   UNL     1      -7.704  -1.612 128.222  0.00  0.00    +0.000 A 
BRANCH  12  19
ATOM     18  C   UNL     1      -6.038  -4.254 130.300  0.00  0.00    +0.000 C 
ATOM     19  S   UNL     1      -7.277  -2.950 130.604  0.00  0.00    +0.000 S 
ENDBRANCH  12  19
ENDBRANCH  11  15
ENDBRANCH   1  11
TORSDOF 5
ENDMDL
MODEL 2
REMARK VINA RESULT:      -6.3      9.674     10.540
REMARK  Name = Fexinidazole
REMARK  7 active torsions:
REMARK  status: ('A' for Active; 'I' for Inactive)
REMARK    1  A    between atoms: C_1  and  S_2
REMARK    2  A    between atoms: S_2  and  C_3
REMARK    3  A    between atoms: C_6  and  O_7
REMARK    4  A    between atoms: O_7  and  C_8
REMARK    5  A    between atoms: C_8  and  C_9
REMARK    6  A    between atoms: C_12  and  N_15
REMARK    7  A    between atoms: N_13  and  C_14
REMARK                            x       y       z     vdW  Elec       q    Type
REMARK                         _______ _______ _______ _____ _____    ______ ____
ROOT
ATOM      1  C   UNL     1     -10.064   5.675 131.064  0.00  0.00    +0.000 C 
ENDROOT
BRANCH   1   2
ATOM      2  C   UNL     1     -11.228   6.638 130.950  0.00  0.00    +0.000 A 
ATOM      3  N   UNL     1     -12.303   6.676 131.720  0.00  0.00    +0.000 NA
ATOM      4  C   UNL     1     -13.130   7.628 131.188  0.00  0.00    +0.000 A 
ATOM      5  C   UNL     1     -12.549   8.215 130.094  0.00  0.00    +0.000 A 
ATOM      6  N   UNL     1     -11.315   7.622 129.958  0.00  0.00    +0.000 N 
ATOM      7  C   UNL     1     -10.259   7.898 129.010  0.00  0.00    +0.000 C 
BRANCH   5   8
ATOM      8  N   UNL     1     -13.123   9.221 129.259  0.00  0.00    +0.000 N 
ATOM      9  O   UNL     1     -13.585   8.837 128.175  0.00  0.00    +0.000 OA
ATOM     10  O   UNL     1     -13.120  10.388 129.650  0.00  0.00    +0.000 OA
ENDBRANCH   5   8
ENDBRANCH   1   2
BRANCH   1  11
ATOM     11  O   UNL     1      -9.360   5.897 132.296  0.00  0.00    +0.000 OA
BRANCH  11  15
ATOM     12  C   UNL     1      -5.179   6.325 132.236  0.00  0.00    +0.000 A 
ATOM     13  C   UNL     1      -5.842   5.705 133.295  0.00  0.00    +0.000 A 
ATOM     14  C   UNL     1      -7.237   5.535 133.254  0.00  0.00    +0.000 A 
ATOM     15  C   UNL     1      -7.998   6.074 132.210  0.00  0.00    +0.000 A 
ATOM     16  C   UNL     1      -7.333   6.751 131.186  0.00  0.00    +0.000 A 
ATOM     17  C   UNL     1      -5.936   6.877 131.202  0.00  0.00    +0.000 A 
BRANCH  12  19
ATOM     18  C   UNL     1      -3.161   8.002 131.358  0.00  0.00    +0.000 C 
ATOM     19  S   UNL     1      -3.396   6.391 132.181  0.00  0.00    +0.000 S 
ENDBRANCH  12  19
ENDBRANCH  11  15
ENDBRANCH   1  11
TORSDOF 5
ENDMDL
MODEL 3
REMARK VINA RESULT:      -6.2      7.723      8.523
REMARK  Name = Fexinidazole
REMARK  7 active torsions:
REMARK  status: ('A' for Active; 'I' for Inactive)
REMARK    1  A    between atoms: C_1  and  S_2
REMARK    2  A    between atoms: S_2  and  C_3
REMARK    3  A    between atoms: C_6  and  O_7
REMARK    4  A    between atoms: O_7  and  C_8
REMARK    5  A    between atoms: C_8  and  C_9
REMARK    6  A    between atoms: C_12  and  N_15
REMARK    7  A    between atoms: N_13  and  C_14
REMARK                            x       y       z     vdW  Elec       q    Type
REMARK                         _______ _______ _______ _____ _____    ______ ____
ROOT
ATOM      1  C   UNL     1      -9.984   5.508 130.675  0.00  0.00    +0.000 C 
ENDROOT
BRANCH   1   2
ATOM      2  C   UNL     1     -11.128   6.499 130.753  0.00  0.00    +0.000 A 
ATOM      3  N   UNL     1     -12.142   6.472 131.602  0.00  0.00    +0.000 NA
ATOM      4  C   UNL     1     -12.980   7.492 131.240  0.00  0.00    +0.000 A 
ATOM      5  C   UNL     1     -12.465   8.184 130.174  0.00  0.00    +0.000 A 
ATOM      6  N   UNL     1     -11.260   7.588 129.883  0.00  0.00    +0.000 N 
ATOM      7  C   UNL     1     -10.270   7.946 128.894  0.00  0.00    +0.000 C 
BRANCH   5   8
ATOM      8  N   UNL     1     -13.072   9.286 129.498  0.00  0.00    +0.000 N 
ATOM      9  O   UNL     1     -13.131  10.351 130.129  0.00  0.00    +0.000 OA
ATOM     10  O   UNL     1     -13.498   9.118 128.356  0.00  0.00    +0.000 OA
ENDBRANCH   5   8
ENDBRANCH   1   2
BRANCH   1  11
ATOM     11  O   UNL     1     -10.401   4.330 129.967  0.00  0.00    +0.000 OA
BRANCH  11  15
ATOM     12  C   UNL     1      -8.553   0.685 130.950  0.00  0.00    +0.000 A 
ATOM     13  C   UNL     1      -8.341   1.313 129.721  0.00  0.00    +0.000 A 
ATOM     14  C   UNL     1      -8.937   2.557 129.451  0.00  0.00    +0.000 A 
ATOM     15  C   UNL     1      -9.834   3.139 130.355  0.00  0.00    +0.000 A 
ATOM     16  C   UNL     1     -10.091   2.472 131.554  0.00  0.00    +0.000 A 
ATOM     17  C   UNL     1      -9.458   1.254 131.846  0.00  0.00    +0.000 A 
BRANCH  12  19
ATOM     18  C   UNL     1      -6.879  -0.259 132.940  0.00  0.00    +0.000 C 
ATOM     19  S   UNL     1      -7.667  -0.802 131.386  0.00  0.00    +0.000 S 
ENDBRANCH  12  19
ENDBRANCH  11  15
ENDBRANCH   1  11
TORSDOF 5
ENDMDL
MODEL 4
REMARK VINA RESULT:      -5.8      9.638     10.255
REMARK  Name = Fexinidazole
REMARK  7 active torsions:
REMARK  status: ('A' for Active; 'I' for Inactive)
REMARK    1  A    between atoms: C_1  and  S_2
REMARK    2  A    between atoms: S_2  and  C_3
REMARK    3  A    between atoms: C_6  and  O_7
REMARK    4  A    between atoms: O_7  and  C_8
REMARK    5  A    between atoms: C_8  and  C_9
REMARK    6  A    between atoms: C_12  and  N_15
REMARK    7  A    between atoms: N_13  and  C_14
REMARK                            x       y       z     vdW  Elec       q    Type
REMARK                         _______ _______ _______ _____ _____    ______ ____
ROOT
ATOM      1  C   UNL     1      -9.823   6.172 131.142  0.00  0.00    +0.000 C 
ENDROOT
BRANCH   1   2
ATOM      2  C   UNL     1     -10.430   7.094 130.104  0.00  0.00    +0.000 A 
ATOM      3  N   UNL     1      -9.834   7.572 129.024  0.00  0.00    +0.000 NA
ATOM      4  C   UNL     1     -10.720   8.438 128.442  0.00  0.00    +0.000 A 
ATOM      5  C   UNL     1     -11.895   8.473 129.148  0.00  0.00    +0.000 A 
ATOM      6  N   UNL     1     -11.739   7.585 130.186  0.00  0.00    +0.000 N 
ATOM      7  C   UNL     1     -12.682   7.181 131.204  0.00  0.00    +0.000 C 
BRANCH   5   8
ATOM      8  N   UNL     1     -13.037   9.284 128.866  0.00  0.00    +0.000 N 
ATOM      9  O   UNL     1     -13.823   8.848 128.014  0.00  0.00    +0.000 OA
ATOM     10  O   UNL     1     -13.168  10.350 129.467  0.00  0.00    +0.000 OA
ENDBRANCH   5   8
ENDBRANCH   1   2
BRANCH   1  11
ATOM     11  O   UNL     1      -8.640   6.769 131.698  0.00  0.00    +0.000 OA
BRANCH  11  15
ATOM     12  C   UNL     1      -6.355   4.570 134.456  0.00  0.00    +0.000 A 
ATOM     13  C   UNL     1      -5.777   5.190 133.348  0.00  0.00    +0.000 A 
ATOM     14  C   UNL     1      -6.568   5.960 132.477  0.00  0.00    +0.000 A 
ATOM     15  C   UNL     1      -7.957   6.033 132.638  0.00  0.00    +0.000 A 
ATOM     16  C   UNL     1      -8.535   5.355 133.713  0.00  0.00    +0.000 A 
ATOM     17  C   UNL     1      -7.740   4.627 134.611  0.00  0.00    +0.000 A 
BRANCH  12  19
ATOM     18  C   UNL     1      -5.595   4.846 137.102  0.00  0.00    +0.000 C 
ATOM     19  S   UNL     1      -5.347   3.739 135.673  0.00  0.00    +0.000 S 
ENDBRANCH  12  19
ENDBRANCH  11  15
ENDBRANCH   1  11
TORSDOF 5
ENDMDL
MODEL 5
REMARK VINA RESULT:      -5.8      7.131      8.047
REMARK  Name = Fexinidazole
REMARK  7 active torsions:
REMARK  status: ('A' for Active; 'I' for Inactive)
REMARK    1  A    between atoms: C_1  and  S_2
REMARK    2  A    between atoms: S_2  and  C_3
REMARK    3  A    between atoms: C_6  and  O_7
REMARK    4  A    between atoms: O_7  and  C_8
REMARK    5  A    between atoms: C_8  and  C_9
REMARK    6  A    between atoms: C_12  and  N_15
REMARK    7  A    between atoms: N_13  and  C_14
REMARK                            x       y       z     vdW  Elec       q    Type
REMARK                         _______ _______ _______ _____ _____    ______ ____
ROOT
ATOM      1  C   UNL     1     -10.089   5.325 130.682  0.00  0.00    +0.000 C 
ENDROOT
BRANCH   1   2
ATOM      2  C   UNL     1     -10.682   6.306 129.691  0.00  0.00    +0.000 A 
ATOM      3  N   UNL     1     -10.232   6.574 128.476  0.00  0.00    +0.000 NA
ATOM      4  C   UNL     1     -11.009   7.590 127.989  0.00  0.00    +0.000 A 
ATOM      5  C   UNL     1     -11.976   7.936 128.897  0.00  0.00    +0.000 A 
ATOM      6  N   UNL     1     -11.806   7.093 129.970  0.00  0.00    +0.000 N 
ATOM      7  C   UNL     1     -12.583   6.975 131.182  0.00  0.00    +0.000 C 
BRANCH   5   8
ATOM      8  N   UNL     1     -12.946   8.976 128.758  0.00  0.00    +0.000 N 
ATOM      9  O   UNL     1     -13.848   8.777 127.931  0.00  0.00    +0.000 OA
ATOM     10  O   UNL     1     -12.829   9.990 129.445  0.00  0.00    +0.000 OA
ENDBRANCH   5   8
ENDBRANCH   1   2
BRANCH   1  11
ATOM     11  O   UNL     1     -10.733   4.047 130.556  0.00  0.00    +0.000 OA
BRANCH  11  15
ATOM     12  C   UNL     1      -8.222   0.690 130.846  0.00  0.00    +0.000 A 
ATOM     13  C   UNL     1      -8.229   1.511 129.717  0.00  0.00    +0.000 A 
ATOM     14  C   UNL     1      -9.046   2.655 129.681  0.00  0.00    +0.000 A 
ATOM     15  C   UNL     1      -9.943   2.934 130.719  0.00  0.00    +0.000 A 
ATOM     16  C   UNL     1      -9.976   2.070 131.815  0.00  0.00    +0.000 A 
ATOM     17  C   UNL     1      -9.125   0.956 131.875  0.00  0.00    +0.000 A 
BRANCH  12  19
ATOM     18  C   UNL     1      -7.929  -1.929 130.002  0.00  0.00    +0.000 C 
ATOM     19  S   UNL     1      -7.065  -0.662 130.990  0.00  0.00    +0.000 S 
ENDBRANCH  12  19
ENDBRANCH  11  15
ENDBRANCH   1  11
TORSDOF 5
ENDMDL
MODEL 6
REMARK VINA RESULT:      -5.8     10.007     11.534
REMARK  Name = Fexinidazole
REMARK  7 active torsions:
REMARK  status: ('A' for Active; 'I' for Inactive)
REMARK    1  A    between atoms: C_1  and  S_2
REMARK    2  A    between atoms: S_2  and  C_3
REMARK    3  A    between atoms: C_6  and  O_7
REMARK    4  A    between atoms: O_7  and  C_8
REMARK    5  A    between atoms: C_8  and  C_9
REMARK    6  A    between atoms: C_12  and  N_15
REMARK    7  A    between atoms: N_13  and  C_14
REMARK                            x       y       z     vdW  Elec       q    Type
REMARK                         _______ _______ _______ _____ _____    ______ ____
ROOT
ATOM      1  C   UNL     1      -6.824   5.710 131.323  0.00  0.00    +0.000 C 
ENDROOT
BRANCH   1   2
ATOM      2  C   UNL     1      -5.624   6.620 131.160  0.00  0.00    +0.000 A 
ATOM      3  N   UNL     1      -5.389   7.450 130.157  0.00  0.00    +0.000 NA
ATOM      4  C   UNL     1      -4.147   7.983 130.375  0.00  0.00    +0.000 A 
ATOM      5  C   UNL     1      -3.617   7.506 131.546  0.00  0.00    +0.000 A 
ATOM      6  N   UNL     1      -4.569   6.669 132.080  0.00  0.00    +0.000 N 
ATOM      7  C   UNL     1      -4.563   5.946 133.330  0.00  0.00    +0.000 C 
BRANCH   5   8
ATOM      8  N   UNL     1      -2.328   7.807 132.084  0.00  0.00    +0.000 N 
ATOM      9  O   UNL     1      -1.413   7.029 131.782  0.00  0.00    +0.000 OA
ATOM     10  O   UNL     1      -2.205   8.795 132.808  0.00  0.00    +0.000 OA
ENDBRANCH   5   8
ENDBRANCH   1   2
BRANCH   1  11
ATOM     11  O   UNL     1      -7.825   6.355 132.128  0.00  0.00    +0.000 OA
BRANCH  11  15
ATOM     12  C   UNL     1     -11.502   7.006 130.199  0.00  0.00    +0.000 A 
ATOM     13  C   UNL     1     -10.298   7.467 129.667  0.00  0.00    +0.000 A 
ATOM     14  C   UNL     1      -9.084   7.184 130.316  0.00  0.00    +0.000 A 
ATOM     15  C   UNL     1      -9.063   6.532 131.555  0.00  0.00    +0.000 A 
ATOM     16  C   UNL     1     -10.279   6.132 132.112  0.00  0.00    +0.000 A 
ATOM     17  C   UNL     1     -11.487   6.371 131.441  0.00  0.00    +0.000 A 
BRANCH  12  19
ATOM     18  C   UNL     1     -12.926   8.961 128.856  0.00  0.00    +0.000 C 
ATOM     19  S   UNL     1     -13.035   7.195 129.304  0.00  0.00    +0.000 S 
ENDBRANCH  12  19
ENDBRANCH  11  15
ENDBRANCH   1  11
TORSDOF 5
ENDMDL
MODEL 7
REMARK VINA RESULT:      -5.8      4.165      6.855
REMARK  Name = Fexinidazole
REMARK  7 active torsions:
REMARK  status: ('A' for Active; 'I' for Inactive)
REMARK    1  A    between atoms: C_1  and  S_2
REMARK    2  A    between atoms: S_2  and  C_3
REMARK    3  A    between atoms: C_6  and  O_7
REMARK    4  A    between atoms: O_7  and  C_8
REMARK    5  A    between atoms: C_8  and  C_9
REMARK    6  A    between atoms: C_12  and  N_15
REMARK    7  A    between atoms: N_13  and  C_14
REMARK                            x       y       z     vdW  Elec       q    Type
REMARK                         _______ _______ _______ _____ _____    ______ ____
ROOT
ATOM      1  C   UNL     1      -8.629   1.017 126.193  0.00  0.00    +0.000 C 
ENDROOT
BRANCH   1   2
ATOM      2  C   UNL     1      -8.461  -0.148 125.238  0.00  0.00    +0.000 A 
ATOM      3  N   UNL     1      -9.416  -0.751 124.550  0.00  0.00    +0.000 NA
ATOM      4  C   UNL     1      -8.825  -1.807 123.909  0.00  0.00    +0.000 A 
ATOM      5  C   UNL     1      -7.480  -1.841 124.174  0.00  0.00    +0.000 A 
ATOM      6  N   UNL     1      -7.228  -0.760 124.986  0.00  0.00    +0.000 N 
ATOM      7  C   UNL     1      -5.973  -0.281 125.519  0.00  0.00    +0.000 C 
BRANCH   5   8
ATOM      8  N   UNL     1      -6.544  -2.816 123.714  0.00  0.00    +0.000 N 
ATOM      9  O   UNL     1      -6.605  -3.931 124.250  0.00  0.00    +0.000 OA
ATOM     10  O   UNL     1      -5.742  -2.498 122.835  0.00  0.00    +0.000 OA
ENDBRANCH   5   8
ENDBRANCH   1   2
BRANCH   1  11
ATOM     11  O   UNL     1      -9.127   2.165 125.486  0.00  0.00    +0.000 OA
BRANCH  11  15
ATOM     12  C   UNL     1      -6.688   3.557 122.359  0.00  0.00    +0.000 A 
ATOM     13  C   UNL     1      -6.273   3.594 123.691  0.00  0.00    +0.000 A 
ATOM     14  C   UNL     1      -7.097   3.071 124.703  0.00  0.00    +0.000 A 
ATOM     15  C   UNL     1      -8.385   2.604 124.415  0.00  0.00    +0.000 A 
ATOM     16  C   UNL     1      -8.817   2.632 123.087  0.00  0.00    +0.000 A 
ATOM     17  C   UNL     1      -7.976   3.108 122.070  0.00  0.00    +0.000 A 
BRANCH  12  19
ATOM     18  C   UNL     1      -6.795   4.300 119.696  0.00  0.00    +0.000 C 
ATOM     19  S   UNL     1      -5.589   4.048 121.041  0.00  0.00    +0.000 S 
ENDBRANCH  12  19
ENDBRANCH  11  15
ENDBRANCH   1  11
TORSDOF 5
ENDMDL
MODEL 8
REMARK VINA RESULT:      -5.7      7.301      8.387
REMARK  Name = Fexinidazole
REMARK  7 active torsions:
REMARK  status: ('A' for Active; 'I' for Inactive)
REMARK    1  A    between atoms: C_1  and  S_2
REMARK    2  A    between atoms: S_2  and  C_3
REMARK    3  A    between atoms: C_6  and  O_7
REMARK    4  A    between atoms: O_7  and  C_8
REMARK    5  A    between atoms: C_8  and  C_9
REMARK    6  A    between atoms: C_12  and  N_15
REMARK    7  A    between atoms: N_13  and  C_14
REMARK                            x       y       z     vdW  Elec       q    Type
REMARK                         _______ _______ _______ _____ _____    ______ ____
ROOT
ATOM      1  C   UNL     1      -8.738   5.164 133.442  0.00  0.00    +0.000 C 
ENDROOT
BRANCH   1   2
ATOM      2  C   UNL     1      -9.501   5.891 132.354  0.00  0.00    +0.000 A 
ATOM      3  N   UNL     1     -10.751   6.320 132.414  0.00  0.00    +0.000 NA
ATOM      4  C   UNL     1     -11.052   6.819 131.176  0.00  0.00    +0.000 A 
ATOM      5  C   UNL     1      -9.965   6.732 130.344  0.00  0.00    +0.000 A 
ATOM      6  N   UNL     1      -8.955   6.182 131.098  0.00  0.00    +0.000 N 
ATOM      7  C   UNL     1      -7.578   5.921 130.744  0.00  0.00    +0.000 C 
BRANCH   5   8
ATOM      8  N   UNL     1      -9.909   7.117 128.970  0.00  0.00    +0.000 N 
ATOM      9  O   UNL     1      -9.883   8.335 128.742  0.00  0.00    +0.000 OA
ATOM     10  O   UNL     1      -9.898   6.238 128.108  0.00  0.00    +0.000 OA
ENDBRANCH   5   8
ENDBRANCH   1   2
BRANCH   1  11
ATOM     11  O   UNL     1      -9.429   3.958 133.806  0.00  0.00    +0.000 OA
BRANCH  11  15
ATOM     12  C   UNL     1      -7.976   0.445 132.013  0.00  0.00    +0.000 A 
ATOM     13  C   UNL     1      -7.164   1.260 132.804  0.00  0.00    +0.000 A 
ATOM     14  C   UNL     1      -7.702   2.399 133.428  0.00  0.00    +0.000 A 
ATOM     15  C   UNL     1      -9.022   2.798 133.188  0.00  0.00    +0.000 A 
ATOM     16  C   UNL     1      -9.807   2.012 132.343  0.00  0.00    +0.000 A 
ATOM     17  C   UNL     1      -9.286   0.848 131.758  0.00  0.00    +0.000 A 
BRANCH  12  19
ATOM     18  C   UNL     1      -7.024  -0.604 129.636  0.00  0.00    +0.000 C 
ATOM     19  S   UNL     1      -7.365  -1.100 131.359  0.00  0.00    +0.000 S 
ENDBRANCH  12  19
ENDBRANCH  11  15
ENDBRANCH   1  11
TORSDOF 5
ENDMDL
MODEL 9
REMARK VINA RESULT:      -5.6      1.763      2.208
REMARK  Name = Fexinidazole
REMARK  7 active torsions:
REMARK  status: ('A' for Active; 'I' for Inactive)
REMARK    1  A    between atoms: C_1  and  S_2
REMARK    2  A    between atoms: S_2  and  C_3
REMARK    3  A    between atoms: C_6  and  O_7
REMARK    4  A    between atoms: O_7  and  C_8
REMARK    5  A    between atoms: C_8  and  C_9
REMARK    6  A    between atoms: C_12  and  N_15
REMARK    7  A    between atoms: N_13  and  C_14
REMARK                            x       y       z     vdW  Elec       q    Type
REMARK                         _______ _______ _______ _____ _____    ______ ____
ROOT
ATOM      1  C   UNL     1      -7.788  -1.642 125.512  0.00  0.00    +0.000 C 
ENDROOT
BRANCH   1   2
ATOM      2  C   UNL     1      -8.528  -0.349 125.233  0.00  0.00    +0.000 A 
ATOM      3  N   UNL     1      -9.833  -0.201 125.077  0.00  0.00    +0.000 NA
ATOM      4  C   UNL     1     -10.038   1.110 124.741  0.00  0.00    +0.000 A 
ATOM      5  C   UNL     1      -8.850   1.795 124.721  0.00  0.00    +0.000 A 
ATOM      6  N   UNL     1      -7.883   0.884 125.077  0.00  0.00    +0.000 N 
ATOM      7  C   UNL     1      -6.464   1.076 125.274  0.00  0.00    +0.000 C 
BRANCH   5   8
ATOM      8  N   UNL     1      -8.663   3.168 124.378  0.00  0.00    +0.000 N 
ATOM      9  O   UNL     1      -8.417   3.408 123.187  0.00  0.00    +0.000 OA
ATOM     10  O   UNL     1      -8.746   4.017 125.266  0.00  0.00    +0.000 OA
ENDBRANCH   5   8
ENDBRANCH   1   2
BRANCH   1  11
ATOM     11  O   UNL     1      -8.261  -2.226 126.736  0.00  0.00    +0.000 OA
BRANCH  11  15
ATOM     12  C   UNL     1      -5.537  -3.215 129.781  0.00  0.00    +0.000 A 
ATOM     13  C   UNL     1      -6.902  -3.484 129.896  0.00  0.00    +0.000 A 
ATOM     14  C   UNL     1      -7.773  -3.185 128.833  0.00  0.00    +0.000 A 
ATOM     15  C   UNL     1      -7.314  -2.519 127.690  0.00  0.00    +0.000 A 
ATOM     16  C   UNL     1      -5.958  -2.195 127.612  0.00  0.00    +0.000 A 
ATOM     17  C   UNL     1      -5.080  -2.537 128.651  0.00  0.00    +0.000 A 
BRANCH  12  19
ATOM     18  C   UNL     1      -5.355  -5.092 131.806  0.00  0.00    +0.000 C 
ATOM     19  S   UNL     1      -4.388  -3.749 131.038  0.00  0.00    +0.000 S 
ENDBRANCH  12  19
ENDBRANCH  11  15
ENDBRANCH   1  11
TORSDOF 5
ENDMDL
