MODEL 1
REMARK VINA RESULT:      -9.5      0.000      0.000
REMARK  Name = Fexofenadine
REMARK  15 active torsions:
REMARK  status: ('A' for Active; 'I' for Inactive)
REMARK    1  A    between atoms: C_1  and  C_2
REMARK    2  A    between atoms: C_2  and  C_3
REMARK    3  A    between atoms: C_2  and  C_4
REMARK    4  A    between atoms: C_2  and  C_7
REMARK    5  A    between atoms: C_4  and  O_5
REMARK    6  A    between atoms: C_10  and  C_13
REMARK    7  A    between atoms: C_13  and  O_14
REMARK    8  A    between atoms: C_13  and  C_15
REMARK    9  A    between atoms: C_15  and  C_16
REMARK   10  A    between atoms: C_16  and  C_17
REMARK   11  A    between atoms: C_17  and  N_18
REMARK   12  A    between atoms: C_21  and  C_24
REMARK   13  A    between atoms: C_24  and  O_25
REMARK   14  A    between atoms: C_24  and  C_26
REMARK   15  A    between atoms: C_24  and  C_32
REMARK                            x       y       z     vdW  Elec       q    Type
REMARK                         _______ _______ _______ _____ _____    ______ ____
ROOT
ATOM      1  N   UNL     1      -7.785   1.515 131.585  0.00  0.00    +0.000 NA
ATOM      2  C   UNL     1      -6.989   0.463 132.235  0.00  0.00    +0.000 C 
ATOM      3  C   UNL     1      -5.898   0.025 131.272  0.00  0.00    +0.000 C 
ATOM      4  C   UNL     1      -6.504  -0.580 129.997  0.00  0.00    +0.000 C 
ATOM      5  C   UNL     1      -7.368   0.539 129.367  0.00  0.00    +0.000 C 
ATOM      6  C   UNL     1      -8.402   1.104 130.328  0.00  0.00    +0.000 C 
ENDROOT
BRANCH   1   7
ATOM      7  C   UNL     1      -8.816   2.015 132.474  0.00  0.00    +0.000 C 
BRANCH   7   8
ATOM      8  C   UNL     1      -8.243   3.178 133.251  0.00  0.00    +0.000 C 
BRANCH   8   9
ATOM      9  C   UNL     1      -9.347   4.168 133.470  0.00  0.00    +0.000 C 
BRANCH   9  10
ATOM     10  C   UNL     1      -8.917   5.572 133.080  0.00  0.00    +0.000 C 
BRANCH  10  14
ATOM     11  C   UNL     1     -11.270   7.175 129.857  0.00  0.00    +0.000 A 
ATOM     12  C   UNL     1      -9.865   7.210 129.818  0.00  0.00    +0.000 A 
ATOM     13  C   UNL     1      -9.115   6.606 130.818  0.00  0.00    +0.000 A 
ATOM     14  C   UNL     1      -9.751   6.088 131.945  0.00  0.00    +0.000 A 
ATOM     15  C   UNL     1     -11.149   6.077 131.995  0.00  0.00    +0.000 A 
ATOM     16  C   UNL     1     -11.893   6.561 130.948  0.00  0.00    +0.000 A 
BRANCH  11  18
ATOM     17  C   UNL     1     -12.517   9.078 128.983  0.00  0.00    +0.000 C 
ATOM     18  C   UNL     1     -12.141   7.608 128.682  0.00  0.00    +0.000 C 
ATOM     19  C   UNL     1     -13.442   6.792 128.586  0.00  0.00    +0.000 C 
BRANCH  18  20
ATOM     20  C   UNL     1     -11.469   7.550 127.291  0.00  0.00    +0.000 C 
ATOM     21  O   UNL     1     -10.719   8.442 126.888  0.00  0.00    +0.000 OA
BRANCH  20  22
ATOM     22  O   UNL     1     -11.724   6.496 126.486  0.00  0.00    +0.000 OA
ATOM     23  H   UNL     1     -12.289   6.656 125.706  0.00  0.00    +0.000 HD
ENDBRANCH  20  22
ENDBRANCH  18  20
ENDBRANCH  11  18
ENDBRANCH  10  14
BRANCH  10  24
ATOM     24  O   UNL     1      -9.091   6.443 134.197  0.00  0.00    +0.000 OA
ATOM     25  H   UNL     1      -8.837   7.335 133.905  0.00  0.00    +0.000 HD
ENDBRANCH  10  24
ENDBRANCH   9  10
ENDBRANCH   8   9
ENDBRANCH   7   8
ENDBRANCH   1   7
BRANCH   4  26
ATOM     26  C   UNL     1      -7.293  -1.942 130.179  0.00  0.00    +0.000 C 
BRANCH  26  27
ATOM     27  C   UNL     1      -7.567  -2.526 128.777  0.00  0.00    +0.000 A 
ATOM     28  C   UNL     1      -6.853  -2.122 127.636  0.00  0.00    +0.000 A 
ATOM     29  C   UNL     1      -7.282  -2.496 126.367  0.00  0.00    +0.000 A 
ATOM     30  C   UNL     1      -8.386  -3.330 126.221  0.00  0.00    +0.000 A 
ATOM     31  C   UNL     1      -9.062  -3.803 127.341  0.00  0.00    +0.000 A 
ATOM     32  C   UNL     1      -8.638  -3.430 128.610  0.00  0.00    +0.000 A 
ENDBRANCH  26  27
BRANCH  26  33
ATOM     33  C   UNL     1      -6.592  -2.939 131.117  0.00  0.00    +0.000 A 
ATOM     34  C   UNL     1      -5.545  -3.770 130.696  0.00  0.00    +0.000 A 
ATOM     35  C   UNL     1      -5.001  -4.735 131.537  0.00  0.00    +0.000 A 
ATOM     36  C   UNL     1      -5.424  -4.832 132.855  0.00  0.00    +0.000 A 
ATOM     37  C   UNL     1      -6.460  -4.033 133.306  0.00  0.00    +0.000 A 
ATOM     38  C   UNL     1      -7.077  -3.160 132.421  0.00  0.00    +0.000 A 
ENDBRANCH  26  33
BRANCH  26  39
ATOM     39  O   UNL     1      -8.536  -1.767 130.864  0.00  0.00    +0.000 OA
ATOM     40  H   UNL     1      -9.245  -2.106 130.312  0.00  0.00    +0.000 HD
ENDBRANCH  26  39
ENDBRANCH   4  26
TORSDOF 13
ENDMDL
MODEL 2
REMARK VINA RESULT:      -9.4      4.047      5.925
REMARK  Name = Fexofenadine
REMARK  15 active torsions:
REMARK  status: ('A' for Active; 'I' for Inactive)
REMARK    1  A    between atoms: C_1  and  C_2
REMARK    2  A    between atoms: C_2  and  C_3
REMARK    3  A    between atoms: C_2  and  C_4
REMARK    4  A    between atoms: C_2  and  C_7
REMARK    5  A    between atoms: C_4  and  O_5
REMARK    6  A    between atoms: C_10  and  C_13
REMARK    7  A    between atoms: C_13  and  O_14
REMARK    8  A    between atoms: C_13  and  C_15
REMARK    9  A    between atoms: C_15  and  C_16
REMARK   10  A    between atoms: C_16  and  C_17
REMARK   11  A    between atoms: C_17  and  N_18
REMARK   12  A    between atoms: C_21  and  C_24
REMARK   13  A    between atoms: C_24  and  O_25
REMARK   14  A    between atoms: C_24  and  C_26
REMARK   15  A    between atoms: C_24  and  C_32
REMARK                            x       y       z     vdW  Elec       q    Type
REMARK                         _______ _______ _______ _____ _____    ______ ____
ROOT
ATOM      1  N   UNL     1      -7.208   2.199 127.850  0.00  0.00    +0.000 NA
ATOM      2  C   UNL     1      -7.024   0.928 127.135  0.00  0.00    +0.000 C 
ATOM      3  C   UNL     1      -5.952   1.125 126.076  0.00  0.00    +0.000 C 
ATOM      4  C   UNL     1      -6.392   2.173 125.043  0.00  0.00    +0.000 C 
ATOM      5  C   UNL     1      -6.618   3.482 125.837  0.00  0.00    +0.000 C 
ATOM      6  C   UNL     1      -7.593   3.315 126.992  0.00  0.00    +0.000 C 
ENDROOT
BRANCH   1   7
ATOM      7  C   UNL     1      -8.185   2.065 128.914  0.00  0.00    +0.000 C 
BRANCH   7   8
ATOM      8  C   UNL     1      -7.784   2.991 130.040  0.00  0.00    +0.000 C 
BRANCH   8   9
ATOM      9  C   UNL     1      -8.634   2.658 131.228  0.00  0.00    +0.000 C 
BRANCH   9  10
ATOM     10  C   UNL     1      -9.005   3.906 132.011  0.00  0.00    +0.000 C 
BRANCH  10  14
ATOM     11  C   UNL     1     -11.027   6.830 129.591  0.00  0.00    +0.000 A 
ATOM     12  C   UNL     1      -9.761   7.093 130.141  0.00  0.00    +0.000 A 
ATOM     13  C   UNL     1      -9.076   6.109 130.842  0.00  0.00    +0.000 A 
ATOM     14  C   UNL     1      -9.705   4.899 131.129  0.00  0.00    +0.000 A 
ATOM     15  C   UNL     1     -10.976   4.648 130.603  0.00  0.00    +0.000 A 
ATOM     16  C   UNL     1     -11.601   5.573 129.805  0.00  0.00    +0.000 A 
BRANCH  11  18
ATOM     17  C   UNL     1     -10.574   8.578 127.955  0.00  0.00    +0.000 C 
ATOM     18  C   UNL     1     -11.721   7.781 128.620  0.00  0.00    +0.000 C 
ATOM     19  C   UNL     1     -12.643   8.780 129.339  0.00  0.00    +0.000 C 
BRANCH  18  20
ATOM     20  C   UNL     1     -12.560   7.111 127.509  0.00  0.00    +0.000 C 
ATOM     21  O   UNL     1     -13.781   6.970 127.605  0.00  0.00    +0.000 OA
BRANCH  20  22
ATOM     22  O   UNL     1     -11.933   6.653 126.404  0.00  0.00    +0.000 OA
ATOM     23  H   UNL     1     -11.099   6.163 126.534  0.00  0.00    +0.000 HD
ENDBRANCH  20  22
ENDBRANCH  18  20
ENDBRANCH  11  18
ENDBRANCH  10  14
BRANCH  10  24
ATOM     24  O   UNL     1      -9.889   3.548 133.073  0.00  0.00    +0.000 OA
ATOM     25  H   UNL     1     -10.237   2.663 132.869  0.00  0.00    +0.000 HD
ENDBRANCH  10  24
ENDBRANCH   9  10
ENDBRANCH   8   9
ENDBRANCH   7   8
ENDBRANCH   1   7
BRANCH   4  26
ATOM     26  C   UNL     1      -7.628   1.781 124.133  0.00  0.00    +0.000 C 
BRANCH  26  27
ATOM     27  C   UNL     1      -7.593   2.666 122.870  0.00  0.00    +0.000 A 
ATOM     28  C   UNL     1      -8.749   2.993 122.143  0.00  0.00    +0.000 A 
ATOM     29  C   UNL     1      -8.650   3.593 120.892  0.00  0.00    +0.000 A 
ATOM     30  C   UNL     1      -7.402   3.935 120.380  0.00  0.00    +0.000 A 
ATOM     31  C   UNL     1      -6.248   3.689 121.117  0.00  0.00    +0.000 A 
ATOM     32  C   UNL     1      -6.344   3.088 122.366  0.00  0.00    +0.000 A 
ENDBRANCH  26  27
BRANCH  26  33
ATOM     33  C   UNL     1      -7.702   0.278 123.811  0.00  0.00    +0.000 A 
ATOM     34  C   UNL     1      -6.763  -0.371 122.998  0.00  0.00    +0.000 A 
ATOM     35  C   UNL     1      -6.913  -1.706 122.639  0.00  0.00    +0.000 A 
ATOM     36  C   UNL     1      -7.957  -2.457 123.160  0.00  0.00    +0.000 A 
ATOM     37  C   UNL     1      -8.909  -1.849 123.960  0.00  0.00    +0.000 A 
ATOM     38  C   UNL     1      -8.815  -0.488 124.211  0.00  0.00    +0.000 A 
ENDBRANCH  26  33
BRANCH  26  39
ATOM     39  O   UNL     1      -8.880   1.967 124.801  0.00  0.00    +0.000 OA
ATOM     40  H   UNL     1      -9.429   2.549 124.271  0.00  0.00    +0.000 HD
ENDBRANCH  26  39
ENDBRANCH   4  26
TORSDOF 13
ENDMDL
MODEL 3
REMARK VINA RESULT:      -9.4      2.809      4.368
REMARK  Name = Fexofenadine
REMARK  15 active torsions:
REMARK  status: ('A' for Active; 'I' for Inactive)
REMARK    1  A    between atoms: C_1  and  C_2
REMARK    2  A    between atoms: C_2  and  C_3
REMARK    3  A    between atoms: C_2  and  C_4
REMARK    4  A    between atoms: C_2  and  C_7
REMARK    5  A    between atoms: C_4  and  O_5
REMARK    6  A    between atoms: C_10  and  C_13
REMARK    7  A    between atoms: C_13  and  O_14
REMARK    8  A    between atoms: C_13  and  C_15
REMARK    9  A    between atoms: C_15  and  C_16
REMARK   10  A    between atoms: C_16  and  C_17
REMARK   11  A    between atoms: C_17  and  N_18
REMARK   12  A    between atoms: C_21  and  C_24
REMARK   13  A    between atoms: C_24  and  O_25
REMARK   14  A    between atoms: C_24  and  C_26
REMARK   15  A    between atoms: C_24  and  C_32
REMARK                            x       y       z     vdW  Elec       q    Type
REMARK                         _______ _______ _______ _____ _____    ______ ____
ROOT
ATOM      1  N   UNL     1      -8.974   3.025 129.401  0.00  0.00    +0.000 NA
ATOM      2  C   UNL     1      -7.782   3.848 129.150  0.00  0.00    +0.000 C 
ATOM      3  C   UNL     1      -7.471   3.797 127.662  0.00  0.00    +0.000 C 
ATOM      4  C   UNL     1      -7.140   2.363 127.223  0.00  0.00    +0.000 C 
ATOM      5  C   UNL     1      -8.398   1.520 127.544  0.00  0.00    +0.000 C 
ATOM      6  C   UNL     1      -8.832   1.630 128.997  0.00  0.00    +0.000 C 
ENDROOT
BRANCH   1   7
ATOM      7  C   UNL     1      -9.358   3.073 130.799  0.00  0.00    +0.000 C 
BRANCH   7   8
ATOM      8  C   UNL     1      -8.239   3.735 131.571  0.00  0.00    +0.000 C 
BRANCH   8   9
ATOM      9  C   UNL     1      -8.838   4.358 132.796  0.00  0.00    +0.000 C 
BRANCH   9  10
ATOM     10  C   UNL     1      -8.838   5.874 132.703  0.00  0.00    +0.000 C 
BRANCH  10  14
ATOM     11  C   UNL     1     -11.394   7.334 129.569  0.00  0.00    +0.000 A 
ATOM     12  C   UNL     1     -10.005   7.544 129.529  0.00  0.00    +0.000 A 
ATOM     13  C   UNL     1      -9.178   6.988 130.497  0.00  0.00    +0.000 A 
ATOM     14  C   UNL     1      -9.738   6.339 131.596  0.00  0.00    +0.000 A 
ATOM     15  C   UNL     1     -11.123   6.153 131.647  0.00  0.00    +0.000 A 
ATOM     16  C   UNL     1     -11.929   6.594 130.627  0.00  0.00    +0.000 A 
BRANCH  11  18
ATOM     17  C   UNL     1     -12.650   9.209 128.648  0.00  0.00    +0.000 C 
ATOM     18  C   UNL     1     -12.321   7.715 128.418  0.00  0.00    +0.000 C 
ATOM     19  C   UNL     1     -13.641   6.925 128.444  0.00  0.00    +0.000 C 
BRANCH  18  20
ATOM     20  C   UNL     1     -11.729   7.557 126.999  0.00  0.00    +0.000 C 
ATOM     21  O   UNL     1     -10.912   8.357 126.537  0.00  0.00    +0.000 OA
BRANCH  20  22
ATOM     22  O   UNL     1     -12.132   6.517 126.236  0.00  0.00    +0.000 OA
ATOM     23  H   UNL     1     -11.508   6.192 125.559  0.00  0.00    +0.000 HD
ENDBRANCH  20  22
ENDBRANCH  18  20
ENDBRANCH  11  18
ENDBRANCH  10  14
BRANCH  10  24
ATOM     24  O   UNL     1      -9.317   6.419 133.931  0.00  0.00    +0.000 OA
ATOM     25  H   UNL     1      -9.596   5.671 134.486  0.00  0.00    +0.000 HD
ENDBRANCH  10  24
ENDBRANCH   9  10
ENDBRANCH   8   9
ENDBRANCH   7   8
ENDBRANCH   1   7
BRANCH   4  26
ATOM     26  C   UNL     1      -5.811   1.740 127.818  0.00  0.00    +0.000 C 
BRANCH  26  27
ATOM     27  C   UNL     1      -5.603   0.352 127.175  0.00  0.00    +0.000 A 
ATOM     28  C   UNL     1      -5.636   0.151 125.785  0.00  0.00    +0.000 A 
ATOM     29  C   UNL     1      -5.677  -1.137 125.260  0.00  0.00    +0.000 A 
ATOM     30  C   UNL     1      -5.618  -2.238 126.108  0.00  0.00    +0.000 A 
ATOM     31  C   UNL     1      -5.508  -2.060 127.484  0.00  0.00    +0.000 A 
ATOM     32  C   UNL     1      -5.470  -0.776 128.011  0.00  0.00    +0.000 A 
ENDBRANCH  26  27
BRANCH  26  33
ATOM     33  C   UNL     1      -4.583   2.657 127.675  0.00  0.00    +0.000 A 
ATOM     34  C   UNL     1      -3.846   2.758 126.488  0.00  0.00    +0.000 A 
ATOM     35  C   UNL     1      -2.681   3.514 126.419  0.00  0.00    +0.000 A 
ATOM     36  C   UNL     1      -2.272   4.268 127.510  0.00  0.00    +0.000 A 
ATOM     37  C   UNL     1      -2.970   4.189 128.702  0.00  0.00    +0.000 A 
ATOM     38  C   UNL     1      -4.060   3.335 128.794  0.00  0.00    +0.000 A 
ENDBRANCH  26  33
BRANCH  26  39
ATOM     39  O   UNL     1      -5.864   1.594 129.240  0.00  0.00    +0.000 OA
ATOM     40  H   UNL     1      -5.000   1.315 129.555  0.00  0.00    +0.000 HD
ENDBRANCH  26  39
ENDBRANCH   4  26
TORSDOF 13
ENDMDL
MODEL 4
REMARK VINA RESULT:      -9.4      1.112      3.400
REMARK  Name = Fexofenadine
REMARK  15 active torsions:
REMARK  status: ('A' for Active; 'I' for Inactive)
REMARK    1  A    between atoms: C_1  and  C_2
REMARK    2  A    between atoms: C_2  and  C_3
REMARK    3  A    between atoms: C_2  and  C_4
REMARK    4  A    between atoms: C_2  and  C_7
REMARK    5  A    between atoms: C_4  and  O_5
REMARK    6  A    between atoms: C_10  and  C_13
REMARK    7  A    between atoms: C_13  and  O_14
REMARK    8  A    between atoms: C_13  and  C_15
REMARK    9  A    between atoms: C_15  and  C_16
REMARK   10  A    between atoms: C_16  and  C_17
REMARK   11  A    between atoms: C_17  and  N_18
REMARK   12  A    between atoms: C_21  and  C_24
REMARK   13  A    between atoms: C_24  and  O_25
REMARK   14  A    between atoms: C_24  and  C_26
REMARK   15  A    between atoms: C_24  and  C_32
REMARK                            x       y       z     vdW  Elec       q    Type
REMARK                         _______ _______ _______ _____ _____    ______ ____
ROOT
ATOM      1  N   UNL     1      -7.815   1.162 132.838  0.00  0.00    +0.000 NA
ATOM      2  C   UNL     1      -8.426   0.879 131.531  0.00  0.00    +0.000 C 
ATOM      3  C   UNL     1      -9.011  -0.524 131.570  0.00  0.00    +0.000 C 
ATOM      4  C   UNL     1      -7.910  -1.570 131.798  0.00  0.00    +0.000 C 
ATOM      5  C   UNL     1      -7.263  -1.213 133.158  0.00  0.00    +0.000 C 
ATOM      6  C   UNL     1      -6.766   0.222 133.222  0.00  0.00    +0.000 C 
ENDROOT
BRANCH   1   7
ATOM      7  C   UNL     1      -7.281   2.509 132.886  0.00  0.00    +0.000 C 
BRANCH   7   8
ATOM      8  C   UNL     1      -8.248   3.424 132.169  0.00  0.00    +0.000 C 
BRANCH   8   9
ATOM      9  C   UNL     1      -8.962   4.235 133.208  0.00  0.00    +0.000 C 
BRANCH   9  10
ATOM     10  C   UNL     1      -8.763   5.724 132.981  0.00  0.00    +0.000 C 
BRANCH  10  14
ATOM     11  C   UNL     1     -11.291   7.271 129.866  0.00  0.00    +0.000 A 
ATOM     12  C   UNL     1      -9.891   7.373 129.783  0.00  0.00    +0.000 A 
ATOM     13  C   UNL     1      -9.081   6.787 130.747  0.00  0.00    +0.000 A 
ATOM     14  C   UNL     1      -9.656   6.220 131.883  0.00  0.00    +0.000 A 
ATOM     15  C   UNL     1     -11.050   6.143 131.977  0.00  0.00    +0.000 A 
ATOM     16  C   UNL     1     -11.849   6.611 130.964  0.00  0.00    +0.000 A 
BRANCH  11  18
ATOM     17  C   UNL     1     -12.562   9.166 129.009  0.00  0.00    +0.000 C 
ATOM     18  C   UNL     1     -12.219   7.684 128.727  0.00  0.00    +0.000 C 
ATOM     19  C   UNL     1     -13.531   6.882 128.723  0.00  0.00    +0.000 C 
BRANCH  18  20
ATOM     20  C   UNL     1     -11.623   7.581 127.305  0.00  0.00    +0.000 C 
ATOM     21  O   UNL     1     -10.837   8.422 126.861  0.00  0.00    +0.000 OA
BRANCH  20  22
ATOM     22  O   UNL     1     -11.987   6.546 126.518  0.00  0.00    +0.000 OA
ATOM     23  H   UNL     1     -12.438   6.760 125.678  0.00  0.00    +0.000 HD
ENDBRANCH  20  22
ENDBRANCH  18  20
ENDBRANCH  11  18
ENDBRANCH  10  14
BRANCH  10  24
ATOM     24  O   UNL     1      -9.088   6.428 134.178  0.00  0.00    +0.000 OA
ATOM     25  H   UNL     1      -9.358   5.764 134.836  0.00  0.00    +0.000 HD
ENDBRANCH  10  24
ENDBRANCH   9  10
ENDBRANCH   8   9
ENDBRANCH   7   8
ENDBRANCH   1   7
BRANCH   4  26
ATOM     26  C   UNL     1      -6.849  -1.731 130.633  0.00  0.00    +0.000 C 
BRANCH  26  27
ATOM     27  C   UNL     1      -5.733  -2.675 131.129  0.00  0.00    +0.000 A 
ATOM     28  C   UNL     1      -5.977  -4.010 131.492  0.00  0.00    +0.000 A 
ATOM     29  C   UNL     1      -5.001  -4.752 132.149  0.00  0.00    +0.000 A 
ATOM     30  C   UNL     1      -3.749  -4.196 132.393  0.00  0.00    +0.000 A 
ATOM     31  C   UNL     1      -3.461  -2.901 131.974  0.00  0.00    +0.000 A 
ATOM     32  C   UNL     1      -4.435  -2.156 131.320  0.00  0.00    +0.000 A 
ENDBRANCH  26  27
BRANCH  26  33
ATOM     33  C   UNL     1      -7.466  -2.183 129.297  0.00  0.00    +0.000 A 
ATOM     34  C   UNL     1      -7.340  -1.442 128.114  0.00  0.00    +0.000 A 
ATOM     35  C   UNL     1      -7.996  -1.820 126.948  0.00  0.00    +0.000 A 
ATOM     36  C   UNL     1      -8.719  -3.005 126.905  0.00  0.00    +0.000 A 
ATOM     37  C   UNL     1      -8.870  -3.760 128.055  0.00  0.00    +0.000 A 
ATOM     38  C   UNL     1      -8.313  -3.306 129.242  0.00  0.00    +0.000 A 
ENDBRANCH  26  33
BRANCH  26  39
ATOM     39  O   UNL     1      -6.268  -0.483 130.243  0.00  0.00    +0.000 OA
ATOM     40  H   UNL     1      -6.731  -0.155 129.468  0.00  0.00    +0.000 HD
ENDBRANCH  26  39
ENDBRANCH   4  26
TORSDOF 13
ENDMDL
MODEL 5
REMARK VINA RESULT:      -9.1      1.207      2.021
REMARK  Name = Fexofenadine
REMARK  15 active torsions:
REMARK  status: ('A' for Active; 'I' for Inactive)
REMARK    1  A    between atoms: C_1  and  C_2
REMARK    2  A    between atoms: C_2  and  C_3
REMARK    3  A    between atoms: C_2  and  C_4
REMARK    4  A    between atoms: C_2  and  C_7
REMARK    5  A    between atoms: C_4  and  O_5
REMARK    6  A    between atoms: C_10  and  C_13
REMARK    7  A    between atoms: C_13  and  O_14
REMARK    8  A    between atoms: C_13  and  C_15
REMARK    9  A    between atoms: C_15  and  C_16
REMARK   10  A    between atoms: C_16  and  C_17
REMARK   11  A    between atoms: C_17  and  N_18
REMARK   12  A    between atoms: C_21  and  C_24
REMARK   13  A    between atoms: C_24  and  O_25
REMARK   14  A    between atoms: C_24  and  C_26
REMARK   15  A    between atoms: C_24  and  C_32
REMARK                            x       y       z     vdW  Elec       q    Type
REMARK                         _______ _______ _______ _____ _____    ______ ____
ROOT
ATOM      1  N   UNL     1      -7.051   1.698 130.096  0.00  0.00    +0.000 NA
ATOM      2  C   UNL     1      -6.171   0.599 130.518  0.00  0.00    +0.000 C 
ATOM      3  C   UNL     1      -5.266   0.235 129.351  0.00  0.00    +0.000 C 
ATOM      4  C   UNL     1      -6.091  -0.269 128.158  0.00  0.00    +0.000 C 
ATOM      5  C   UNL     1      -7.034   0.895 127.771  0.00  0.00    +0.000 C 
ATOM      6  C   UNL     1      -7.880   1.386 128.935  0.00  0.00    +0.000 C 
ENDROOT
BRANCH   1   7
ATOM      7  C   UNL     1      -7.908   2.130 131.183  0.00  0.00    +0.000 C 
BRANCH   7   8
ATOM      8  C   UNL     1      -7.523   3.545 131.551  0.00  0.00    +0.000 C 
BRANCH   8   9
ATOM      9  C   UNL     1      -8.604   4.096 132.432  0.00  0.00    +0.000 C 
BRANCH   9  10
ATOM     10  C   UNL     1      -8.621   5.615 132.403  0.00  0.00    +0.000 C 
BRANCH  10  14
ATOM     11  C   UNL     1     -11.249   6.946 129.271  0.00  0.00    +0.000 A 
ATOM     12  C   UNL     1     -11.577   5.838 130.072  0.00  0.00    +0.000 A 
ATOM     13  C   UNL     1     -10.768   5.474 131.140  0.00  0.00    +0.000 A 
ATOM     14  C   UNL     1      -9.547   6.117 131.335  0.00  0.00    +0.000 A 
ATOM     15  C   UNL     1      -9.210   7.203 130.521  0.00  0.00    +0.000 A 
ATOM     16  C   UNL     1     -10.068   7.642 129.544  0.00  0.00    +0.000 A 
BRANCH  11  18
ATOM     17  C   UNL     1     -12.328   9.030 128.615  0.00  0.00    +0.000 C 
ATOM     18  C   UNL     1     -12.209   7.534 128.241  0.00  0.00    +0.000 C 
ATOM     19  C   UNL     1     -13.612   6.908 128.326  0.00  0.00    +0.000 C 
BRANCH  18  20
ATOM     20  C   UNL     1     -11.758   7.431 126.767  0.00  0.00    +0.000 C 
ATOM     21  O   UNL     1     -10.874   8.154 126.300  0.00  0.00    +0.000 OA
BRANCH  20  22
ATOM     22  O   UNL     1     -12.361   6.532 125.961  0.00  0.00    +0.000 OA
ATOM     23  H   UNL     1     -12.822   5.786 126.390  0.00  0.00    +0.000 HD
ENDBRANCH  20  22
ENDBRANCH  18  20
ENDBRANCH  11  18
ENDBRANCH  10  14
BRANCH  10  24
ATOM     24  O   UNL     1      -9.081   6.102 133.662  0.00  0.00    +0.000 OA
ATOM     25  H   UNL     1     -10.026   6.309 133.561  0.00  0.00    +0.000 HD
ENDBRANCH  10  24
ENDBRANCH   9  10
ENDBRANCH   8   9
ENDBRANCH   7   8
ENDBRANCH   1   7
BRANCH   4  26
ATOM     26  C   UNL     1      -6.856  -1.641 128.368  0.00  0.00    +0.000 C 
BRANCH  26  27
ATOM     27  C   UNL     1      -7.226  -2.200 126.978  0.00  0.00    +0.000 A 
ATOM     28  C   UNL     1      -8.455  -2.828 126.718  0.00  0.00    +0.000 A 
ATOM     29  C   UNL     1      -8.656  -3.519 125.528  0.00  0.00    +0.000 A 
ATOM     30  C   UNL     1      -7.661  -3.538 124.556  0.00  0.00    +0.000 A 
ATOM     31  C   UNL     1      -6.464  -2.859 124.762  0.00  0.00    +0.000 A 
ATOM     32  C   UNL     1      -6.260  -2.169 125.951  0.00  0.00    +0.000 A 
ENDBRANCH  26  27
BRANCH  26  33
ATOM     33  C   UNL     1      -6.083  -2.650 129.235  0.00  0.00    +0.000 A 
ATOM     34  C   UNL     1      -6.631  -3.240 130.382  0.00  0.00    +0.000 A 
ATOM     35  C   UNL     1      -5.873  -4.068 131.204  0.00  0.00    +0.000 A 
ATOM     36  C   UNL     1      -4.574  -4.406 130.850  0.00  0.00    +0.000 A 
ATOM     37  C   UNL     1      -3.997  -3.837 129.728  0.00  0.00    +0.000 A 
ATOM     38  C   UNL     1      -4.723  -2.917 128.985  0.00  0.00    +0.000 A 
ENDBRANCH  26  33
BRANCH  26  39
ATOM     39  O   UNL     1      -8.048  -1.488 129.144  0.00  0.00    +0.000 OA
ATOM     40  H   UNL     1      -7.901  -0.810 129.808  0.00  0.00    +0.000 HD
ENDBRANCH  26  39
ENDBRANCH   4  26
TORSDOF 13
ENDMDL
MODEL 6
REMARK VINA RESULT:      -9.0      4.521      6.585
REMARK  Name = Fexofenadine
REMARK  15 active torsions:
REMARK  status: ('A' for Active; 'I' for Inactive)
REMARK    1  A    between atoms: C_1  and  C_2
REMARK    2  A    between atoms: C_2  and  C_3
REMARK    3  A    between atoms: C_2  and  C_4
REMARK    4  A    between atoms: C_2  and  C_7
REMARK    5  A    between atoms: C_4  and  O_5
REMARK    6  A    between atoms: C_10  and  C_13
REMARK    7  A    between atoms: C_13  and  O_14
REMARK    8  A    between atoms: C_13  and  C_15
REMARK    9  A    between atoms: C_15  and  C_16
REMARK   10  A    between atoms: C_16  and  C_17
REMARK   11  A    between atoms: C_17  and  N_18
REMARK   12  A    between atoms: C_21  and  C_24
REMARK   13  A    between atoms: C_24  and  O_25
REMARK   14  A    between atoms: C_24  and  C_26
REMARK   15  A    between atoms: C_24  and  C_32
REMARK                            x       y       z     vdW  Elec       q    Type
REMARK                         _______ _______ _______ _____ _____    ______ ____
ROOT
ATOM      1  N   UNL     1      -6.295   2.093 130.261  0.00  0.00    +0.000 NA
ATOM      2  C   UNL     1      -6.821   1.690 128.949  0.00  0.00    +0.000 C 
ATOM      3  C   UNL     1      -7.837   0.578 129.161  0.00  0.00    +0.000 C 
ATOM      4  C   UNL     1      -7.173  -0.656 129.789  0.00  0.00    +0.000 C 
ATOM      5  C   UNL     1      -6.594  -0.183 131.144  0.00  0.00    +0.000 C 
ATOM      6  C   UNL     1      -5.662   1.010 131.008  0.00  0.00    +0.000 C 
ENDROOT
BRANCH   1   7
ATOM      7  C   UNL     1      -5.356   3.189 130.135  0.00  0.00    +0.000 C 
BRANCH   7   8
ATOM      8  C   UNL     1      -4.033   2.624 129.669  0.00  0.00    +0.000 C 
BRANCH   8   9
ATOM      9  C   UNL     1      -3.383   3.649 128.790  0.00  0.00    +0.000 C 
BRANCH   9  10
ATOM     10  C   UNL     1      -2.892   3.034 127.491  0.00  0.00    +0.000 C 
BRANCH  10  14
ATOM     11  C   UNL     1      -6.210   2.632 124.786  0.00  0.00    +0.000 A 
ATOM     12  C   UNL     1      -5.567   3.869 124.967  0.00  0.00    +0.000 A 
ATOM     13  C   UNL     1      -4.439   3.968 125.770  0.00  0.00    +0.000 A 
ATOM     14  C   UNL     1      -4.023   2.868 126.520  0.00  0.00    +0.000 A 
ATOM     15  C   UNL     1      -4.681   1.644 126.358  0.00  0.00    +0.000 A 
ATOM     16  C   UNL     1      -5.718   1.516 125.469  0.00  0.00    +0.000 A 
BRANCH  11  18
ATOM     17  C   UNL     1      -7.193   0.917 123.360  0.00  0.00    +0.000 C 
ATOM     18  C   UNL     1      -7.301   2.412 123.741  0.00  0.00    +0.000 C 
ATOM     19  C   UNL     1      -7.068   3.248 122.470  0.00  0.00    +0.000 C 
BRANCH  18  20
ATOM     20  C   UNL     1      -8.746   2.695 124.209  0.00  0.00    +0.000 C 
ATOM     21  O   UNL     1      -9.684   1.944 123.930  0.00  0.00    +0.000 OA
BRANCH  20  22
ATOM     22  O   UNL     1      -8.992   3.809 124.932  0.00  0.00    +0.000 OA
ATOM     23  H   UNL     1      -9.904   3.940 125.255  0.00  0.00    +0.000 HD
ENDBRANCH  20  22
ENDBRANCH  18  20
ENDBRANCH  11  18
ENDBRANCH  10  14
BRANCH  10  24
ATOM     24  O   UNL     1      -1.918   3.895 126.903  0.00  0.00    +0.000 OA
ATOM     25  H   UNL     1      -1.778   3.587 125.991  0.00  0.00    +0.000 HD
ENDBRANCH  10  24
ENDBRANCH   9  10
ENDBRANCH   8   9
ENDBRANCH   7   8
ENDBRANCH   1   7
BRANCH   4  26
ATOM     26  C   UNL     1      -6.106  -1.407 128.890  0.00  0.00    +0.000 C 
BRANCH  26  27
ATOM     27  C   UNL     1      -5.576  -2.617 129.688  0.00  0.00    +0.000 A 
ATOM     28  C   UNL     1      -6.404  -3.676 130.095  0.00  0.00    +0.000 A 
ATOM     29  C   UNL     1      -5.942  -4.624 131.003  0.00  0.00    +0.000 A 
ATOM     30  C   UNL     1      -4.631  -4.566 131.464  0.00  0.00    +0.000 A 
ATOM     31  C   UNL     1      -3.771  -3.570 131.015  0.00  0.00    +0.000 A 
ATOM     32  C   UNL     1      -4.230  -2.621 130.110  0.00  0.00    +0.000 A 
ENDBRANCH  26  27
BRANCH  26  33
ATOM     33  C   UNL     1      -6.636  -1.793 127.498  0.00  0.00    +0.000 A 
ATOM     34  C   UNL     1      -7.977  -2.126 127.262  0.00  0.00    +0.000 A 
ATOM     35  C   UNL     1      -8.406  -2.571 126.016  0.00  0.00    +0.000 A 
ATOM     36  C   UNL     1      -7.525  -2.605 124.944  0.00  0.00    +0.000 A 
ATOM     37  C   UNL     1      -6.192  -2.290 125.140  0.00  0.00    +0.000 A 
ATOM     38  C   UNL     1      -5.751  -1.966 126.416  0.00  0.00    +0.000 A 
ENDBRANCH  26  33
BRANCH  26  39
ATOM     39  O   UNL     1      -5.007  -0.567 128.527  0.00  0.00    +0.000 OA
ATOM     40  H   UNL     1      -4.326  -1.107 128.119  0.00  0.00    +0.000 HD
ENDBRANCH  26  39
ENDBRANCH   4  26
TORSDOF 13
ENDMDL
MODEL 7
REMARK VINA RESULT:      -8.9      5.057      7.542
REMARK  Name = Fexofenadine
REMARK  15 active torsions:
REMARK  status: ('A' for Active; 'I' for Inactive)
REMARK    1  A    between atoms: C_1  and  C_2
REMARK    2  A    between atoms: C_2  and  C_3
REMARK    3  A    between atoms: C_2  and  C_4
REMARK    4  A    between atoms: C_2  and  C_7
REMARK    5  A    between atoms: C_4  and  O_5
REMARK    6  A    between atoms: C_10  and  C_13
REMARK    7  A    between atoms: C_13  and  O_14
REMARK    8  A    between atoms: C_13  and  C_15
REMARK    9  A    between atoms: C_15  and  C_16
REMARK   10  A    between atoms: C_16  and  C_17
REMARK   11  A    between atoms: C_17  and  N_18
REMARK   12  A    between atoms: C_21  and  C_24
REMARK   13  A    between atoms: C_24  and  O_25
REMARK   14  A    between atoms: C_24  and  C_26
REMARK   15  A    between atoms: C_24  and  C_32
REMARK                            x       y       z     vdW  Elec       q    Type
REMARK                         _______ _______ _______ _____ _____    ______ ____
ROOT
ATOM      1  N   UNL     1      -7.397   2.445 126.820  0.00  0.00    +0.000 NA
ATOM      2  C   UNL     1      -7.691   1.320 125.921  0.00  0.00    +0.000 C 
ATOM      3  C   UNL     1      -8.455   0.266 126.708  0.00  0.00    +0.000 C 
ATOM      4  C   UNL     1      -7.600  -0.280 127.861  0.00  0.00    +0.000 C 
ATOM      5  C   UNL     1      -7.274   0.937 128.759  0.00  0.00    +0.000 C 
ATOM      6  C   UNL     1      -6.617   2.078 127.998  0.00  0.00    +0.000 C 
ENDROOT
BRANCH   1   7
ATOM      7  C   UNL     1      -6.712   3.512 126.117  0.00  0.00    +0.000 C 
BRANCH   7   8
ATOM      8  C   UNL     1      -5.432   2.950 125.541  0.00  0.00    +0.000 C 
BRANCH   8   9
ATOM      9  C   UNL     1      -4.357   3.977 125.733  0.00  0.00    +0.000 C 
BRANCH   9  10
ATOM     10  C   UNL     1      -3.176   3.407 126.497  0.00  0.00    +0.000 C 
BRANCH  10  14
ATOM     11  C   UNL     1      -2.760   5.485 130.239  0.00  0.00    +0.000 A 
ATOM     12  C   UNL     1      -3.287   4.182 130.186  0.00  0.00    +0.000 A 
ATOM     13  C   UNL     1      -3.330   3.485 128.987  0.00  0.00    +0.000 A 
ATOM     14  C   UNL     1      -2.985   4.128 127.799  0.00  0.00    +0.000 A 
ATOM     15  C   UNL     1      -2.485   5.434 127.850  0.00  0.00    +0.000 A 
ATOM     16  C   UNL     1      -2.325   6.078 129.051  0.00  0.00    +0.000 A 
BRANCH  11  18
ATOM     17  C   UNL     1      -3.323   7.496 131.495  0.00  0.00    +0.000 C 
ATOM     18  C   UNL     1      -2.470   6.206 131.552  0.00  0.00    +0.000 C 
ATOM     19  C   UNL     1      -0.993   6.616 131.680  0.00  0.00    +0.000 C 
BRANCH  18  20
ATOM     20  C   UNL     1      -2.837   5.434 132.839  0.00  0.00    +0.000 C 
ATOM     21  O   UNL     1      -3.967   5.480 133.331  0.00  0.00    +0.000 OA
BRANCH  20  22
ATOM     22  O   UNL     1      -1.886   4.696 133.451  0.00  0.00    +0.000 OA
ATOM     23  H   UNL     1      -2.091   4.353 134.342  0.00  0.00    +0.000 HD
ENDBRANCH  20  22
ENDBRANCH  18  20
ENDBRANCH  11  18
ENDBRANCH  10  14
BRANCH  10  24
ATOM     24  O   UNL     1      -3.420   2.030 126.779  0.00  0.00    +0.000 OA
ATOM     25  H   UNL     1      -2.827   1.511 126.209  0.00  0.00    +0.000 HD
ENDBRANCH  10  24
ENDBRANCH   9  10
ENDBRANCH   8   9
ENDBRANCH   7   8
ENDBRANCH   1   7
BRANCH   4  26
ATOM     26  C   UNL     1      -6.313  -1.105 127.446  0.00  0.00    +0.000 C 
BRANCH  26  27
ATOM     27  C   UNL     1      -5.994  -2.098 128.584  0.00  0.00    +0.000 A 
ATOM     28  C   UNL     1      -4.726  -2.680 128.746  0.00  0.00    +0.000 A 
ATOM     29  C   UNL     1      -4.544  -3.737 129.633  0.00  0.00    +0.000 A 
ATOM     30  C   UNL     1      -5.605  -4.181 130.415  0.00  0.00    +0.000 A 
ATOM     31  C   UNL     1      -6.850  -3.568 130.325  0.00  0.00    +0.000 A 
ATOM     32  C   UNL     1      -7.036  -2.514 129.439  0.00  0.00    +0.000 A 
ENDBRANCH  26  27
BRANCH  26  33
ATOM     33  C   UNL     1      -6.435  -1.787 126.072  0.00  0.00    +0.000 A 
ATOM     34  C   UNL     1      -7.383  -2.782 125.801  0.00  0.00    +0.000 A 
ATOM     35  C   UNL     1      -7.402  -3.454 124.583  0.00  0.00    +0.000 A 
ATOM     36  C   UNL     1      -6.533  -3.082 123.566  0.00  0.00    +0.000 A 
ATOM     37  C   UNL     1      -5.579  -2.108 123.799  0.00  0.00    +0.000 A 
ATOM     38  C   UNL     1      -5.491  -1.532 125.059  0.00  0.00    +0.000 A 
ENDBRANCH  26  33
BRANCH  26  39
ATOM     39  O   UNL     1      -5.175  -0.268 127.222  0.00  0.00    +0.000 OA
ATOM     40  H   UNL     1      -5.083   0.334 127.965  0.00  0.00    +0.000 HD
ENDBRANCH  26  39
ENDBRANCH   4  26
TORSDOF 13
ENDMDL
MODEL 8
REMARK VINA RESULT:      -8.8      2.214      4.107
REMARK  Name = Fexofenadine
REMARK  15 active torsions:
REMARK  status: ('A' for Active; 'I' for Inactive)
REMARK    1  A    between atoms: C_1  and  C_2
REMARK    2  A    between atoms: C_2  and  C_3
REMARK    3  A    between atoms: C_2  and  C_4
REMARK    4  A    between atoms: C_2  and  C_7
REMARK    5  A    between atoms: C_4  and  O_5
REMARK    6  A    between atoms: C_10  and  C_13
REMARK    7  A    between atoms: C_13  and  O_14
REMARK    8  A    between atoms: C_13  and  C_15
REMARK    9  A    between atoms: C_15  and  C_16
REMARK   10  A    between atoms: C_16  and  C_17
REMARK   11  A    between atoms: C_17  and  N_18
REMARK   12  A    between atoms: C_21  and  C_24
REMARK   13  A    between atoms: C_24  and  O_25
REMARK   14  A    between atoms: C_24  and  C_26
REMARK   15  A    between atoms: C_24  and  C_32
REMARK                            x       y       z     vdW  Elec       q    Type
REMARK                         _______ _______ _______ _____ _____    ______ ____
ROOT
ATOM      1  N   UNL     1      -7.811   1.607 131.437  0.00  0.00    +0.000 NA
ATOM      2  C   UNL     1      -8.227   0.439 130.648  0.00  0.00    +0.000 C 
ATOM      3  C   UNL     1      -6.980  -0.244 130.110  0.00  0.00    +0.000 C 
ATOM      4  C   UNL     1      -6.205   0.692 129.171  0.00  0.00    +0.000 C 
ATOM      5  C   UNL     1      -5.824   1.926 130.024  0.00  0.00    +0.000 C 
ATOM      6  C   UNL     1      -7.023   2.582 130.690  0.00  0.00    +0.000 C 
ENDROOT
BRANCH   1   7
ATOM      7  C   UNL     1      -8.955   2.277 132.024  0.00  0.00    +0.000 C 
BRANCH   7   8
ATOM      8  C   UNL     1      -8.469   3.093 133.201  0.00  0.00    +0.000 C 
BRANCH   8   9
ATOM      9  C   UNL     1      -9.491   4.156 133.470  0.00  0.00    +0.000 C 
BRANCH   9  10
ATOM     10  C   UNL     1      -8.992   5.526 133.044  0.00  0.00    +0.000 C 
BRANCH  10  14
ATOM     11  C   UNL     1     -11.310   7.186 129.825  0.00  0.00    +0.000 A 
ATOM     12  C   UNL     1      -9.907   7.281 129.834  0.00  0.00    +0.000 A 
ATOM     13  C   UNL     1      -9.163   6.660 130.828  0.00  0.00    +0.000 A 
ATOM     14  C   UNL     1      -9.812   6.062 131.908  0.00  0.00    +0.000 A 
ATOM     15  C   UNL     1     -11.209   5.992 131.911  0.00  0.00    +0.000 A 
ATOM     16  C   UNL     1     -11.939   6.496 130.864  0.00  0.00    +0.000 A 
BRANCH  11  18
ATOM     17  C   UNL     1     -12.485   9.125 128.932  0.00  0.00    +0.000 C 
ATOM     18  C   UNL     1     -12.161   7.640 128.643  0.00  0.00    +0.000 C 
ATOM     19  C   UNL     1     -13.490   6.871 128.551  0.00  0.00    +0.000 C 
BRANCH  18  20
ATOM     20  C   UNL     1     -11.489   7.547 127.256  0.00  0.00    +0.000 C 
ATOM     21  O   UNL     1     -10.715   8.414 126.842  0.00  0.00    +0.000 OA
BRANCH  20  22
ATOM     22  O   UNL     1     -11.769   6.488 126.465  0.00  0.00    +0.000 OA
ATOM     23  H   UNL     1     -11.207   6.358 125.677  0.00  0.00    +0.000 HD
ENDBRANCH  20  22
ENDBRANCH  18  20
ENDBRANCH  11  18
ENDBRANCH  10  14
BRANCH  10  24
ATOM     24  O   UNL     1      -9.103   6.429 134.143  0.00  0.00    +0.000 OA
ATOM     25  H   UNL     1      -8.623   6.031 134.889  0.00  0.00    +0.000 HD
ENDBRANCH  10  24
ENDBRANCH   9  10
ENDBRANCH   8   9
ENDBRANCH   7   8
ENDBRANCH   1   7
BRANCH   4  26
ATOM     26  C   UNL     1      -6.930   1.077 127.816  0.00  0.00    +0.000 C 
BRANCH  26  27
ATOM     27  C   UNL     1      -6.009   2.040 127.038  0.00  0.00    +0.000 A 
ATOM     28  C   UNL     1      -4.660   1.750 126.777  0.00  0.00    +0.000 A 
ATOM     29  C   UNL     1      -3.810   2.733 126.281  0.00  0.00    +0.000 A 
ATOM     30  C   UNL     1      -4.308   3.997 125.978  0.00  0.00    +0.000 A 
ATOM     31  C   UNL     1      -5.657   4.282 126.158  0.00  0.00    +0.000 A 
ATOM     32  C   UNL     1      -6.508   3.303 126.655  0.00  0.00    +0.000 A 
ENDBRANCH  26  27
BRANCH  26  33
ATOM     33  C   UNL     1      -7.365  -0.141 126.983  0.00  0.00    +0.000 A 
ATOM     34  C   UNL     1      -8.640  -0.253 126.411  0.00  0.00    +0.000 A 
ATOM     35  C   UNL     1      -9.041  -1.410 125.752  0.00  0.00    +0.000 A 
ATOM     36  C   UNL     1      -8.144  -2.453 125.564  0.00  0.00    +0.000 A 
ATOM     37  C   UNL     1      -6.879  -2.382 126.120  0.00  0.00    +0.000 A 
ATOM     38  C   UNL     1      -6.534  -1.273 126.880  0.00  0.00    +0.000 A 
ENDBRANCH  26  33
BRANCH  26  39
ATOM     39  O   UNL     1      -8.194   1.711 128.033  0.00  0.00    +0.000 OA
ATOM     40  H   UNL     1      -8.043   2.595 128.376  0.00  0.00    +0.000 HD
ENDBRANCH  26  39
ENDBRANCH   4  26
TORSDOF 13
ENDMDL
MODEL 9
REMARK VINA RESULT:      -8.7      1.808      4.004
REMARK  Name = Fexofenadine
REMARK  15 active torsions:
REMARK  status: ('A' for Active; 'I' for Inactive)
REMARK    1  A    between atoms: C_1  and  C_2
REMARK    2  A    between atoms: C_2  and  C_3
REMARK    3  A    between atoms: C_2  and  C_4
REMARK    4  A    between atoms: C_2  and  C_7
REMARK    5  A    between atoms: C_4  and  O_5
REMARK    6  A    between atoms: C_10  and  C_13
REMARK    7  A    between atoms: C_13  and  O_14
REMARK    8  A    between atoms: C_13  and  C_15
REMARK    9  A    between atoms: C_15  and  C_16
REMARK   10  A    between atoms: C_16  and  C_17
REMARK   11  A    between atoms: C_17  and  N_18
REMARK   12  A    between atoms: C_21  and  C_24
REMARK   13  A    between atoms: C_24  and  O_25
REMARK   14  A    between atoms: C_24  and  C_26
REMARK   15  A    between atoms: C_24  and  C_32
REMARK                            x       y       z     vdW  Elec       q    Type
REMARK                         _______ _______ _______ _____ _____    ______ ____
ROOT
ATOM      1  N   UNL     1      -7.024   2.030 129.741  0.00  0.00    +0.000 NA
ATOM      2  C   UNL     1      -7.144   1.801 128.293  0.00  0.00    +0.000 C 
ATOM      3  C   UNL     1      -8.118   0.655 128.070  0.00  0.00    +0.000 C 
ATOM      4  C   UNL     1      -7.589  -0.643 128.698  0.00  0.00    +0.000 C 
ATOM      5  C   UNL     1      -7.434  -0.349 130.210  0.00  0.00    +0.000 C 
ATOM      6  C   UNL     1      -6.566   0.867 130.493  0.00  0.00    +0.000 C 
ENDROOT
BRANCH   1   7
ATOM      7  C   UNL     1      -6.146   3.148 130.022  0.00  0.00    +0.000 C 
BRANCH   7   8
ATOM      8  C   UNL     1      -6.237   3.457 131.500  0.00  0.00    +0.000 C 
BRANCH   8   9
ATOM      9  C   UNL     1      -6.852   4.816 131.644  0.00  0.00    +0.000 C 
BRANCH   9  10
ATOM     10  C   UNL     1      -8.276   4.727 132.164  0.00  0.00    +0.000 C 
BRANCH  10  14
ATOM     11  C   UNL     1     -10.976   6.616 129.402  0.00  0.00    +0.000 A 
ATOM     12  C   UNL     1     -11.268   5.357 129.956  0.00  0.00    +0.000 A 
ATOM     13  C   UNL     1     -10.437   4.799 130.917  0.00  0.00    +0.000 A 
ATOM     14  C   UNL     1      -9.228   5.418 131.232  0.00  0.00    +0.000 A 
ATOM     15  C   UNL     1      -8.927   6.658 130.660  0.00  0.00    +0.000 A 
ATOM     16  C   UNL     1      -9.808   7.269 129.804  0.00  0.00    +0.000 A 
BRANCH  11  18
ATOM     17  C   UNL     1     -11.951   8.826 129.079  0.00  0.00    +0.000 C 
ATOM     18  C   UNL     1     -11.963   7.382 128.525  0.00  0.00    +0.000 C 
ATOM     19  C   UNL     1     -13.397   6.836 128.645  0.00  0.00    +0.000 C 
BRANCH  18  20
ATOM     20  C   UNL     1     -11.625   7.433 127.018  0.00  0.00    +0.000 C 
ATOM     21  O   UNL     1     -10.846   8.267 126.549  0.00  0.00    +0.000 OA
BRANCH  20  22
ATOM     22  O   UNL     1     -12.212   6.545 126.187  0.00  0.00    +0.000 OA
ATOM     23  H   UNL     1     -13.073   6.176 126.463  0.00  0.00    +0.000 HD
ENDBRANCH  20  22
ENDBRANCH  18  20
ENDBRANCH  11  18
ENDBRANCH  10  14
BRANCH  10  24
ATOM     24  O   UNL     1      -8.656   3.355 132.257  0.00  0.00    +0.000 OA
ATOM     25  H   UNL     1      -7.954   2.897 132.750  0.00  0.00    +0.000 HD
ENDBRANCH  10  24
ENDBRANCH   9  10
ENDBRANCH   8   9
ENDBRANCH   7   8
ENDBRANCH   1   7
BRANCH   4  26
ATOM     26  C   UNL     1      -6.277  -1.248 128.049  0.00  0.00    +0.000 C 
BRANCH  26  27
ATOM     27  C   UNL     1      -5.758  -2.368 128.975  0.00  0.00    +0.000 A 
ATOM     28  C   UNL     1      -6.571  -3.429 129.407  0.00  0.00    +0.000 A 
ATOM     29  C   UNL     1      -6.138  -4.282 130.417  0.00  0.00    +0.000 A 
ATOM     30  C   UNL     1      -4.867  -4.129 130.962  0.00  0.00    +0.000 A 
ATOM     31  C   UNL     1      -4.017  -3.132 130.495  0.00  0.00    +0.000 A 
ATOM     32  C   UNL     1      -4.447  -2.277 129.488  0.00  0.00    +0.000 A 
ENDBRANCH  26  27
BRANCH  26  33
ATOM     33  C   UNL     1      -6.469  -1.713 126.594  0.00  0.00    +0.000 A 
ATOM     34  C   UNL     1      -7.648  -2.319 126.141  0.00  0.00    +0.000 A 
ATOM     35  C   UNL     1      -7.755  -2.824 124.849  0.00  0.00    +0.000 A 
ATOM     36  C   UNL     1      -6.716  -2.652 123.944  0.00  0.00    +0.000 A 
ATOM     37  C   UNL     1      -5.534  -2.065 124.357  0.00  0.00    +0.000 A 
ATOM     38  C   UNL     1      -5.396  -1.676 125.682  0.00  0.00    +0.000 A 
ENDBRANCH  26  33
BRANCH  26  39
ATOM     39  O   UNL     1      -5.250  -0.268 127.876  0.00  0.00    +0.000 OA
ATOM     40  H   UNL     1      -4.409  -0.718 127.758  0.00  0.00    +0.000 HD
ENDBRANCH  26  39
ENDBRANCH   4  26
TORSDOF 13
ENDMDL
