MODEL 1
REMARK VINA RESULT:      -9.2      0.000      0.000
REMARK  Name = Filgotinib
REMARK  4 active torsions:
REMARK  status: ('A' for Active; 'I' for Inactive)
REMARK    1  A    between atoms: C_2  and  C_28
REMARK    2  A    between atoms: C_11  and  C_12
REMARK    3  A    between atoms: C_15  and  C_16
REMARK    4  A    between atoms: C_16  and  N_17
REMARK                            x       y       z     vdW  Elec       q    Type
REMARK                         _______ _______ _______ _____ _____    ______ ____
ROOT
ATOM      1  O   UNL     1     -11.826   6.021 128.882  0.00  0.00    +0.000 OA
ATOM      2  C   UNL     1     -11.405   7.129 129.182  0.00  0.00    +0.000 C 
ATOM      3  N   UNL     1     -10.504   7.404 130.200  0.00  0.00    +0.000 N 
ATOM      4  C   UNL     1      -9.945   6.368 130.914  0.00  0.00    +0.000 A 
ATOM      5  N   UNL     1      -9.467   5.285 130.327  0.00  0.00    +0.000 NA
ATOM      6  N   UNL     1      -9.002   4.555 131.356  0.00  0.00    +0.000 N 
ATOM      7  C   UNL     1      -9.313   5.190 132.552  0.00  0.00    +0.000 A 
ATOM      8  C   UNL     1      -9.033   4.461 133.754  0.00  0.00    +0.000 A 
ATOM      9  C   UNL     1      -8.541   3.204 133.687  0.00  0.00    +0.000 A 
ATOM     10  C   UNL     1      -8.206   2.598 132.411  0.00  0.00    +0.000 A 
ATOM     11  C   UNL     1      -8.326   3.341 131.285  0.00  0.00    +0.000 A 
ATOM     12  N   UNL     1      -9.764   6.405 132.277  0.00  0.00    +0.000 NA
ATOM     13  H   UNL     1     -10.351   8.329 130.557  0.00  0.00    +0.000 HD
ENDROOT
BRANCH  11  14
ATOM     14  C   UNL     1      -7.934   2.860 129.966  0.00  0.00    +0.000 A 
ATOM     15  C   UNL     1      -6.980   3.350 129.038  0.00  0.00    +0.000 A 
ATOM     16  C   UNL     1      -6.881   2.915 127.648  0.00  0.00    +0.000 A 
ATOM     17  C   UNL     1      -7.710   1.948 127.182  0.00  0.00    +0.000 A 
ATOM     18  C   UNL     1      -8.558   1.629 128.190  0.00  0.00    +0.000 A 
ATOM     19  C   UNL     1      -8.737   1.909 129.514  0.00  0.00    +0.000 A 
BRANCH  17  20
ATOM     20  C   UNL     1      -7.879   1.140 125.869  0.00  0.00    +0.000 C 
BRANCH  20  21
ATOM     21  N   UNL     1      -7.077  -0.168 125.646  0.00  0.00    +0.000 NA
ATOM     22  C   UNL     1      -6.682  -0.483 124.236  0.00  0.00    +0.000 C 
ATOM     23  C   UNL     1      -7.841  -0.765 123.299  0.00  0.00    +0.000 C 
ATOM     24  S   UNL     1      -8.635  -2.414 124.105  0.00  0.00    +0.000 S 
ATOM     25  O   UNL     1      -9.884  -2.655 123.440  0.00  0.00    +0.000 OA
ATOM     26  O   UNL     1      -7.643  -3.493 124.016  0.00  0.00    +0.000 OA
ATOM     27  C   UNL     1      -8.838  -1.990 126.152  0.00  0.00    +0.000 C 
ATOM     28  C   UNL     1      -7.468  -1.371 126.458  0.00  0.00    +0.000 C 
ENDBRANCH  20  21
ENDBRANCH  17  20
ENDBRANCH  11  14
BRANCH   2  29
ATOM     29  C   UNL     1     -11.960   8.318 128.441  0.00  0.00    +0.000 C 
ATOM     30  C   UNL     1     -13.441   8.349 128.099  0.00  0.00    +0.000 C 
ATOM     31  C   UNL     1     -12.917   9.256 129.171  0.00  0.00    +0.000 C 
ENDBRANCH   2  29
TORSDOF 4
ENDMDL
MODEL 2
REMARK VINA RESULT:      -8.9      1.807      2.132
REMARK  Name = Filgotinib
REMARK  4 active torsions:
REMARK  status: ('A' for Active; 'I' for Inactive)
REMARK    1  A    between atoms: C_2  and  C_28
REMARK    2  A    between atoms: C_11  and  C_12
REMARK    3  A    between atoms: C_15  and  C_16
REMARK    4  A    between atoms: C_16  and  N_17
REMARK                            x       y       z     vdW  Elec       q    Type
REMARK                         _______ _______ _______ _____ _____    ______ ____
ROOT
ATOM      1  O   UNL     1     -12.241   5.309 129.625  0.00  0.00    +0.000 OA
ATOM      2  C   UNL     1     -12.130   6.480 129.294  0.00  0.00    +0.000 C 
ATOM      3  N   UNL     1     -10.954   7.215 129.301  0.00  0.00    +0.000 N 
ATOM      4  C   UNL     1      -9.767   6.599 129.628  0.00  0.00    +0.000 A 
ATOM      5  N   UNL     1      -9.424   5.423 129.132  0.00  0.00    +0.000 NA
ATOM      6  N   UNL     1      -8.212   5.202 129.672  0.00  0.00    +0.000 N 
ATOM      7  C   UNL     1      -7.910   6.221 130.567  0.00  0.00    +0.000 A 
ATOM      8  C   UNL     1      -6.724   6.050 131.353  0.00  0.00    +0.000 A 
ATOM      9  C   UNL     1      -5.992   4.919 131.241  0.00  0.00    +0.000 A 
ATOM     10  C   UNL     1      -6.336   3.898 130.269  0.00  0.00    +0.000 A 
ATOM     11  C   UNL     1      -7.366   4.126 129.420  0.00  0.00    +0.000 A 
ATOM     12  N   UNL     1      -8.810   7.184 130.425  0.00  0.00    +0.000 NA
ATOM     13  H   UNL     1     -10.936   8.217 129.236  0.00  0.00    +0.000 HD
ENDROOT
BRANCH  11  14
ATOM     14  C   UNL     1      -7.738   3.207 128.351  0.00  0.00    +0.000 A 
ATOM     15  C   UNL     1      -8.479   1.999 128.373  0.00  0.00    +0.000 A 
ATOM     16  C   UNL     1      -8.551   1.054 127.262  0.00  0.00    +0.000 A 
ATOM     17  C   UNL     1      -7.914   1.331 126.097  0.00  0.00    +0.000 A 
ATOM     18  C   UNL     1      -7.246   2.496 126.274  0.00  0.00    +0.000 A 
ATOM     19  C   UNL     1      -7.126   3.483 127.210  0.00  0.00    +0.000 A 
BRANCH  17  20
ATOM     20  C   UNL     1      -7.812   0.696 124.686  0.00  0.00    +0.000 C 
BRANCH  20  21
ATOM     21  N   UNL     1      -6.598  -0.194 124.314  0.00  0.00    +0.000 NA
ATOM     22  C   UNL     1      -6.699  -0.971 123.038  0.00  0.00    +0.000 C 
ATOM     23  C   UNL     1      -7.776  -2.039 123.026  0.00  0.00    +0.000 C 
ATOM     24  S   UNL     1      -7.144  -3.281 124.461  0.00  0.00    +0.000 S 
ATOM     25  O   UNL     1      -8.201  -4.220 124.707  0.00  0.00    +0.000 OA
ATOM     26  O   UNL     1      -5.861  -3.857 124.038  0.00  0.00    +0.000 OA
ATOM     27  C   UNL     1      -6.706  -2.053 126.107  0.00  0.00    +0.000 C 
ATOM     28  C   UNL     1      -5.909  -0.930 125.429  0.00  0.00    +0.000 C 
ENDBRANCH  20  21
ENDBRANCH  17  20
ENDBRANCH  11  14
BRANCH   2  29
ATOM     29  C   UNL     1     -13.382   7.227 128.912  0.00  0.00    +0.000 C 
ATOM     30  C   UNL     1     -13.265   8.662 128.424  0.00  0.00    +0.000 C 
ATOM     31  C   UNL     1     -13.609   7.579 127.445  0.00  0.00    +0.000 C 
ENDBRANCH   2  29
TORSDOF 4
ENDMDL
MODEL 3
REMARK VINA RESULT:      -8.8      0.968      1.658
REMARK  Name = Filgotinib
REMARK  4 active torsions:
REMARK  status: ('A' for Active; 'I' for Inactive)
REMARK    1  A    between atoms: C_2  and  C_28
REMARK    2  A    between atoms: C_11  and  C_12
REMARK    3  A    between atoms: C_15  and  C_16
REMARK    4  A    between atoms: C_16  and  N_17
REMARK                            x       y       z     vdW  Elec       q    Type
REMARK                         _______ _______ _______ _____ _____    ______ ____
ROOT
ATOM      1  O   UNL     1     -12.260   5.441 129.384  0.00  0.00    +0.000 OA
ATOM      2  C   UNL     1     -12.117   6.603 129.735  0.00  0.00    +0.000 C 
ATOM      3  N   UNL     1     -11.258   7.048 130.729  0.00  0.00    +0.000 N 
ATOM      4  C   UNL     1     -10.415   6.156 131.351  0.00  0.00    +0.000 A 
ATOM      5  N   UNL     1      -9.713   5.262 130.677  0.00  0.00    +0.000 NA
ATOM      6  N   UNL     1      -9.020   4.625 131.637  0.00  0.00    +0.000 N 
ATOM      7  C   UNL     1      -9.412   5.097 132.883  0.00  0.00    +0.000 A 
ATOM      8  C   UNL     1      -8.887   4.405 134.023  0.00  0.00    +0.000 A 
ATOM      9  C   UNL     1      -8.098   3.321 133.856  0.00  0.00    +0.000 A 
ATOM     10  C   UNL     1      -7.695   2.886 132.531  0.00  0.00    +0.000 A 
ATOM     11  C   UNL     1      -8.064   3.629 131.461  0.00  0.00    +0.000 A 
ATOM     12  N   UNL     1     -10.171   6.169 132.705  0.00  0.00    +0.000 NA
ATOM     13  H   UNL     1     -11.324   7.963 131.137  0.00  0.00    +0.000 HD
ENDROOT
BRANCH  11  14
ATOM     14  C   UNL     1      -7.639   3.331 130.098  0.00  0.00    +0.000 A 
ATOM     15  C   UNL     1      -7.317   4.184 129.013  0.00  0.00    +0.000 A 
ATOM     16  C   UNL     1      -7.158   3.739 127.631  0.00  0.00    +0.000 A 
ATOM     17  C   UNL     1      -7.277   2.422 127.328  0.00  0.00    +0.000 A 
ATOM     18  C   UNL     1      -7.610   1.778 128.472  0.00  0.00    +0.000 A 
ATOM     19  C   UNL     1      -7.745   2.045 129.804  0.00  0.00    +0.000 A 
BRANCH  17  20
ATOM     20  C   UNL     1      -7.090   1.530 126.073  0.00  0.00    +0.000 C 
BRANCH  20  21
ATOM     21  N   UNL     1      -8.246   1.364 125.053  0.00  0.00    +0.000 NA
ATOM     22  C   UNL     1      -9.425   0.555 125.499  0.00  0.00    +0.000 C 
ATOM     23  C   UNL     1      -9.133  -0.912 125.752  0.00  0.00    +0.000 C 
ATOM     24  S   UNL     1      -8.595  -1.548 123.934  0.00  0.00    +0.000 S 
ATOM     25  O   UNL     1      -8.070  -2.875 124.085  0.00  0.00    +0.000 OA
ATOM     26  O   UNL     1      -9.751  -1.413 123.038  0.00  0.00    +0.000 OA
ATOM     27  C   UNL     1      -7.179  -0.154 123.253  0.00  0.00    +0.000 C 
ATOM     28  C   UNL     1      -7.876   1.167 123.609  0.00  0.00    +0.000 C 
ENDBRANCH  20  21
ENDBRANCH  17  20
ENDBRANCH  11  14
BRANCH   2  29
ATOM     29  C   UNL     1     -12.997   7.646 129.096  0.00  0.00    +0.000 C 
ATOM     30  C   UNL     1     -12.699   9.116 129.346  0.00  0.00    +0.000 C 
ATOM     31  C   UNL     1     -12.410   8.528 127.997  0.00  0.00    +0.000 C 
ENDBRANCH   2  29
TORSDOF 4
ENDMDL
MODEL 4
REMARK VINA RESULT:      -8.7      2.350      2.770
REMARK  Name = Filgotinib
REMARK  4 active torsions:
REMARK  status: ('A' for Active; 'I' for Inactive)
REMARK    1  A    between atoms: C_2  and  C_28
REMARK    2  A    between atoms: C_11  and  C_12
REMARK    3  A    between atoms: C_15  and  C_16
REMARK    4  A    between atoms: C_16  and  N_17
REMARK                            x       y       z     vdW  Elec       q    Type
REMARK                         _______ _______ _______ _____ _____    ______ ____
ROOT
ATOM      1  O   UNL     1     -12.110   5.263 129.472  0.00  0.00    +0.000 OA
ATOM      2  C   UNL     1     -11.909   6.450 129.686  0.00  0.00    +0.000 C 
ATOM      3  N   UNL     1     -11.017   6.966 130.614  0.00  0.00    +0.000 N 
ATOM      4  C   UNL     1     -10.208   6.113 131.329  0.00  0.00    +0.000 A 
ATOM      5  N   UNL     1      -9.557   5.115 130.758  0.00  0.00    +0.000 NA
ATOM      6  N   UNL     1      -8.880   4.562 131.780  0.00  0.00    +0.000 N 
ATOM      7  C   UNL     1      -9.234   5.193 132.965  0.00  0.00    +0.000 A 
ATOM      8  C   UNL     1      -8.726   4.613 134.174  0.00  0.00    +0.000 A 
ATOM      9  C   UNL     1      -7.990   3.482 134.127  0.00  0.00    +0.000 A 
ATOM     10  C   UNL     1      -7.624   2.878 132.859  0.00  0.00    +0.000 A 
ATOM     11  C   UNL     1      -7.973   3.508 131.713  0.00  0.00    +0.000 A 
ATOM     12  N   UNL     1      -9.945   6.272 132.670  0.00  0.00    +0.000 NA
ATOM     13  H   UNL     1     -11.036   7.924 130.914  0.00  0.00    +0.000 HD
ENDROOT
BRANCH  11  14
ATOM     14  C   UNL     1      -7.580   3.036 130.390  0.00  0.00    +0.000 A 
ATOM     15  C   UNL     1      -6.706   3.590 129.421  0.00  0.00    +0.000 A 
ATOM     16  C   UNL     1      -6.612   3.135 128.038  0.00  0.00    +0.000 A 
ATOM     17  C   UNL     1      -7.363   2.086 127.619  0.00  0.00    +0.000 A 
ATOM     18  C   UNL     1      -8.144   1.713 128.660  0.00  0.00    +0.000 A 
ATOM     19  C   UNL     1      -8.306   2.006 129.984  0.00  0.00    +0.000 A 
BRANCH  17  20
ATOM     20  C   UNL     1      -7.498   1.237 126.328  0.00  0.00    +0.000 C 
BRANCH  20  21
ATOM     21  N   UNL     1      -8.504   1.650 125.222  0.00  0.00    +0.000 NA
ATOM     22  C   UNL     1      -8.454   0.871 123.944  0.00  0.00    +0.000 C 
ATOM     23  C   UNL     1      -7.169   1.027 123.153  0.00  0.00    +0.000 C 
ATOM     24  S   UNL     1      -7.198   2.974 122.694  0.00  0.00    +0.000 S 
ATOM     25  O   UNL     1      -5.915   3.299 122.138  0.00  0.00    +0.000 OA
ATOM     26  O   UNL     1      -8.356   3.225 121.826  0.00  0.00    +0.000 OA
ATOM     27  C   UNL     1      -7.610   3.965 124.499  0.00  0.00    +0.000 C 
ATOM     28  C   UNL     1      -8.771   3.117 125.038  0.00  0.00    +0.000 C 
ENDBRANCH  20  21
ENDBRANCH  17  20
ENDBRANCH  11  14
BRANCH   2  29
ATOM     29  C   UNL     1     -12.748   7.452 128.936  0.00  0.00    +0.000 C 
ATOM     30  C   UNL     1     -12.328   8.914 128.937  0.00  0.00    +0.000 C 
ATOM     31  C   UNL     1     -12.169   8.105 127.684  0.00  0.00    +0.000 C 
ENDBRANCH   2  29
TORSDOF 4
ENDMDL
MODEL 5
REMARK VINA RESULT:      -8.4      6.204      8.752
REMARK  Name = Filgotinib
REMARK  4 active torsions:
REMARK  status: ('A' for Active; 'I' for Inactive)
REMARK    1  A    between atoms: C_2  and  C_28
REMARK    2  A    between atoms: C_11  and  C_12
REMARK    3  A    between atoms: C_15  and  C_16
REMARK    4  A    between atoms: C_16  and  N_17
REMARK                            x       y       z     vdW  Elec       q    Type
REMARK                         _______ _______ _______ _____ _____    ______ ____
ROOT
ATOM      1  O   UNL     1      -5.955   1.773 125.089  0.00  0.00    +0.000 OA
ATOM      2  C   UNL     1      -6.883   2.460 124.687  0.00  0.00    +0.000 C 
ATOM      3  N   UNL     1      -8.101   1.986 124.225  0.00  0.00    +0.000 N 
ATOM      4  C   UNL     1      -8.369   0.637 124.273  0.00  0.00    +0.000 A 
ATOM      5  N   UNL     1      -8.107  -0.096 125.341  0.00  0.00    +0.000 NA
ATOM      6  N   UNL     1      -8.535  -1.322 124.988  0.00  0.00    +0.000 N 
ATOM      7  C   UNL     1      -8.951  -1.303 123.663  0.00  0.00    +0.000 A 
ATOM      8  C   UNL     1      -9.283  -2.570 123.079  0.00  0.00    +0.000 A 
ATOM      9  C   UNL     1      -9.136  -3.706 123.795  0.00  0.00    +0.000 A 
ATOM     10  C   UNL     1      -8.725  -3.667 125.186  0.00  0.00    +0.000 A 
ATOM     11  C   UNL     1      -8.559  -2.463 125.783  0.00  0.00    +0.000 A 
ATOM     12  N   UNL     1      -9.000  -0.042 123.256  0.00  0.00    +0.000 NA
ATOM     13  H   UNL     1      -8.746   2.553 123.705  0.00  0.00    +0.000 HD
ENDROOT
BRANCH  11  14
ATOM     14  C   UNL     1      -8.234  -2.311 127.197  0.00  0.00    +0.000 A 
ATOM     15  C   UNL     1      -7.444  -1.349 127.876  0.00  0.00    +0.000 A 
ATOM     16  C   UNL     1      -6.999  -1.475 129.260  0.00  0.00    +0.000 A 
ATOM     17  C   UNL     1      -7.379  -2.549 129.997  0.00  0.00    +0.000 A 
ATOM     18  C   UNL     1      -8.095  -3.360 129.181  0.00  0.00    +0.000 A 
ATOM     19  C   UNL     1      -8.614  -3.354 127.919  0.00  0.00    +0.000 A 
BRANCH  17  20
ATOM     20  C   UNL     1      -7.237  -3.018 131.469  0.00  0.00    +0.000 C 
BRANCH  20  21
ATOM     21  N   UNL     1      -6.285  -4.187 131.829  0.00  0.00    +0.000 NA
ATOM     22  C   UNL     1      -5.893  -4.316 133.269  0.00  0.00    +0.000 C 
ATOM     23  C   UNL     1      -5.058  -3.170 133.807  0.00  0.00    +0.000 C 
ATOM     24  S   UNL     1      -3.400  -3.307 132.697  0.00  0.00    +0.000 S 
ATOM     25  O   UNL     1      -2.618  -2.130 132.952  0.00  0.00    +0.000 OA
ATOM     26  O   UNL     1      -2.749  -4.588 133.000  0.00  0.00    +0.000 OA
ATOM     27  C   UNL     1      -4.070  -3.461 130.713  0.00  0.00    +0.000 C 
ATOM     28  C   UNL     1      -5.181  -4.509 130.861  0.00  0.00    +0.000 C 
ENDBRANCH  20  21
ENDBRANCH  17  20
ENDBRANCH  11  14
BRANCH   2  29
ATOM     29  C   UNL     1      -6.674   3.951 124.612  0.00  0.00    +0.000 C 
ATOM     30  C   UNL     1      -5.389   4.545 125.166  0.00  0.00    +0.000 C 
ATOM     31  C   UNL     1      -5.594   4.495 123.681  0.00  0.00    +0.000 C 
ENDBRANCH   2  29
TORSDOF 4
ENDMDL
MODEL 6
REMARK VINA RESULT:      -8.4      3.281      4.941
REMARK  Name = Filgotinib
REMARK  4 active torsions:
REMARK  status: ('A' for Active; 'I' for Inactive)
REMARK    1  A    between atoms: C_2  and  C_28
REMARK    2  A    between atoms: C_11  and  C_12
REMARK    3  A    between atoms: C_15  and  C_16
REMARK    4  A    between atoms: C_16  and  N_17
REMARK                            x       y       z     vdW  Elec       q    Type
REMARK                         _______ _______ _______ _____ _____    ______ ____
ROOT
ATOM      1  O   UNL     1      -7.020   3.178 131.432  0.00  0.00    +0.000 OA
ATOM      2  C   UNL     1      -7.727   4.171 131.524  0.00  0.00    +0.000 C 
ATOM      3  N   UNL     1      -7.409   5.437 131.057  0.00  0.00    +0.000 N 
ATOM      4  C   UNL     1      -6.243   5.631 130.353  0.00  0.00    +0.000 A 
ATOM      5  N   UNL     1      -5.856   4.811 129.390  0.00  0.00    +0.000 NA
ATOM      6  N   UNL     1      -4.709   5.363 128.957  0.00  0.00    +0.000 N 
ATOM      7  C   UNL     1      -4.389   6.454 129.754  0.00  0.00    +0.000 A 
ATOM      8  C   UNL     1      -3.108   7.056 129.528  0.00  0.00    +0.000 A 
ATOM      9  C   UNL     1      -2.261   6.529 128.617  0.00  0.00    +0.000 A 
ATOM     10  C   UNL     1      -2.657   5.405 127.789  0.00  0.00    +0.000 A 
ATOM     11  C   UNL     1      -3.921   4.932 127.893  0.00  0.00    +0.000 A 
ATOM     12  N   UNL     1      -5.427   6.725 130.531  0.00  0.00    +0.000 NA
ATOM     13  H   UNL     1      -7.905   6.263 131.339  0.00  0.00    +0.000 HD
ENDROOT
BRANCH  11  14
ATOM     14  C   UNL     1      -4.448   3.867 127.048  0.00  0.00    +0.000 A 
ATOM     15  C   UNL     1      -5.459   3.875 126.055  0.00  0.00    +0.000 A 
ATOM     16  C   UNL     1      -6.057   2.676 125.475  0.00  0.00    +0.000 A 
ATOM     17  C   UNL     1      -5.615   1.451 125.852  0.00  0.00    +0.000 A 
ATOM     18  C   UNL     1      -4.682   1.642 126.815  0.00  0.00    +0.000 A 
ATOM     19  C   UNL     1      -4.009   2.671 127.409  0.00  0.00    +0.000 A 
BRANCH  17  20
ATOM     20  C   UNL     1      -5.875  -0.021 125.438  0.00  0.00    +0.000 C 
BRANCH  20  21
ATOM     21  N   UNL     1      -6.819  -0.345 124.251  0.00  0.00    +0.000 NA
ATOM     22  C   UNL     1      -8.244   0.095 124.386  0.00  0.00    +0.000 C 
ATOM     23  C   UNL     1      -9.022  -0.596 125.491  0.00  0.00    +0.000 C 
ATOM     24  S   UNL     1      -9.014  -2.499 124.875  0.00  0.00    +0.000 S 
ATOM     25  O   UNL     1      -9.525  -3.297 125.953  0.00  0.00    +0.000 OA
ATOM     26  O   UNL     1      -9.759  -2.577 123.612  0.00  0.00    +0.000 OA
ATOM     27  C   UNL     1      -7.016  -2.918 124.388  0.00  0.00    +0.000 C 
ATOM     28  C   UNL     1      -6.648  -1.673 123.569  0.00  0.00    +0.000 C 
ENDBRANCH  20  21
ENDBRANCH  17  20
ENDBRANCH  11  14
BRANCH   2  29
ATOM     29  C   UNL     1      -9.028   4.043 132.274  0.00  0.00    +0.000 C 
ATOM     30  C   UNL     1      -9.375   2.716 132.929  0.00  0.00    +0.000 C 
ATOM     31  C   UNL     1      -8.989   3.880 133.791  0.00  0.00    +0.000 C 
ENDBRANCH   2  29
TORSDOF 4
ENDMDL
MODEL 7
REMARK VINA RESULT:      -8.3      4.330      5.809
REMARK  Name = Filgotinib
REMARK  4 active torsions:
REMARK  status: ('A' for Active; 'I' for Inactive)
REMARK    1  A    between atoms: C_2  and  C_28
REMARK    2  A    between atoms: C_11  and  C_12
REMARK    3  A    between atoms: C_15  and  C_16
REMARK    4  A    between atoms: C_16  and  N_17
REMARK                            x       y       z     vdW  Elec       q    Type
REMARK                         _______ _______ _______ _____ _____    ______ ____
ROOT
ATOM      1  O   UNL     1      -5.096   5.718 129.068  0.00  0.00    +0.000 OA
ATOM      2  C   UNL     1      -4.838   6.305 130.109  0.00  0.00    +0.000 C 
ATOM      3  N   UNL     1      -5.739   6.588 131.124  0.00  0.00    +0.000 N 
ATOM      4  C   UNL     1      -7.031   6.123 131.037  0.00  0.00    +0.000 A 
ATOM      5  N   UNL     1      -7.311   4.882 130.676  0.00  0.00    +0.000 NA
ATOM      6  N   UNL     1      -8.653   4.835 130.744  0.00  0.00    +0.000 N 
ATOM      7  C   UNL     1      -9.146   6.097 131.049  0.00  0.00    +0.000 A 
ATOM      8  C   UNL     1     -10.570   6.257 130.997  0.00  0.00    +0.000 A 
ATOM      9  C   UNL     1     -11.355   5.226 130.615  0.00  0.00    +0.000 A 
ATOM     10  C   UNL     1     -10.790   3.918 130.335  0.00  0.00    +0.000 A 
ATOM     11  C   UNL     1      -9.465   3.725 130.532  0.00  0.00    +0.000 A 
ATOM     12  N   UNL     1      -8.128   6.874 131.391  0.00  0.00    +0.000 NA
ATOM     13  H   UNL     1      -5.550   7.253 131.852  0.00  0.00    +0.000 HD
ENDROOT
BRANCH  11  14
ATOM     14  C   UNL     1      -8.813   2.431 130.367  0.00  0.00    +0.000 A 
ATOM     15  C   UNL     1      -8.186   1.837 129.243  0.00  0.00    +0.000 A 
ATOM     16  C   UNL     1      -7.807   0.430 129.156  0.00  0.00    +0.000 A 
ATOM     17  C   UNL     1      -8.011  -0.391 130.216  0.00  0.00    +0.000 A 
ATOM     18  C   UNL     1      -8.636   0.338 131.171  0.00  0.00    +0.000 A 
ATOM     19  C   UNL     1      -9.003   1.632 131.405  0.00  0.00    +0.000 A 
BRANCH  17  20
ATOM     20  C   UNL     1      -7.680  -1.860 130.588  0.00  0.00    +0.000 C 
BRANCH  20  21
ATOM     21  N   UNL     1      -6.502  -2.178 131.546  0.00  0.00    +0.000 NA
ATOM     22  C   UNL     1      -5.264  -1.350 131.386  0.00  0.00    +0.000 C 
ATOM     23  C   UNL     1      -4.540  -1.536 130.066  0.00  0.00    +0.000 C 
ATOM     24  S   UNL     1      -3.996  -3.458 130.158  0.00  0.00    +0.000 S 
ATOM     25  O   UNL     1      -3.498  -3.823 128.862  0.00  0.00    +0.000 OA
ATOM     26  O   UNL     1      -3.054  -3.617 131.273  0.00  0.00    +0.000 OA
ATOM     27  C   UNL     1      -5.729  -4.501 130.720  0.00  0.00    +0.000 C 
ATOM     28  C   UNL     1      -6.239  -3.621 131.869  0.00  0.00    +0.000 C 
ENDBRANCH  20  21
ENDBRANCH  17  20
ENDBRANCH  11  14
BRANCH   2  29
ATOM     29  C   UNL     1      -3.440   6.841 130.288  0.00  0.00    +0.000 C 
ATOM     30  C   UNL     1      -2.983   7.259 131.676  0.00  0.00    +0.000 C 
ATOM     31  C   UNL     1      -2.429   6.006 131.068  0.00  0.00    +0.000 C 
ENDBRANCH   2  29
TORSDOF 4
ENDMDL
MODEL 8
REMARK VINA RESULT:      -8.3      4.502      6.546
REMARK  Name = Filgotinib
REMARK  4 active torsions:
REMARK  status: ('A' for Active; 'I' for Inactive)
REMARK    1  A    between atoms: C_2  and  C_28
REMARK    2  A    between atoms: C_11  and  C_12
REMARK    3  A    between atoms: C_15  and  C_16
REMARK    4  A    between atoms: C_16  and  N_17
REMARK                            x       y       z     vdW  Elec       q    Type
REMARK                         _______ _______ _______ _____ _____    ______ ____
ROOT
ATOM      1  O   UNL     1      -8.700   0.801 132.371  0.00  0.00    +0.000 OA
ATOM      2  C   UNL     1      -7.718   1.509 132.540  0.00  0.00    +0.000 C 
ATOM      3  N   UNL     1      -6.403   1.073 132.581  0.00  0.00    +0.000 N 
ATOM      4  C   UNL     1      -6.116  -0.251 132.337  0.00  0.00    +0.000 A 
ATOM      5  N   UNL     1      -6.660  -0.916 131.333  0.00  0.00    +0.000 NA
ATOM      6  N   UNL     1      -6.106  -2.138 131.436  0.00  0.00    +0.000 N 
ATOM      7  C   UNL     1      -5.314  -2.193 132.576  0.00  0.00    +0.000 A 
ATOM      8  C   UNL     1      -4.782  -3.478 132.922  0.00  0.00    +0.000 A 
ATOM      9  C   UNL     1      -5.098  -4.565 132.185  0.00  0.00    +0.000 A 
ATOM     10  C   UNL     1      -5.906  -4.447 130.985  0.00  0.00    +0.000 A 
ATOM     11  C   UNL     1      -6.282  -3.214 130.571  0.00  0.00    +0.000 A 
ATOM     12  N   UNL     1      -5.189  -0.966 133.060  0.00  0.00    +0.000 NA
ATOM     13  H   UNL     1      -5.651   1.637 132.935  0.00  0.00    +0.000 HD
ENDROOT
BRANCH  11  14
ATOM     14  C   UNL     1      -7.018  -2.976 129.335  0.00  0.00    +0.000 A 
ATOM     15  C   UNL     1      -8.287  -3.433 128.900  0.00  0.00    +0.000 A 
ATOM     16  C   UNL     1      -8.780  -3.323 127.530  0.00  0.00    +0.000 A 
ATOM     17  C   UNL     1      -8.021  -2.710 126.587  0.00  0.00    +0.000 A 
ATOM     18  C   UNL     1      -6.850  -2.371 127.175  0.00  0.00    +0.000 A 
ATOM     19  C   UNL     1      -6.282  -2.369 128.417  0.00  0.00    +0.000 A 
BRANCH  17  20
ATOM     20  C   UNL     1      -8.184  -2.292 125.102  0.00  0.00    +0.000 C 
BRANCH  20  21
ATOM     21  N   UNL     1      -9.112  -1.109 124.720  0.00  0.00    +0.000 NA
ATOM     22  C   UNL     1      -8.869  -0.468 123.388  0.00  0.00    +0.000 C 
ATOM     23  C   UNL     1      -7.533   0.238 123.256  0.00  0.00    +0.000 C 
ATOM     24  S   UNL     1      -7.692   1.688 124.624  0.00  0.00    +0.000 S 
ATOM     25  O   UNL     1      -6.397   2.291 124.759  0.00  0.00    +0.000 OA
ATOM     26  O   UNL     1      -8.779   2.588 124.216  0.00  0.00    +0.000 OA
ATOM     27  C   UNL     1      -8.364   0.735 126.370  0.00  0.00    +0.000 C 
ATOM     28  C   UNL     1      -9.490  -0.143 125.807  0.00  0.00    +0.000 C 
ENDBRANCH  20  21
ENDBRANCH  17  20
ENDBRANCH  11  14
BRANCH   2  29
ATOM     29  C   UNL     1      -7.944   2.976 132.805  0.00  0.00    +0.000 C 
ATOM     30  C   UNL     1      -9.149   3.400 133.629  0.00  0.00    +0.000 C 
ATOM     31  C   UNL     1      -7.778   3.499 134.229  0.00  0.00    +0.000 C 
ENDBRANCH   2  29
TORSDOF 4
ENDMDL
MODEL 9
REMARK VINA RESULT:      -8.2      5.406      8.315
REMARK  Name = Filgotinib
REMARK  4 active torsions:
REMARK  status: ('A' for Active; 'I' for Inactive)
REMARK    1  A    between atoms: C_2  and  C_28
REMARK    2  A    between atoms: C_11  and  C_12
REMARK    3  A    between atoms: C_15  and  C_16
REMARK    4  A    between atoms: C_16  and  N_17
REMARK                            x       y       z     vdW  Elec       q    Type
REMARK                         _______ _______ _______ _____ _____    ______ ____
ROOT
ATOM      1  O   UNL     1      -5.706   1.698 125.690  0.00  0.00    +0.000 OA
ATOM      2  C   UNL     1      -6.666   2.448 125.586  0.00  0.00    +0.000 C 
ATOM      3  N   UNL     1      -7.940   2.081 125.178  0.00  0.00    +0.000 N 
ATOM      4  C   UNL     1      -8.221   0.757 124.931  0.00  0.00    +0.000 A 
ATOM      5  N   UNL     1      -7.840  -0.209 125.748  0.00  0.00    +0.000 NA
ATOM      6  N   UNL     1      -8.327  -1.318 125.165  0.00  0.00    +0.000 N 
ATOM      7  C   UNL     1      -8.905  -0.986 123.946  0.00  0.00    +0.000 A 
ATOM      8  C   UNL     1      -9.327  -2.078 123.120  0.00  0.00    +0.000 A 
ATOM      9  C   UNL     1      -9.109  -3.352 123.514  0.00  0.00    +0.000 A 
ATOM     10  C   UNL     1      -8.527  -3.645 124.811  0.00  0.00    +0.000 A 
ATOM     11  C   UNL     1      -8.269  -2.619 125.657  0.00  0.00    +0.000 A 
ATOM     12  N   UNL     1      -8.984   0.335 123.866  0.00  0.00    +0.000 NA
ATOM     13  H   UNL     1      -8.636   2.748 124.896  0.00  0.00    +0.000 HD
ENDROOT
BRANCH  11  14
ATOM     14  C   UNL     1      -7.769  -2.809 127.013  0.00  0.00    +0.000 A 
ATOM     15  C   UNL     1      -8.447  -3.061 128.232  0.00  0.00    +0.000 A 
ATOM     16  C   UNL     1      -7.831  -2.970 129.553  0.00  0.00    +0.000 A 
ATOM     17  C   UNL     1      -6.514  -2.668 129.665  0.00  0.00    +0.000 A 
ATOM     18  C   UNL     1      -6.049  -2.436 128.414  0.00  0.00    +0.000 A 
ATOM     19  C   UNL     1      -6.481  -2.524 127.122  0.00  0.00    +0.000 A 
BRANCH  17  20
ATOM     20  C   UNL     1      -5.468  -2.575 130.807  0.00  0.00    +0.000 C 
BRANCH  20  21
ATOM     21  N   UNL     1      -5.432  -1.334 131.736  0.00  0.00    +0.000 NA
ATOM     22  C   UNL     1      -6.137  -1.458 133.052  0.00  0.00    +0.000 C 
ATOM     23  C   UNL     1      -7.641  -1.626 132.955  0.00  0.00    +0.000 C 
ATOM     24  S   UNL     1      -8.198   0.100 132.112  0.00  0.00    +0.000 S 
ATOM     25  O   UNL     1      -9.583  -0.027 131.755  0.00  0.00    +0.000 OA
ATOM     26  O   UNL     1      -7.873   1.192 133.040  0.00  0.00    +0.000 OA
ATOM     27  C   UNL     1      -6.922   0.352 130.463  0.00  0.00    +0.000 C 
ATOM     28  C   UNL     1      -5.563   0.019 131.094  0.00  0.00    +0.000 C 
ENDBRANCH  20  21
ENDBRANCH  17  20
ENDBRANCH  11  14
BRANCH   2  29
ATOM     29  C   UNL     1      -6.446   3.916 125.849  0.00  0.00    +0.000 C 
ATOM     30  C   UNL     1      -5.023   4.448 125.912  0.00  0.00    +0.000 C 
ATOM     31  C   UNL     1      -5.881   4.785 124.729  0.00  0.00    +0.000 C 
ENDBRANCH   2  29
TORSDOF 4
ENDMDL
