MODEL 1
REMARK VINA RESULT:      -8.7      0.000      0.000
REMARK  Name = Finasteride
REMARK  7 active torsions:
REMARK  status: ('A' for Active; 'I' for Inactive)
REMARK    1  A    between atoms: C_5  and  C_6
REMARK    2  A    between atoms: N_8  and  C_9
REMARK    3  A    between atoms: C_9  and  C_10
REMARK    4  A    between atoms: C_9  and  C_11
REMARK    5  A    between atoms: C_9  and  C_12
REMARK    6  A    between atoms: C_13  and  C_14
REMARK    7  A    between atoms: C_30  and  C_31
REMARK                            x       y       z     vdW  Elec       q    Type
REMARK                         _______ _______ _______ _____ _____    ______ ____
ROOT
ATOM      1  C   UNL     1      -7.936  -3.146 129.775  0.00  0.00    +0.000 C 
ATOM      2  C   UNL     1      -6.786  -3.973 129.611  0.00  0.00    +0.000 C 
ATOM      3  C   UNL     1      -6.477  -2.525 129.346  0.00  0.00    +0.000 C 
ATOM      4  C   UNL     1      -7.888  -1.166 129.998  0.00  0.00    +0.000 C 
ATOM      5  C   UNL     1      -6.976  -1.854 130.702  0.00  0.00    +0.000 C 
ATOM      6  C   UNL     1      -6.764  -2.232 132.112  0.00  0.00    +0.000 C 
ATOM      7  C   UNL     1      -6.002  -0.531 129.785  0.00  0.00    +0.000 C 
ATOM      8  C   UNL     1      -6.739  -0.238 128.237  0.00  0.00    +0.000 C 
ATOM      9  C   UNL     1      -7.368  -1.522 127.363  0.00  0.00    +0.000 C 
ATOM     10  C   UNL     1      -8.443  -2.551 128.138  0.00  0.00    +0.000 C 
ATOM     11  C   UNL     1      -8.732  -3.763 127.278  0.00  0.00    +0.000 C 
ATOM     12  C   UNL     1      -9.170  -3.373 125.885  0.00  0.00    +0.000 C 
ATOM     13  C   UNL     1      -8.198  -2.477 125.125  0.00  0.00    +0.000 C 
ATOM     14  N   UNL     1      -7.094  -3.237 124.546  0.00  0.00    +0.000 N 
ATOM     15  C   UNL     1      -6.276  -2.332 123.864  0.00  0.00    +0.000 C 
ATOM     16  O   UNL     1      -6.556  -1.748 122.824  0.00  0.00    +0.000 OA
ATOM     17  C   UNL     1      -5.225  -1.726 124.777  0.00  0.00    +0.000 C 
ATOM     18  C   UNL     1      -6.181  -0.893 125.311  0.00  0.00    +0.000 C 
ATOM     19  C   UNL     1      -7.686  -1.216 125.913  0.00  0.00    +0.000 C 
ATOM     20  C   UNL     1      -8.905  -0.255 126.091  0.00  0.00    +0.000 C 
ATOM     21  H   UNL     1      -6.630  -3.822 125.232  0.00  0.00    +0.000 HD
ENDROOT
BRANCH   4  22
ATOM     22  C   UNL     1      -8.047   0.233 131.228  0.00  0.00    +0.000 C 
ATOM     23  O   UNL     1      -8.827   0.107 132.183  0.00  0.00    +0.000 OA
ATOM     24  N   UNL     1      -7.384   1.504 131.274  0.00  0.00    +0.000 N 
ATOM     25  H   UNL     1      -6.897   1.917 130.487  0.00  0.00    +0.000 HD
BRANCH  24  26
ATOM     26  C   UNL     1      -7.543   2.477 132.542  0.00  0.00    +0.000 C 
ATOM     27  C   UNL     1      -6.813   1.975 133.820  0.00  0.00    +0.000 C 
ATOM     28  C   UNL     1      -6.978   3.863 132.165  0.00  0.00    +0.000 C 
ATOM     29  C   UNL     1      -9.010   2.760 133.029  0.00  0.00    +0.000 C 
ENDBRANCH  24  26
ENDBRANCH   4  22
TORSDOF 2
ENDMDL
MODEL 2
REMARK VINA RESULT:      -8.6      6.398      9.298
REMARK  Name = Finasteride
REMARK  7 active torsions:
REMARK  status: ('A' for Active; 'I' for Inactive)
REMARK    1  A    between atoms: C_5  and  C_6
REMARK    2  A    between atoms: N_8  and  C_9
REMARK    3  A    between atoms: C_9  and  C_10
REMARK    4  A    between atoms: C_9  and  C_11
REMARK    5  A    between atoms: C_9  and  C_12
REMARK    6  A    between atoms: C_13  and  C_14
REMARK    7  A    between atoms: C_30  and  C_31
REMARK                            x       y       z     vdW  Elec       q    Type
REMARK                         _______ _______ _______ _____ _____    ______ ____
ROOT
ATOM      1  C   UNL     1      -8.606   2.886 131.062  0.00  0.00    +0.000 C 
ATOM      2  C   UNL     1      -9.144   2.154 132.162  0.00  0.00    +0.000 C 
ATOM      3  C   UNL     1      -9.238   3.640 132.379  0.00  0.00    +0.000 C 
ATOM      4  C   UNL     1      -8.952   4.817 130.706  0.00  0.00    +0.000 C 
ATOM      5  C   UNL     1     -10.021   4.090 131.067  0.00  0.00    +0.000 C 
ATOM      6  C   UNL     1     -11.218   3.536 130.408  0.00  0.00    +0.000 C 
ATOM      7  C   UNL     1     -10.018   5.579 132.219  0.00  0.00    +0.000 C 
ATOM      8  C   UNL     1      -8.378   6.039 132.566  0.00  0.00    +0.000 C 
ATOM      9  C   UNL     1      -7.213   4.853 132.785  0.00  0.00    +0.000 C 
ATOM     10  C   UNL     1      -7.063   3.669 131.604  0.00  0.00    +0.000 C 
ATOM     11  C   UNL     1      -6.129   2.572 132.068  0.00  0.00    +0.000 C 
ATOM     12  C   UNL     1      -4.804   3.124 132.540  0.00  0.00    +0.000 C 
ATOM     13  C   UNL     1      -4.890   4.168 133.648  0.00  0.00    +0.000 C 
ATOM     14  N   UNL     1      -5.083   3.556 134.959  0.00  0.00    +0.000 N 
ATOM     15  C   UNL     1      -5.134   4.590 135.899  0.00  0.00    +0.000 C 
ATOM     16  O   UNL     1      -4.195   5.294 136.250  0.00  0.00    +0.000 OA
ATOM     17  C   UNL     1      -6.545   5.124 136.071  0.00  0.00    +0.000 C 
ATOM     18  C   UNL     1      -6.417   5.821 134.892  0.00  0.00    +0.000 C 
ATOM     19  C   UNL     1      -5.913   5.336 133.395  0.00  0.00    +0.000 C 
ATOM     20  C   UNL     1      -5.353   6.194 132.216  0.00  0.00    +0.000 C 
ATOM     21  H   UNL     1      -5.863   2.910 134.971  0.00  0.00    +0.000 HD
ENDROOT
BRANCH   4  22
ATOM     22  C   UNL     1      -9.904   6.023 129.643  0.00  0.00    +0.000 C 
ATOM     23  O   UNL     1      -9.667   6.068 128.427  0.00  0.00    +0.000 OA
ATOM     24  N   UNL     1     -10.928   6.963 129.999  0.00  0.00    +0.000 N 
ATOM     25  H   UNL     1     -11.110   7.267 130.948  0.00  0.00    +0.000 HD
BRANCH  24  26
ATOM     26  C   UNL     1     -11.740   7.769 128.873  0.00  0.00    +0.000 C 
ATOM     27  C   UNL     1     -12.758   6.900 128.082  0.00  0.00    +0.000 C 
ATOM     28  C   UNL     1     -12.507   8.921 129.559  0.00  0.00    +0.000 C 
ATOM     29  C   UNL     1     -10.885   8.466 127.754  0.00  0.00    +0.000 C 
ENDBRANCH  24  26
ENDBRANCH   4  22
TORSDOF 2
ENDMDL
MODEL 3
REMARK VINA RESULT:      -8.5      6.184      8.975
REMARK  Name = Finasteride
REMARK  7 active torsions:
REMARK  status: ('A' for Active; 'I' for Inactive)
REMARK    1  A    between atoms: C_5  and  C_6
REMARK    2  A    between atoms: N_8  and  C_9
REMARK    3  A    between atoms: C_9  and  C_10
REMARK    4  A    between atoms: C_9  and  C_11
REMARK    5  A    between atoms: C_9  and  C_12
REMARK    6  A    between atoms: C_13  and  C_14
REMARK    7  A    between atoms: C_30  and  C_31
REMARK                            x       y       z     vdW  Elec       q    Type
REMARK                         _______ _______ _______ _____ _____    ______ ____
ROOT
ATOM      1  C   UNL     1      -7.489   3.284 130.134  0.00  0.00    +0.000 C 
ATOM      2  C   UNL     1      -7.519   2.437 131.281  0.00  0.00    +0.000 C 
ATOM      3  C   UNL     1      -7.780   3.875 131.640  0.00  0.00    +0.000 C 
ATOM      4  C   UNL     1      -8.240   5.130 130.066  0.00  0.00    +0.000 C 
ATOM      5  C   UNL     1      -9.004   4.212 130.678  0.00  0.00    +0.000 C 
ATOM      6  C   UNL     1     -10.242   3.467 130.378  0.00  0.00    +0.000 C 
ATOM      7  C   UNL     1      -8.876   5.644 131.892  0.00  0.00    +0.000 C 
ATOM      8  C   UNL     1      -7.310   6.384 131.752  0.00  0.00    +0.000 C 
ATOM      9  C   UNL     1      -5.959   5.423 131.498  0.00  0.00    +0.000 C 
ATOM     10  C   UNL     1      -6.003   4.320 130.235  0.00  0.00    +0.000 C 
ATOM     11  C   UNL     1      -4.804   3.398 130.293  0.00  0.00    +0.000 C 
ATOM     12  C   UNL     1      -3.506   4.167 130.375  0.00  0.00    +0.000 C 
ATOM     13  C   UNL     1      -3.403   5.147 131.538  0.00  0.00    +0.000 C 
ATOM     14  N   UNL     1      -3.064   4.476 132.789  0.00  0.00    +0.000 N 
ATOM     15  C   UNL     1      -2.980   5.456 133.781  0.00  0.00    +0.000 C 
ATOM     16  O   UNL     1      -2.106   6.310 133.881  0.00  0.00    +0.000 OA
ATOM     17  C   UNL     1      -4.328   5.720 134.426  0.00  0.00    +0.000 C 
ATOM     18  C   UNL     1      -4.700   6.461 133.329  0.00  0.00    +0.000 C 
ATOM     19  C   UNL     1      -4.629   6.118 131.714  0.00  0.00    +0.000 C 
ATOM     20  C   UNL     1      -4.623   7.095 130.495  0.00  0.00    +0.000 C 
ATOM     21  H   UNL     1      -3.683   3.698 132.987  0.00  0.00    +0.000 HD
ENDROOT
BRANCH   4  22
ATOM     22  C   UNL     1      -9.666   6.172 129.454  0.00  0.00    +0.000 C 
ATOM     23  O   UNL     1      -9.882   6.239 128.235  0.00  0.00    +0.000 OA
ATOM     24  N   UNL     1     -10.620   6.955 130.186  0.00  0.00    +0.000 N 
ATOM     25  H   UNL     1     -10.498   7.239 131.150  0.00  0.00    +0.000 HD
BRANCH  24  26
ATOM     26  C   UNL     1     -11.883   7.622 129.450  0.00  0.00    +0.000 C 
ATOM     27  C   UNL     1     -12.829   6.597 128.763  0.00  0.00    +0.000 C 
ATOM     28  C   UNL     1     -12.693   8.413 130.499  0.00  0.00    +0.000 C 
ATOM     29  C   UNL     1     -11.565   8.664 128.318  0.00  0.00    +0.000 C 
ENDBRANCH  24  26
ENDBRANCH   4  22
TORSDOF 2
ENDMDL
MODEL 4
REMARK VINA RESULT:      -8.4      2.596      6.897
REMARK  Name = Finasteride
REMARK  7 active torsions:
REMARK  status: ('A' for Active; 'I' for Inactive)
REMARK    1  A    between atoms: C_5  and  C_6
REMARK    2  A    between atoms: N_8  and  C_9
REMARK    3  A    between atoms: C_9  and  C_10
REMARK    4  A    between atoms: C_9  and  C_11
REMARK    5  A    between atoms: C_9  and  C_12
REMARK    6  A    between atoms: C_13  and  C_14
REMARK    7  A    between atoms: C_30  and  C_31
REMARK                            x       y       z     vdW  Elec       q    Type
REMARK                         _______ _______ _______ _____ _____    ______ ____
ROOT
ATOM      1  C   UNL     1      -8.292  -0.026 129.542  0.00  0.00    +0.000 C 
ATOM      2  C   UNL     1      -7.495   1.077 129.971  0.00  0.00    +0.000 C 
ATOM      3  C   UNL     1      -6.741   0.170 129.037  0.00  0.00    +0.000 C 
ATOM      4  C   UNL     1      -7.882  -1.178 127.968  0.00  0.00    +0.000 C 
ATOM      5  C   UNL     1      -7.721   0.141 127.782  0.00  0.00    +0.000 C 
ATOM      6  C   UNL     1      -8.429   1.224 127.074  0.00  0.00    +0.000 C 
ATOM      7  C   UNL     1      -6.108  -0.644 127.212  0.00  0.00    +0.000 C 
ATOM      8  C   UNL     1      -5.762  -2.035 128.195  0.00  0.00    +0.000 C 
ATOM      9  C   UNL     1      -6.097  -1.993 129.837  0.00  0.00    +0.000 C 
ATOM     10  C   UNL     1      -7.638  -1.530 130.314  0.00  0.00    +0.000 C 
ATOM     11  C   UNL     1      -7.694  -1.339 131.815  0.00  0.00    +0.000 C 
ATOM     12  C   UNL     1      -7.171  -2.547 132.556  0.00  0.00    +0.000 C 
ATOM     13  C   UNL     1      -5.754  -2.974 132.189  0.00  0.00    +0.000 C 
ATOM     14  N   UNL     1      -4.747  -2.152 132.853  0.00  0.00    +0.000 N 
ATOM     15  C   UNL     1      -3.493  -2.631 132.464  0.00  0.00    +0.000 C 
ATOM     16  O   UNL     1      -2.993  -3.698 132.797  0.00  0.00    +0.000 OA
ATOM     17  C   UNL     1      -3.014  -1.973 131.182  0.00  0.00    +0.000 C 
ATOM     18  C   UNL     1      -3.860  -2.781 130.460  0.00  0.00    +0.000 C 
ATOM     19  C   UNL     1      -5.469  -3.109 130.648  0.00  0.00    +0.000 C 
ATOM     20  C   UNL     1      -6.295  -4.330 130.130  0.00  0.00    +0.000 C 
ATOM     21  H   UNL     1      -4.906  -1.161 132.711  0.00  0.00    +0.000 HD
ENDROOT
BRANCH   4  22
ATOM     22  C   UNL     1      -8.340  -1.555 126.196  0.00  0.00    +0.000 C 
ATOM     23  O   UNL     1      -9.528  -1.776 125.916  0.00  0.00    +0.000 OA
ATOM     24  N   UNL     1      -7.516  -1.636 125.024  0.00  0.00    +0.000 N 
ATOM     25  H   UNL     1      -6.508  -1.729 125.048  0.00  0.00    +0.000 HD
BRANCH  24  26
ATOM     26  C   UNL     1      -8.166  -1.791 123.563  0.00  0.00    +0.000 C 
ATOM     27  C   UNL     1      -9.082  -0.605 123.149  0.00  0.00    +0.000 C 
ATOM     28  C   UNL     1      -7.021  -1.911 122.533  0.00  0.00    +0.000 C 
ATOM     29  C   UNL     1      -9.057  -3.062 123.323  0.00  0.00    +0.000 C 
ENDBRANCH  24  26
ENDBRANCH   4  22
TORSDOF 2
ENDMDL
MODEL 5
REMARK VINA RESULT:      -8.0      6.340      8.766
REMARK  Name = Finasteride
REMARK  7 active torsions:
REMARK  status: ('A' for Active; 'I' for Inactive)
REMARK    1  A    between atoms: C_5  and  C_6
REMARK    2  A    between atoms: N_8  and  C_9
REMARK    3  A    between atoms: C_9  and  C_10
REMARK    4  A    between atoms: C_9  and  C_11
REMARK    5  A    between atoms: C_9  and  C_12
REMARK    6  A    between atoms: C_13  and  C_14
REMARK    7  A    between atoms: C_30  and  C_31
REMARK                            x       y       z     vdW  Elec       q    Type
REMARK                         _______ _______ _______ _____ _____    ______ ____
ROOT
ATOM      1  C   UNL     1      -5.355   3.664 130.692  0.00  0.00    +0.000 C 
ATOM      2  C   UNL     1      -5.580   3.665 129.284  0.00  0.00    +0.000 C 
ATOM      3  C   UNL     1      -5.669   5.050 129.867  0.00  0.00    +0.000 C 
ATOM      4  C   UNL     1      -4.906   5.279 131.771  0.00  0.00    +0.000 C 
ATOM      5  C   UNL     1      -4.260   5.163 130.600  0.00  0.00    +0.000 C 
ATOM      6  C   UNL     1      -2.897   4.823 130.151  0.00  0.00    +0.000 C 
ATOM      7  C   UNL     1      -4.995   6.896 130.595  0.00  0.00    +0.000 C 
ATOM      8  C   UNL     1      -6.518   6.882 131.432  0.00  0.00    +0.000 C 
ATOM      9  C   UNL     1      -7.550   5.573 131.254  0.00  0.00    +0.000 C 
ATOM     10  C   UNL     1      -6.926   4.037 131.517  0.00  0.00    +0.000 C 
ATOM     11  C   UNL     1      -7.926   2.980 131.101  0.00  0.00    +0.000 C 
ATOM     12  C   UNL     1      -9.277   3.199 131.741  0.00  0.00    +0.000 C 
ATOM     13  C   UNL     1      -9.904   4.565 131.487  0.00  0.00    +0.000 C 
ATOM     14  N   UNL     1     -10.534   4.640 130.173  0.00  0.00    +0.000 N 
ATOM     15  C   UNL     1     -11.087   5.918 130.046  0.00  0.00    +0.000 C 
ATOM     16  O   UNL     1     -12.061   6.347 130.653  0.00  0.00    +0.000 OA
ATOM     17  C   UNL     1     -10.083   6.912 129.490  0.00  0.00    +0.000 C 
ATOM     18  C   UNL     1      -9.483   6.985 130.726  0.00  0.00    +0.000 C 
ATOM     19  C   UNL     1      -8.964   5.798 131.752  0.00  0.00    +0.000 C 
ATOM     20  C   UNL     1      -8.711   5.865 133.292  0.00  0.00    +0.000 C 
ATOM     21  H   UNL     1      -9.908   4.354 129.429  0.00  0.00    +0.000 HD
ENDROOT
BRANCH   4  22
ATOM     22  C   UNL     1      -3.530   6.193 132.646  0.00  0.00    +0.000 C 
ATOM     23  O   UNL     1      -2.803   5.572 133.435  0.00  0.00    +0.000 OA
ATOM     24  N   UNL     1      -3.133   7.569 132.560  0.00  0.00    +0.000 N 
ATOM     25  H   UNL     1      -3.714   8.302 132.174  0.00  0.00    +0.000 HD
BRANCH  24  26
ATOM     26  C   UNL     1      -1.789   8.088 133.271  0.00  0.00    +0.000 C 
ATOM     27  C   UNL     1      -0.492   7.410 132.745  0.00  0.00    +0.000 C 
ATOM     28  C   UNL     1      -1.675   9.611 133.039  0.00  0.00    +0.000 C 
ATOM     29  C   UNL     1      -1.706   7.912 134.830  0.00  0.00    +0.000 C 
ENDBRANCH  24  26
ENDBRANCH   4  22
TORSDOF 2
ENDMDL
MODEL 6
REMARK VINA RESULT:      -7.7      3.738      6.330
REMARK  Name = Finasteride
REMARK  7 active torsions:
REMARK  status: ('A' for Active; 'I' for Inactive)
REMARK    1  A    between atoms: C_5  and  C_6
REMARK    2  A    between atoms: N_8  and  C_9
REMARK    3  A    between atoms: C_9  and  C_10
REMARK    4  A    between atoms: C_9  and  C_11
REMARK    5  A    between atoms: C_9  and  C_12
REMARK    6  A    between atoms: C_13  and  C_14
REMARK    7  A    between atoms: C_30  and  C_31
REMARK                            x       y       z     vdW  Elec       q    Type
REMARK                         _______ _______ _______ _____ _____    ______ ____
ROOT
ATOM      1  C   UNL     1      -7.303  -0.535 129.236  0.00  0.00    +0.000 C 
ATOM      2  C   UNL     1      -7.973  -0.286 130.470  0.00  0.00    +0.000 C 
ATOM      3  C   UNL     1      -6.498  -0.005 130.567  0.00  0.00    +0.000 C 
ATOM      4  C   UNL     1      -5.487   0.145 128.772  0.00  0.00    +0.000 C 
ATOM      5  C   UNL     1      -6.305   1.026 129.368  0.00  0.00    +0.000 C 
ATOM      6  C   UNL     1      -7.085   2.213 128.969  0.00  0.00    +0.000 C 
ATOM      7  C   UNL     1      -4.710   1.072 130.367  0.00  0.00    +0.000 C 
ATOM      8  C   UNL     1      -4.000  -0.514 130.396  0.00  0.00    +0.000 C 
ATOM      9  C   UNL     1      -4.988  -1.863 130.523  0.00  0.00    +0.000 C 
ATOM     10  C   UNL     1      -6.265  -2.008 129.443  0.00  0.00    +0.000 C 
ATOM     11  C   UNL     1      -7.168  -3.155 129.842  0.00  0.00    +0.000 C 
ATOM     12  C   UNL     1      -6.395  -4.439 130.037  0.00  0.00    +0.000 C 
ATOM     13  C   UNL     1      -5.255  -4.365 131.046  0.00  0.00    +0.000 C 
ATOM     14  N   UNL     1      -5.737  -4.467 132.421  0.00  0.00    +0.000 N 
ATOM     15  C   UNL     1      -4.621  -4.404 133.260  0.00  0.00    +0.000 C 
ATOM     16  O   UNL     1      -3.763  -5.270 133.387  0.00  0.00    +0.000 OA
ATOM     17  C   UNL     1      -4.265  -2.972 133.616  0.00  0.00    +0.000 C 
ATOM     18  C   UNL     1      -3.693  -2.815 132.375  0.00  0.00    +0.000 C 
ATOM     19  C   UNL     1      -4.270  -3.153 130.864  0.00  0.00    +0.000 C 
ATOM     20  C   UNL     1      -3.482  -3.394 129.537  0.00  0.00    +0.000 C 
ATOM     21  H   UNL     1      -6.477  -3.803 132.618  0.00  0.00    +0.000 HD
ENDROOT
BRANCH   4  22
ATOM     22  C   UNL     1      -4.545   1.417 127.778  0.00  0.00    +0.000 C 
ATOM     23  O   UNL     1      -4.732   1.481 126.555  0.00  0.00    +0.000 OA
ATOM     24  N   UNL     1      -3.588   2.398 128.202  0.00  0.00    +0.000 N 
ATOM     25  H   UNL     1      -3.109   2.373 129.094  0.00  0.00    +0.000 HD
BRANCH  24  26
ATOM     26  C   UNL     1      -3.045   3.518 127.186  0.00  0.00    +0.000 C 
ATOM     27  C   UNL     1      -4.091   3.975 126.129  0.00  0.00    +0.000 C 
ATOM     28  C   UNL     1      -2.608   4.749 128.009  0.00  0.00    +0.000 C 
ATOM     29  C   UNL     1      -1.782   3.137 126.331  0.00  0.00    +0.000 C 
ENDBRANCH  24  26
ENDBRANCH   4  22
TORSDOF 2
ENDMDL
MODEL 7
REMARK VINA RESULT:      -7.6      2.062      7.380
REMARK  Name = Finasteride
REMARK  7 active torsions:
REMARK  status: ('A' for Active; 'I' for Inactive)
REMARK    1  A    between atoms: C_5  and  C_6
REMARK    2  A    between atoms: N_8  and  C_9
REMARK    3  A    between atoms: C_9  and  C_10
REMARK    4  A    between atoms: C_9  and  C_11
REMARK    5  A    between atoms: C_9  and  C_12
REMARK    6  A    between atoms: C_13  and  C_14
REMARK    7  A    between atoms: C_30  and  C_31
REMARK                            x       y       z     vdW  Elec       q    Type
REMARK                         _______ _______ _______ _____ _____    ______ ____
ROOT
ATOM      1  C   UNL     1      -4.459  -0.293 129.876  0.00  0.00    +0.000 C 
ATOM      2  C   UNL     1      -4.718  -0.992 131.092  0.00  0.00    +0.000 C 
ATOM      3  C   UNL     1      -5.947  -0.895 130.229  0.00  0.00    +0.000 C 
ATOM      4  C   UNL     1      -5.630  -0.348 128.263  0.00  0.00    +0.000 C 
ATOM      5  C   UNL     1      -5.414  -1.527 128.868  0.00  0.00    +0.000 C 
ATOM      6  C   UNL     1      -4.628  -2.746 128.601  0.00  0.00    +0.000 C 
ATOM      7  C   UNL     1      -7.283  -1.391 128.692  0.00  0.00    +0.000 C 
ATOM      8  C   UNL     1      -7.761   0.271 128.859  0.00  0.00    +0.000 C 
ATOM      9  C   UNL     1      -6.988   1.248 129.982  0.00  0.00    +0.000 C 
ATOM     10  C   UNL     1      -5.311   1.307 129.951  0.00  0.00    +0.000 C 
ATOM     11  C   UNL     1      -4.784   2.052 131.159  0.00  0.00    +0.000 C 
ATOM     12  C   UNL     1      -5.432   3.409 131.310  0.00  0.00    +0.000 C 
ATOM     13  C   UNL     1      -6.954   3.397 131.391  0.00  0.00    +0.000 C 
ATOM     14  N   UNL     1      -7.427   3.043 132.726  0.00  0.00    +0.000 N 
ATOM     15  C   UNL     1      -8.824   3.075 132.698  0.00  0.00    +0.000 C 
ATOM     16  O   UNL     1      -9.521   4.079 132.604  0.00  0.00    +0.000 OA
ATOM     17  C   UNL     1      -9.409   1.743 132.265  0.00  0.00    +0.000 C 
ATOM     18  C   UNL     1      -9.094   2.037 130.959  0.00  0.00    +0.000 C 
ATOM     19  C   UNL     1      -7.684   2.562 130.276  0.00  0.00    +0.000 C 
ATOM     20  C   UNL     1      -7.460   3.305 128.920  0.00  0.00    +0.000 C 
ATOM     21  H   UNL     1      -7.011   2.182 133.064  0.00  0.00    +0.000 HD
ENDROOT
BRANCH   4  22
ATOM     22  C   UNL     1      -5.824  -1.059 126.546  0.00  0.00    +0.000 C 
ATOM     23  O   UNL     1      -5.026  -0.717 125.660  0.00  0.00    +0.000 OA
ATOM     24  N   UNL     1      -6.786  -1.992 126.034  0.00  0.00    +0.000 N 
ATOM     25  H   UNL     1      -7.658  -2.218 126.498  0.00  0.00    +0.000 HD
BRANCH  24  26
ATOM     26  C   UNL     1      -6.640  -2.607 124.557  0.00  0.00    +0.000 C 
ATOM     27  C   UNL     1      -5.283  -3.322 124.301  0.00  0.00    +0.000 C 
ATOM     28  C   UNL     1      -7.781  -3.625 124.340  0.00  0.00    +0.000 C 
ATOM     29  C   UNL     1      -6.769  -1.596 123.361  0.00  0.00    +0.000 C 
ENDBRANCH  24  26
ENDBRANCH   4  22
TORSDOF 2
ENDMDL
MODEL 8
REMARK VINA RESULT:      -7.6      2.460      3.317
REMARK  Name = Finasteride
REMARK  7 active torsions:
REMARK  status: ('A' for Active; 'I' for Inactive)
REMARK    1  A    between atoms: C_5  and  C_6
REMARK    2  A    between atoms: N_8  and  C_9
REMARK    3  A    between atoms: C_9  and  C_10
REMARK    4  A    between atoms: C_9  and  C_11
REMARK    5  A    between atoms: C_9  and  C_12
REMARK    6  A    between atoms: C_13  and  C_14
REMARK    7  A    between atoms: C_30  and  C_31
REMARK                            x       y       z     vdW  Elec       q    Type
REMARK                         _______ _______ _______ _____ _____    ______ ____
ROOT
ATOM      1  C   UNL     1      -7.795   0.135 130.774  0.00  0.00    +0.000 C 
ATOM      2  C   UNL     1      -6.396  -0.030 130.996  0.00  0.00    +0.000 C 
ATOM      3  C   UNL     1      -6.679   1.049 129.987  0.00  0.00    +0.000 C 
ATOM      4  C   UNL     1      -8.628   1.729 129.914  0.00  0.00    +0.000 C 
ATOM      5  C   UNL     1      -7.665   1.988 130.813  0.00  0.00    +0.000 C 
ATOM      6  C   UNL     1      -7.591   2.505 132.192  0.00  0.00    +0.000 C 
ATOM      7  C   UNL     1      -7.182   2.955 129.273  0.00  0.00    +0.000 C 
ATOM      8  C   UNL     1      -7.659   2.066 127.857  0.00  0.00    +0.000 C 
ATOM      9  C   UNL     1      -7.508   0.396 127.837  0.00  0.00    +0.000 C 
ATOM     10  C   UNL     1      -8.178  -0.471 129.108  0.00  0.00    +0.000 C 
ATOM     11  C   UNL     1      -7.759  -1.923 129.039  0.00  0.00    +0.000 C 
ATOM     12  C   UNL     1      -8.042  -2.527 127.683  0.00  0.00    +0.000 C 
ATOM     13  C   UNL     1      -7.411  -1.799 126.502  0.00  0.00    +0.000 C 
ATOM     14  N   UNL     1      -6.001  -2.140 126.340  0.00  0.00    +0.000 N 
ATOM     15  C   UNL     1      -5.524  -1.437 125.231  0.00  0.00    +0.000 C 
ATOM     16  O   UNL     1      -5.817  -1.650 124.060  0.00  0.00    +0.000 OA
ATOM     17  C   UNL     1      -5.024  -0.055 125.613  0.00  0.00    +0.000 C 
ATOM     18  C   UNL     1      -6.324   0.386 125.689  0.00  0.00    +0.000 C 
ATOM     19  C   UNL     1      -7.639  -0.243 126.468  0.00  0.00    +0.000 C 
ATOM     20  C   UNL     1      -9.158  -0.004 126.193  0.00  0.00    +0.000 C 
ATOM     21  H   UNL     1      -5.476  -2.020 127.199  0.00  0.00    +0.000 HD
ENDROOT
BRANCH   4  22
ATOM     22  C   UNL     1      -9.594   3.298 130.227  0.00  0.00    +0.000 C 
ATOM     23  O   UNL     1     -10.736   3.215 130.701  0.00  0.00    +0.000 OA
ATOM     24  N   UNL     1      -9.228   4.668 130.010  0.00  0.00    +0.000 N 
ATOM     25  H   UNL     1      -8.458   4.961 129.421  0.00  0.00    +0.000 HD
BRANCH  24  26
ATOM     26  C   UNL     1     -10.160   5.867 130.535  0.00  0.00    +0.000 C 
ATOM     27  C   UNL     1     -10.247   5.969 132.084  0.00  0.00    +0.000 C 
ATOM     28  C   UNL     1      -9.596   7.196 129.985  0.00  0.00    +0.000 C 
ATOM     29  C   UNL     1     -11.660   5.844 130.069  0.00  0.00    +0.000 C 
ENDBRANCH  24  26
ENDBRANCH   4  22
TORSDOF 2
ENDMDL
MODEL 9
REMARK VINA RESULT:      -7.6      1.985      7.032
REMARK  Name = Finasteride
REMARK  7 active torsions:
REMARK  status: ('A' for Active; 'I' for Inactive)
REMARK    1  A    between atoms: C_5  and  C_6
REMARK    2  A    between atoms: N_8  and  C_9
REMARK    3  A    between atoms: C_9  and  C_10
REMARK    4  A    between atoms: C_9  and  C_11
REMARK    5  A    between atoms: C_9  and  C_12
REMARK    6  A    between atoms: C_13  and  C_14
REMARK    7  A    between atoms: C_30  and  C_31
REMARK                            x       y       z     vdW  Elec       q    Type
REMARK                         _______ _______ _______ _____ _____    ______ ____
ROOT
ATOM      1  C   UNL     1      -6.579  -3.104 129.549  0.00  0.00    +0.000 C 
ATOM      2  C   UNL     1      -7.570  -3.137 130.574  0.00  0.00    +0.000 C 
ATOM      3  C   UNL     1      -7.733  -1.941 129.675  0.00  0.00    +0.000 C 
ATOM      4  C   UNL     1      -6.697  -2.005 127.890  0.00  0.00    +0.000 C 
ATOM      5  C   UNL     1      -7.822  -2.643 128.248  0.00  0.00    +0.000 C 
ATOM      6  C   UNL     1      -8.592  -3.812 127.784  0.00  0.00    +0.000 C 
ATOM      7  C   UNL     1      -8.327  -0.849 127.988  0.00  0.00    +0.000 C 
ATOM      8  C   UNL     1      -7.023   0.196 128.467  0.00  0.00    +0.000 C 
ATOM      9  C   UNL     1      -6.103  -0.192 129.814  0.00  0.00    +0.000 C 
ATOM     10  C   UNL     1      -5.445  -1.733 129.902  0.00  0.00    +0.000 C 
ATOM     11  C   UNL     1      -4.842  -1.976 131.269  0.00  0.00    +0.000 C 
ATOM     12  C   UNL     1      -3.872  -0.884 131.658  0.00  0.00    +0.000 C 
ATOM     13  C   UNL     1      -4.443   0.530 131.639  0.00  0.00    +0.000 C 
ATOM     14  N   UNL     1      -5.223   0.819 132.839  0.00  0.00    +0.000 N 
ATOM     15  C   UNL     1      -5.685   2.133 132.731  0.00  0.00    +0.000 C 
ATOM     16  O   UNL     1      -5.001   3.148 132.805  0.00  0.00    +0.000 OA
ATOM     17  C   UNL     1      -7.011   2.205 131.995  0.00  0.00    +0.000 C 
ATOM     18  C   UNL     1      -6.348   2.040 130.801  0.00  0.00    +0.000 C 
ATOM     19  C   UNL     1      -5.220   0.927 130.331  0.00  0.00    +0.000 C 
ATOM     20  C   UNL     1      -4.171   1.010 129.177  0.00  0.00    +0.000 C 
ATOM     21  H   UNL     1      -5.930   0.115 133.016  0.00  0.00    +0.000 HD
ENDROOT
BRANCH   4  22
ATOM     22  C   UNL     1      -7.040  -2.052 126.053  0.00  0.00    +0.000 C 
ATOM     23  O   UNL     1      -6.392  -2.833 125.341  0.00  0.00    +0.000 OA
ATOM     24  N   UNL     1      -7.980  -1.305 125.269  0.00  0.00    +0.000 N 
ATOM     25  H   UNL     1      -8.436  -0.458 125.587  0.00  0.00    +0.000 HD
BRANCH  24  26
ATOM     26  C   UNL     1      -8.229  -1.653 123.720  0.00  0.00    +0.000 C 
ATOM     27  C   UNL     1      -8.893  -3.039 123.482  0.00  0.00    +0.000 C 
ATOM     28  C   UNL     1      -9.140  -0.561 123.118  0.00  0.00    +0.000 C 
ATOM     29  C   UNL     1      -6.960  -1.674 122.794  0.00  0.00    +0.000 C 
ENDBRANCH  24  26
ENDBRANCH   4  22
TORSDOF 2
ENDMDL
