MODEL 1
REMARK VINA RESULT:      -7.2      0.000      0.000
REMARK  Name = Finafloxacin
REMARK  5 active torsions:
REMARK  status: ('A' for Active; 'I' for Inactive)
REMARK    1  A    between atoms: N_4  and  C_12
REMARK    2  A    between atoms: C_19  and  C_29
REMARK    3  A    between atoms: N_21  and  C_22
REMARK    4  A    between atoms: C_26  and  C_27
REMARK    5  A    between atoms: C_29  and  O_30
REMARK                            x       y       z     vdW  Elec       q    Type
REMARK                         _______ _______ _______ _____ _____    ______ ____
ROOT
ATOM      1  C   UNL     1      -5.578   2.196 126.465  0.00  0.00    +0.000 A 
ATOM      2  C   UNL     1      -6.167   2.312 125.196  0.00  0.00    +0.000 A 
ATOM      3  F   UNL     1      -6.059   3.464 124.514  0.00  0.00    +0.000 F 
ATOM      4  C   UNL     1      -6.835   1.263 124.596  0.00  0.00    +0.000 A 
ATOM      5  C   UNL     1      -6.952   0.049 125.276  0.00  0.00    +0.000 A 
ATOM      6  C   UNL     1      -7.710  -1.036 124.609  0.00  0.00    +0.000 A 
ATOM      7  O   UNL     1      -8.174  -0.818 123.496  0.00  0.00    +0.000 OA
ATOM      8  C   UNL     1      -7.874  -2.338 125.316  0.00  0.00    +0.000 A 
ATOM      9  C   UNL     1      -7.318  -2.406 126.536  0.00  0.00    +0.000 A 
ATOM     10  N   UNL     1      -6.618  -1.410 127.198  0.00  0.00    +0.000 N 
ATOM     11  C   UNL     1      -6.385  -0.144 126.555  0.00  0.00    +0.000 A 
ATOM     12  C   UNL     1      -5.660   0.947 127.124  0.00  0.00    +0.000 A 
ENDROOT
BRANCH   1  15
ATOM     13  C   UNL     1      -3.480   5.053 127.364  0.00  0.00    +0.000 C 
ATOM     14  C   UNL     1      -3.592   3.626 126.817  0.00  0.00    +0.000 C 
ATOM     15  N   UNL     1      -4.995   3.291 127.056  0.00  0.00    +0.000 N 
ATOM     16  C   UNL     1      -5.677   4.265 127.915  0.00  0.00    +0.000 C 
ATOM     17  C   UNL     1      -4.524   5.075 128.497  0.00  0.00    +0.000 C 
ATOM     18  O   UNL     1      -4.795   6.434 128.849  0.00  0.00    +0.000 OA
ATOM     19  C   UNL     1      -3.578   7.012 129.373  0.00  0.00    +0.000 C 
ATOM     20  C   UNL     1      -2.380   6.874 128.400  0.00  0.00    +0.000 C 
ATOM     21  N   UNL     1      -2.175   5.495 127.892  0.00  0.00    +0.000 NA
ATOM     22  H   UNL     1      -1.935   4.894 128.684  0.00  0.00    +0.000 HD
ENDBRANCH   1  15
BRANCH  10  23
ATOM     23  C   UNL     1      -6.071  -1.674 128.537  0.00  0.00    +0.000 C 
ATOM     24  C   UNL     1      -6.128  -2.806 129.505  0.00  0.00    +0.000 C 
ATOM     25  C   UNL     1      -4.928  -2.668 128.629  0.00  0.00    +0.000 C 
ENDBRANCH  10  23
BRANCH  12  26
ATOM     26  C   UNL     1      -5.034   0.884 128.416  0.00  0.00    +0.000 C 
ATOM     27  N   UNL     1      -4.522   0.860 129.466  0.00  0.00    +0.000 NA
ENDBRANCH  12  26
BRANCH   8  28
ATOM     28  C   UNL     1      -8.619  -3.445 124.660  0.00  0.00    +0.000 C 
ATOM     29  O   UNL     1      -8.193  -4.586 124.567  0.00  0.00    +0.000 OA
BRANCH  28  30
ATOM     30  O   UNL     1      -9.832  -3.146 124.147  0.00  0.00    +0.000 OA
ATOM     31  H   UNL     1     -10.630  -3.522 124.546  0.00  0.00    +0.000 HD
ENDBRANCH  28  30
ENDBRANCH   8  28
TORSDOF 5
ENDMDL
MODEL 2
REMARK VINA RESULT:      -7.0      4.832      6.261
REMARK  Name = Finafloxacin
REMARK  5 active torsions:
REMARK  status: ('A' for Active; 'I' for Inactive)
REMARK    1  A    between atoms: N_4  and  C_12
REMARK    2  A    between atoms: C_19  and  C_29
REMARK    3  A    between atoms: N_21  and  C_22
REMARK    4  A    between atoms: C_26  and  C_27
REMARK    5  A    between atoms: C_29  and  O_30
REMARK                            x       y       z     vdW  Elec       q    Type
REMARK                         _______ _______ _______ _____ _____    ______ ____
ROOT
ATOM      1  C   UNL     1      -8.672   1.967 130.621  0.00  0.00    +0.000 A 
ATOM      2  C   UNL     1      -8.512   1.540 131.949  0.00  0.00    +0.000 A 
ATOM      3  F   UNL     1      -8.938   2.320 132.955  0.00  0.00    +0.000 F 
ATOM      4  C   UNL     1      -7.957   0.316 132.265  0.00  0.00    +0.000 A 
ATOM      5  C   UNL     1      -7.516  -0.522 131.239  0.00  0.00    +0.000 A 
ATOM      6  C   UNL     1      -6.893  -1.808 131.628  0.00  0.00    +0.000 A 
ATOM      7  O   UNL     1      -6.814  -2.075 132.822  0.00  0.00    +0.000 OA
ATOM      8  C   UNL     1      -6.391  -2.718 130.559  0.00  0.00    +0.000 A 
ATOM      9  C   UNL     1      -6.540  -2.267 129.303  0.00  0.00    +0.000 A 
ATOM     10  N   UNL     1      -7.101  -1.066 128.901  0.00  0.00    +0.000 N 
ATOM     11  C   UNL     1      -7.645  -0.162 129.880  0.00  0.00    +0.000 A 
ATOM     12  C   UNL     1      -8.268   1.090 129.588  0.00  0.00    +0.000 A 
ENDROOT
BRANCH   1  15
ATOM     13  C   UNL     1     -10.646   5.035 130.363  0.00  0.00    +0.000 C 
ATOM     14  C   UNL     1     -10.590   3.503 130.347  0.00  0.00    +0.000 C 
ATOM     15  N   UNL     1      -9.154   3.227 130.357  0.00  0.00    +0.000 N 
ATOM     16  C   UNL     1      -8.339   4.423 130.122  0.00  0.00    +0.000 C 
ATOM     17  C   UNL     1      -9.360   5.439 129.618  0.00  0.00    +0.000 C 
ATOM     18  O   UNL     1      -9.089   6.818 129.877  0.00  0.00    +0.000 OA
ATOM     19  C   UNL     1     -10.171   7.599 129.323  0.00  0.00    +0.000 C 
ATOM     20  C   UNL     1     -11.561   7.154 129.844  0.00  0.00    +0.000 C 
ATOM     21  N   UNL     1     -11.805   5.695 129.732  0.00  0.00    +0.000 NA
ATOM     22  H   UNL     1     -11.809   5.446 128.741  0.00  0.00    +0.000 HD
ENDBRANCH   1  15
BRANCH  10  23
ATOM     23  C   UNL     1      -7.185  -0.746 127.468  0.00  0.00    +0.000 C 
ATOM     24  C   UNL     1      -6.674  -1.361 126.210  0.00  0.00    +0.000 C 
ATOM     25  C   UNL     1      -8.085  -1.626 126.619  0.00  0.00    +0.000 C 
ENDBRANCH  10  23
BRANCH  12  26
ATOM     26  C   UNL     1      -8.462   1.577 128.249  0.00  0.00    +0.000 C 
ATOM     27  N   UNL     1      -8.636   1.991 127.170  0.00  0.00    +0.000 NA
ENDBRANCH  12  26
BRANCH   8  28
ATOM     28  C   UNL     1      -5.774  -4.019 130.926  0.00  0.00    +0.000 C 
ATOM     29  O   UNL     1      -6.012  -5.068 130.347  0.00  0.00    +0.000 OA
BRANCH  28  30
ATOM     30  O   UNL     1      -4.905  -4.014 131.960  0.00  0.00    +0.000 OA
ATOM     31  H   UNL     1      -4.955  -4.706 132.635  0.00  0.00    +0.000 HD
ENDBRANCH  28  30
ENDBRANCH   8  28
TORSDOF 5
ENDMDL
MODEL 3
REMARK VINA RESULT:      -7.0      4.229      5.723
REMARK  Name = Finafloxacin
REMARK  5 active torsions:
REMARK  status: ('A' for Active; 'I' for Inactive)
REMARK    1  A    between atoms: N_4  and  C_12
REMARK    2  A    between atoms: C_19  and  C_29
REMARK    3  A    between atoms: N_21  and  C_22
REMARK    4  A    between atoms: C_26  and  C_27
REMARK    5  A    between atoms: C_29  and  O_30
REMARK                            x       y       z     vdW  Elec       q    Type
REMARK                         _______ _______ _______ _____ _____    ______ ____
ROOT
ATOM      1  C   UNL     1      -7.506   0.094 129.124  0.00  0.00    +0.000 A 
ATOM      2  C   UNL     1      -7.881   1.428 128.899  0.00  0.00    +0.000 A 
ATOM      3  F   UNL     1      -7.737   2.334 129.879  0.00  0.00    +0.000 F 
ATOM      4  C   UNL     1      -8.369   1.860 127.682  0.00  0.00    +0.000 A 
ATOM      5  C   UNL     1      -8.519   0.942 126.640  0.00  0.00    +0.000 A 
ATOM      6  C   UNL     1      -9.081   1.443 125.364  0.00  0.00    +0.000 A 
ATOM      7  O   UNL     1      -9.366   2.633 125.286  0.00  0.00    +0.000 OA
ATOM      8  C   UNL     1      -9.275   0.486 124.238  0.00  0.00    +0.000 A 
ATOM      9  C   UNL     1      -8.927  -0.785 124.495  0.00  0.00    +0.000 A 
ATOM     10  N   UNL     1      -8.415  -1.294 125.678  0.00  0.00    +0.000 N 
ATOM     11  C   UNL     1      -8.161  -0.416 126.790  0.00  0.00    +0.000 A 
ATOM     12  C   UNL     1      -7.615  -0.817 128.047  0.00  0.00    +0.000 A 
ENDROOT
BRANCH   1  15
ATOM     13  C   UNL     1      -5.778  -0.421 132.305  0.00  0.00    +0.000 C 
ATOM     14  C   UNL     1      -5.704  -0.211 130.789  0.00  0.00    +0.000 C 
ATOM     15  N   UNL     1      -7.104  -0.307 130.375  0.00  0.00    +0.000 N 
ATOM     16  C   UNL     1      -7.983  -0.801 131.439  0.00  0.00    +0.000 C 
ATOM     17  C   UNL     1      -6.999  -1.345 132.471  0.00  0.00    +0.000 C 
ATOM     18  O   UNL     1      -7.412  -1.326 133.839  0.00  0.00    +0.000 OA
ATOM     19  C   UNL     1      -6.342  -1.878 134.638  0.00  0.00    +0.000 C 
ATOM     20  C   UNL     1      -4.990  -1.157 134.411  0.00  0.00    +0.000 C 
ATOM     21  N   UNL     1      -4.613  -1.022 132.982  0.00  0.00    +0.000 NA
ATOM     22  H   UNL     1      -4.474  -1.959 132.598  0.00  0.00    +0.000 HD
ENDBRANCH   1  15
BRANCH  10  23
ATOM     23  C   UNL     1      -8.083  -2.724 125.770  0.00  0.00    +0.000 C 
ATOM     24  C   UNL     1      -8.323  -3.928 124.925  0.00  0.00    +0.000 C 
ATOM     25  C   UNL     1      -7.001  -3.239 124.839  0.00  0.00    +0.000 C 
ENDBRANCH  10  23
BRANCH  12  26
ATOM     26  C   UNL     1      -7.211  -2.167 128.333  0.00  0.00    +0.000 C 
ATOM     27  N   UNL     1      -6.902  -3.267 128.580  0.00  0.00    +0.000 NA
ENDBRANCH  12  26
BRANCH   8  28
ATOM     28  C   UNL     1      -9.826   0.970 122.944  0.00  0.00    +0.000 C 
ATOM     29  O   UNL     1     -10.699   0.386 122.321  0.00  0.00    +0.000 OA
BRANCH  28  30
ATOM     30  O   UNL     1      -9.316   2.119 122.454  0.00  0.00    +0.000 OA
ATOM     31  H   UNL     1      -8.561   2.538 122.892  0.00  0.00    +0.000 HD
ENDBRANCH  28  30
ENDBRANCH   8  28
TORSDOF 5
ENDMDL
MODEL 4
REMARK VINA RESULT:      -6.9      3.091      8.555
REMARK  Name = Finafloxacin
REMARK  5 active torsions:
REMARK  status: ('A' for Active; 'I' for Inactive)
REMARK    1  A    between atoms: N_4  and  C_12
REMARK    2  A    between atoms: C_19  and  C_29
REMARK    3  A    between atoms: N_21  and  C_22
REMARK    4  A    between atoms: C_26  and  C_27
REMARK    5  A    between atoms: C_29  and  O_30
REMARK                            x       y       z     vdW  Elec       q    Type
REMARK                         _______ _______ _______ _____ _____    ______ ____
ROOT
ATOM      1  C   UNL     1      -5.539   4.134 127.472  0.00  0.00    +0.000 A 
ATOM      2  C   UNL     1      -4.304   4.492 126.910  0.00  0.00    +0.000 A 
ATOM      3  F   UNL     1      -4.054   4.218 125.620  0.00  0.00    +0.000 F 
ATOM      4  C   UNL     1      -3.333   5.157 127.632  0.00  0.00    +0.000 A 
ATOM      5  C   UNL     1      -3.568   5.467 128.973  0.00  0.00    +0.000 A 
ATOM      6  C   UNL     1      -2.483   6.146 129.717  0.00  0.00    +0.000 A 
ATOM      7  O   UNL     1      -1.449   6.415 129.116  0.00  0.00    +0.000 OA
ATOM      8  C   UNL     1      -2.692   6.472 131.157  0.00  0.00    +0.000 A 
ATOM      9  C   UNL     1      -3.876   6.094 131.667  0.00  0.00    +0.000 A 
ATOM     10  N   UNL     1      -4.906   5.444 131.009  0.00  0.00    +0.000 N 
ATOM     11  C   UNL     1      -4.787   5.140 129.607  0.00  0.00    +0.000 A 
ATOM     12  C   UNL     1      -5.787   4.496 128.817  0.00  0.00    +0.000 A 
ENDROOT
BRANCH   1  15
ATOM     13  C   UNL     1      -7.999   2.917 125.055  0.00  0.00    +0.000 C 
ATOM     14  C   UNL     1      -7.478   4.055 125.940  0.00  0.00    +0.000 C 
ATOM     15  N   UNL     1      -6.442   3.401 126.740  0.00  0.00    +0.000 N 
ATOM     16  C   UNL     1      -6.456   1.941 126.610  0.00  0.00    +0.000 C 
ATOM     17  C   UNL     1      -7.796   1.669 125.935  0.00  0.00    +0.000 C 
ATOM     18  O   UNL     1      -7.887   0.504 125.113  0.00  0.00    +0.000 OA
ATOM     19  C   UNL     1      -9.227   0.438 124.575  0.00  0.00    +0.000 C 
ATOM     20  C   UNL     1      -9.637   1.731 123.827  0.00  0.00    +0.000 C 
ATOM     21  N   UNL     1      -9.402   2.974 124.602  0.00  0.00    +0.000 NA
ATOM     22  H   UNL     1     -10.002   2.954 125.430  0.00  0.00    +0.000 HD
ENDBRANCH   1  15
BRANCH  10  23
ATOM     23  C   UNL     1      -6.141   5.116 131.737  0.00  0.00    +0.000 C 
ATOM     24  C   UNL     1      -6.636   5.305 133.130  0.00  0.00    +0.000 C 
ATOM     25  C   UNL     1      -7.066   6.270 132.076  0.00  0.00    +0.000 C 
ENDBRANCH  10  23
BRANCH  12  26
ATOM     26  C   UNL     1      -7.071   4.109 129.337  0.00  0.00    +0.000 C 
ATOM     27  N   UNL     1      -8.118   3.781 129.738  0.00  0.00    +0.000 NA
ENDBRANCH  12  26
BRANCH   8  28
ATOM     28  C   UNL     1      -1.621   7.165 131.921  0.00  0.00    +0.000 C 
ATOM     29  O   UNL     1      -1.809   8.170 132.589  0.00  0.00    +0.000 OA
BRANCH  28  30
ATOM     30  O   UNL     1      -0.382   6.635 131.854  0.00  0.00    +0.000 OA
ATOM     31  H   UNL     1       0.394   7.208 131.938  0.00  0.00    +0.000 HD
ENDBRANCH  28  30
ENDBRANCH   8  28
TORSDOF 5
ENDMDL
MODEL 5
REMARK VINA RESULT:      -6.7      4.117      5.992
REMARK  Name = Finafloxacin
REMARK  5 active torsions:
REMARK  status: ('A' for Active; 'I' for Inactive)
REMARK    1  A    between atoms: N_4  and  C_12
REMARK    2  A    between atoms: C_19  and  C_29
REMARK    3  A    between atoms: N_21  and  C_22
REMARK    4  A    between atoms: C_26  and  C_27
REMARK    5  A    between atoms: C_29  and  O_30
REMARK                            x       y       z     vdW  Elec       q    Type
REMARK                         _______ _______ _______ _____ _____    ______ ____
ROOT
ATOM      1  C   UNL     1      -6.181   3.081 126.782  0.00  0.00    +0.000 A 
ATOM      2  C   UNL     1      -5.101   3.845 126.313  0.00  0.00    +0.000 A 
ATOM      3  F   UNL     1      -4.151   4.252 127.170  0.00  0.00    +0.000 F 
ATOM      4  C   UNL     1      -4.955   4.172 124.979  0.00  0.00    +0.000 A 
ATOM      5  C   UNL     1      -5.920   3.752 124.062  0.00  0.00    +0.000 A 
ATOM      6  C   UNL     1      -5.741   4.158 122.649  0.00  0.00    +0.000 A 
ATOM      7  O   UNL     1      -4.752   4.822 122.358  0.00  0.00    +0.000 OA
ATOM      8  C   UNL     1      -6.765   3.745 121.646  0.00  0.00    +0.000 A 
ATOM      9  C   UNL     1      -7.795   3.035 122.134  0.00  0.00    +0.000 A 
ATOM     10  N   UNL     1      -8.005   2.651 123.448  0.00  0.00    +0.000 N 
ATOM     11  C   UNL     1      -7.034   2.979 124.458  0.00  0.00    +0.000 A 
ATOM     12  C   UNL     1      -7.127   2.619 125.837  0.00  0.00    +0.000 A 
ENDROOT
BRANCH   1  15
ATOM     13  C   UNL     1      -7.292   2.947 130.263  0.00  0.00    +0.000 C 
ATOM     14  C   UNL     1      -7.113   3.752 128.971  0.00  0.00    +0.000 C 
ATOM     15  N   UNL     1      -6.328   2.851 128.128  0.00  0.00    +0.000 N 
ATOM     16  C   UNL     1      -5.802   1.695 128.862  0.00  0.00    +0.000 C 
ATOM     17  C   UNL     1      -6.014   2.089 130.320  0.00  0.00    +0.000 C 
ATOM     18  O   UNL     1      -6.210   1.030 131.259  0.00  0.00    +0.000 OA
ATOM     19  C   UNL     1      -6.393   1.618 132.567  0.00  0.00    +0.000 C 
ATOM     20  C   UNL     1      -7.534   2.666 132.600  0.00  0.00    +0.000 C 
ATOM     21  N   UNL     1      -7.441   3.689 131.530  0.00  0.00    +0.000 NA
ATOM     22  H   UNL     1      -6.587   4.232 131.679  0.00  0.00    +0.000 HD
ENDBRANCH   1  15
BRANCH  10  23
ATOM     23  C   UNL     1      -9.198   1.864 123.793  0.00  0.00    +0.000 C 
ATOM     24  C   UNL     1     -10.363   1.315 123.043  0.00  0.00    +0.000 C 
ATOM     25  C   UNL     1      -9.215   0.412 123.349  0.00  0.00    +0.000 C 
ENDBRANCH  10  23
BRANCH  12  26
ATOM     26  C   UNL     1      -8.207   1.836 126.373  0.00  0.00    +0.000 C 
ATOM     27  N   UNL     1      -9.067   1.184 126.821  0.00  0.00    +0.000 NA
ENDBRANCH  12  26
BRANCH   8  28
ATOM     28  C   UNL     1      -6.599   4.131 120.220  0.00  0.00    +0.000 C 
ATOM     29  O   UNL     1      -7.515   4.146 119.413  0.00  0.00    +0.000 OA
BRANCH  28  30
ATOM     30  O   UNL     1      -5.357   4.480 119.821  0.00  0.00    +0.000 OA
ATOM     31  H   UNL     1      -5.209   4.783 118.914  0.00  0.00    +0.000 HD
ENDBRANCH  28  30
ENDBRANCH   8  28
TORSDOF 5
ENDMDL
MODEL 6
REMARK VINA RESULT:      -6.7      4.118      6.230
REMARK  Name = Finafloxacin
REMARK  5 active torsions:
REMARK  status: ('A' for Active; 'I' for Inactive)
REMARK    1  A    between atoms: N_4  and  C_12
REMARK    2  A    between atoms: C_19  and  C_29
REMARK    3  A    between atoms: N_21  and  C_22
REMARK    4  A    between atoms: C_26  and  C_27
REMARK    5  A    between atoms: C_29  and  O_30
REMARK                            x       y       z     vdW  Elec       q    Type
REMARK                         _______ _______ _______ _____ _____    ______ ____
ROOT
ATOM      1  C   UNL     1      -7.328  -0.097 127.100  0.00  0.00    +0.000 A 
ATOM      2  C   UNL     1      -6.762  -1.379 127.023  0.00  0.00    +0.000 A 
ATOM      3  F   UNL     1      -6.283  -1.827 125.851  0.00  0.00    +0.000 F 
ATOM      4  C   UNL     1      -6.645  -2.199 128.128  0.00  0.00    +0.000 A 
ATOM      5  C   UNL     1      -7.122  -1.755 129.363  0.00  0.00    +0.000 A 
ATOM      6  C   UNL     1      -7.009  -2.683 130.512  0.00  0.00    +0.000 A 
ATOM      7  O   UNL     1      -6.489  -3.777 130.323  0.00  0.00    +0.000 OA
ATOM      8  C   UNL     1      -7.529  -2.251 131.841  0.00  0.00    +0.000 A 
ATOM      9  C   UNL     1      -8.085  -1.028 131.872  0.00  0.00    +0.000 A 
ATOM     10  N   UNL     1      -8.223  -0.140 130.818  0.00  0.00    +0.000 N 
ATOM     11  C   UNL     1      -7.703  -0.477 129.519  0.00  0.00    +0.000 A 
ATOM     12  C   UNL     1      -7.764   0.362 128.365  0.00  0.00    +0.000 A 
ENDROOT
BRANCH   1  15
ATOM     13  C   UNL     1      -6.913   1.842 124.028  0.00  0.00    +0.000 C 
ATOM     14  C   UNL     1      -6.425   1.496 125.438  0.00  0.00    +0.000 C 
ATOM     15  N   UNL     1      -7.499   0.649 125.959  0.00  0.00    +0.000 N 
ATOM     16  C   UNL     1      -8.694   0.654 125.110  0.00  0.00    +0.000 C 
ATOM     17  C   UNL     1      -8.446   1.835 124.176  0.00  0.00    +0.000 C 
ATOM     18  O   UNL     1      -9.037   1.774 122.877  0.00  0.00    +0.000 OA
ATOM     19  C   UNL     1      -8.679   2.979 122.164  0.00  0.00    +0.000 C 
ATOM     20  C   UNL     1      -7.148   3.215 122.115  0.00  0.00    +0.000 C 
ATOM     21  N   UNL     1      -6.484   3.125 123.438  0.00  0.00    +0.000 NA
ATOM     22  H   UNL     1      -6.842   3.879 124.029  0.00  0.00    +0.000 HD
ENDBRANCH   1  15
BRANCH  10  23
ATOM     23  C   UNL     1      -8.856   1.167 131.047  0.00  0.00    +0.000 C 
ATOM     24  C   UNL     1      -9.698   1.767 132.121  0.00  0.00    +0.000 C 
ATOM     25  C   UNL     1      -8.234   2.054 132.109  0.00  0.00    +0.000 C 
ENDBRANCH  10  23
BRANCH  12  26
ATOM     26  C   UNL     1      -8.329   1.684 128.384  0.00  0.00    +0.000 C 
ATOM     27  N   UNL     1      -8.770   2.766 128.418  0.00  0.00    +0.000 NA
ENDBRANCH  12  26
BRANCH   8  28
ATOM     28  C   UNL     1      -7.415  -3.161 133.010  0.00  0.00    +0.000 C 
ATOM     29  O   UNL     1      -8.281  -3.278 133.864  0.00  0.00    +0.000 OA
BRANCH  28  30
ATOM     30  O   UNL     1      -6.281  -3.887 133.112  0.00  0.00    +0.000 OA
ATOM     31  H   UNL     1      -6.283  -4.822 132.860  0.00  0.00    +0.000 HD
ENDBRANCH  28  30
ENDBRANCH   8  28
TORSDOF 5
ENDMDL
MODEL 7
REMARK VINA RESULT:      -6.7      4.099      5.966
REMARK  Name = Finafloxacin
REMARK  5 active torsions:
REMARK  status: ('A' for Active; 'I' for Inactive)
REMARK    1  A    between atoms: N_4  and  C_12
REMARK    2  A    between atoms: C_19  and  C_29
REMARK    3  A    between atoms: N_21  and  C_22
REMARK    4  A    between atoms: C_26  and  C_27
REMARK    5  A    between atoms: C_29  and  O_30
REMARK                            x       y       z     vdW  Elec       q    Type
REMARK                         _______ _______ _______ _____ _____    ______ ____
ROOT
ATOM      1  C   UNL     1      -7.890   1.731 124.746  0.00  0.00    +0.000 A 
ATOM      2  C   UNL     1      -7.739   2.489 125.918  0.00  0.00    +0.000 A 
ATOM      3  F   UNL     1      -7.712   3.829 125.846  0.00  0.00    +0.000 F 
ATOM      4  C   UNL     1      -7.651   1.903 127.165  0.00  0.00    +0.000 A 
ATOM      5  C   UNL     1      -7.689   0.512 127.273  0.00  0.00    +0.000 A 
ATOM      6  C   UNL     1      -7.553  -0.072 128.628  0.00  0.00    +0.000 A 
ATOM      7  O   UNL     1      -7.433   0.693 129.578  0.00  0.00    +0.000 OA
ATOM      8  C   UNL     1      -7.567  -1.555 128.777  0.00  0.00    +0.000 A 
ATOM      9  C   UNL     1      -7.689  -2.248 127.634  0.00  0.00    +0.000 A 
ATOM     10  N   UNL     1      -7.802  -1.740 126.350  0.00  0.00    +0.000 N 
ATOM     11  C   UNL     1      -7.840  -0.317 126.139  0.00  0.00    +0.000 A 
ATOM     12  C   UNL     1      -7.976   0.324 124.871  0.00  0.00    +0.000 A 
ENDROOT
BRANCH   1  15
ATOM     13  C   UNL     1      -7.064   3.112 121.462  0.00  0.00    +0.000 C 
ATOM     14  C   UNL     1      -6.649   2.827 122.910  0.00  0.00    +0.000 C 
ATOM     15  N   UNL     1      -7.890   2.352 123.520  0.00  0.00    +0.000 N 
ATOM     16  C   UNL     1      -9.064   2.557 122.665  0.00  0.00    +0.000 C 
ATOM     17  C   UNL     1      -8.545   3.514 121.596  0.00  0.00    +0.000 C 
ATOM     18  O   UNL     1      -9.161   3.447 120.308  0.00  0.00    +0.000 OA
ATOM     19  C   UNL     1      -8.525   4.425 119.456  0.00  0.00    +0.000 C 
ATOM     20  C   UNL     1      -6.986   4.256 119.392  0.00  0.00    +0.000 C 
ATOM     21  N   UNL     1      -6.337   4.162 120.723  0.00  0.00    +0.000 NA
ATOM     22  H   UNL     1      -6.479   5.048 121.213  0.00  0.00    +0.000 HD
ENDBRANCH   1  15
BRANCH  10  23
ATOM     23  C   UNL     1      -7.935  -2.662 125.212  0.00  0.00    +0.000 C 
ATOM     24  C   UNL     1      -8.001  -4.142 125.045  0.00  0.00    +0.000 C 
ATOM     25  C   UNL     1      -9.272  -3.361 125.048  0.00  0.00    +0.000 C 
ENDBRANCH  10  23
BRANCH  12  26
ATOM     26  C   UNL     1      -8.136  -0.399 123.639  0.00  0.00    +0.000 C 
ATOM     27  N   UNL     1      -8.289  -0.996 122.645  0.00  0.00    +0.000 NA
ENDBRANCH  12  26
BRANCH   8  28
ATOM     28  C   UNL     1      -7.444  -2.162 130.129  0.00  0.00    +0.000 C 
ATOM     29  O   UNL     1      -7.943  -3.234 130.436  0.00  0.00    +0.000 OA
BRANCH  28  30
ATOM     30  O   UNL     1      -6.739  -1.471 131.048  0.00  0.00    +0.000 OA
ATOM     31  H   UNL     1      -6.070  -0.832 130.763  0.00  0.00    +0.000 HD
ENDBRANCH  28  30
ENDBRANCH   8  28
TORSDOF 5
ENDMDL
MODEL 8
REMARK VINA RESULT:      -6.7      3.563      6.776
REMARK  Name = Finafloxacin
REMARK  5 active torsions:
REMARK  status: ('A' for Active; 'I' for Inactive)
REMARK    1  A    between atoms: N_4  and  C_12
REMARK    2  A    between atoms: C_19  and  C_29
REMARK    3  A    between atoms: N_21  and  C_22
REMARK    4  A    between atoms: C_26  and  C_27
REMARK    5  A    between atoms: C_29  and  O_30
REMARK                            x       y       z     vdW  Elec       q    Type
REMARK                         _______ _______ _______ _____ _____    ______ ____
ROOT
ATOM      1  C   UNL     1      -7.421  -2.053 128.494  0.00  0.00    +0.000 A 
ATOM      2  C   UNL     1      -8.066  -2.918 127.596  0.00  0.00    +0.000 A 
ATOM      3  F   UNL     1      -8.177  -4.223 127.892  0.00  0.00    +0.000 F 
ATOM      4  C   UNL     1      -8.629  -2.469 126.418  0.00  0.00    +0.000 A 
ATOM      5  C   UNL     1      -8.540  -1.115 126.089  0.00  0.00    +0.000 A 
ATOM      6  C   UNL     1      -9.126  -0.687 124.798  0.00  0.00    +0.000 A 
ATOM      7  O   UNL     1      -9.670  -1.534 124.100  0.00  0.00    +0.000 OA
ATOM      8  C   UNL     1      -9.029   0.748 124.405  0.00  0.00    +0.000 A 
ATOM      9  C   UNL     1      -8.386   1.543 125.276  0.00  0.00    +0.000 A 
ATOM     10  N   UNL     1      -7.812   1.176 126.482  0.00  0.00    +0.000 N 
ATOM     11  C   UNL     1      -7.908  -0.184 126.942  0.00  0.00    +0.000 A 
ATOM     12  C   UNL     1      -7.379  -0.675 128.175  0.00  0.00    +0.000 A 
ENDROOT
BRANCH   1  15
ATOM     13  C   UNL     1      -6.593  -3.602 131.701  0.00  0.00    +0.000 C 
ATOM     14  C   UNL     1      -7.529  -2.715 130.874  0.00  0.00    +0.000 C 
ATOM     15  N   UNL     1      -6.804  -2.557 129.613  0.00  0.00    +0.000 N 
ATOM     16  C   UNL     1      -5.422  -3.044 129.684  0.00  0.00    +0.000 C 
ATOM     17  C   UNL     1      -5.196  -3.215 131.182  0.00  0.00    +0.000 C 
ATOM     18  O   UNL     1      -4.258  -4.214 131.589  0.00  0.00    +0.000 OA
ATOM     19  C   UNL     1      -4.198  -4.210 133.033  0.00  0.00    +0.000 C 
ATOM     20  C   UNL     1      -5.588  -4.391 133.693  0.00  0.00    +0.000 C 
ATOM     21  N   UNL     1      -6.625  -3.467 133.170  0.00  0.00    +0.000 NA
ATOM     22  H   UNL     1      -6.350  -2.511 133.405  0.00  0.00    +0.000 HD
ENDBRANCH   1  15
BRANCH  10  23
ATOM     23  C   UNL     1      -7.152   2.196 127.312  0.00  0.00    +0.000 C 
ATOM     24  C   UNL     1      -6.807   3.637 127.152  0.00  0.00    +0.000 C 
ATOM     25  C   UNL     1      -8.038   3.272 127.912  0.00  0.00    +0.000 C 
ENDBRANCH  10  23
BRANCH  12  26
ATOM     26  C   UNL     1      -6.713   0.164 129.133  0.00  0.00    +0.000 C 
ATOM     27  N   UNL     1      -6.178   0.830 129.931  0.00  0.00    +0.000 NA
ENDBRANCH  12  26
BRANCH   8  28
ATOM     28  C   UNL     1      -9.621   1.203 123.119  0.00  0.00    +0.000 C 
ATOM     29  O   UNL     1      -9.199   2.155 122.479  0.00  0.00    +0.000 OA
BRANCH  28  30
ATOM     30  O   UNL     1     -10.682   0.509 122.654  0.00  0.00    +0.000 OA
ATOM     31  H   UNL     1     -11.578   0.772 122.908  0.00  0.00    +0.000 HD
ENDBRANCH  28  30
ENDBRANCH   8  28
TORSDOF 5
ENDMDL
MODEL 9
REMARK VINA RESULT:      -6.7      5.673      7.196
REMARK  Name = Finafloxacin
REMARK  5 active torsions:
REMARK  status: ('A' for Active; 'I' for Inactive)
REMARK    1  A    between atoms: N_4  and  C_12
REMARK    2  A    between atoms: C_19  and  C_29
REMARK    3  A    between atoms: N_21  and  C_22
REMARK    4  A    between atoms: C_26  and  C_27
REMARK    5  A    between atoms: C_29  and  O_30
REMARK                            x       y       z     vdW  Elec       q    Type
REMARK                         _______ _______ _______ _____ _____    ______ ____
ROOT
ATOM      1  C   UNL     1      -8.855   3.197 131.311  0.00  0.00    +0.000 A 
ATOM      2  C   UNL     1      -8.634   3.217 132.697  0.00  0.00    +0.000 A 
ATOM      3  F   UNL     1      -9.169   4.197 133.443  0.00  0.00    +0.000 F 
ATOM      4  C   UNL     1      -7.906   2.236 133.340  0.00  0.00    +0.000 A 
ATOM      5  C   UNL     1      -7.347   1.198 132.592  0.00  0.00    +0.000 A 
ATOM      6  C   UNL     1      -6.542   0.189 133.319  0.00  0.00    +0.000 A 
ATOM      7  O   UNL     1      -6.425   0.308 134.534  0.00  0.00    +0.000 OA
ATOM      8  C   UNL     1      -5.913  -0.921 132.549  0.00  0.00    +0.000 A 
ATOM      9  C   UNL     1      -6.126  -0.896 131.223  0.00  0.00    +0.000 A 
ATOM     10  N   UNL     1      -6.857   0.037 130.507  0.00  0.00    +0.000 N 
ATOM     11  C   UNL     1      -7.527   1.109 131.194  0.00  0.00    +0.000 A 
ATOM     12  C   UNL     1      -8.327   2.115 130.570  0.00  0.00    +0.000 A 
ENDROOT
BRANCH   1  15
ATOM     13  C   UNL     1      -9.830   6.128 129.354  0.00  0.00    +0.000 C 
ATOM     14  C   UNL     1      -8.799   5.428 130.246  0.00  0.00    +0.000 C 
ATOM     15  N   UNL     1      -9.516   4.238 130.705  0.00  0.00    +0.000 N 
ATOM     16  C   UNL     1     -10.948   4.275 130.389  0.00  0.00    +0.000 C 
ATOM     17  C   UNL     1     -11.173   5.731 129.994  0.00  0.00    +0.000 C 
ATOM     18  O   UNL     1     -12.226   5.999 129.065  0.00  0.00    +0.000 OA
ATOM     19  C   UNL     1     -12.265   7.425 128.830  0.00  0.00    +0.000 C 
ATOM     20  C   UNL     1     -10.900   7.995 128.369  0.00  0.00    +0.000 C 
ATOM     21  N   UNL     1      -9.760   7.597 129.232  0.00  0.00    +0.000 NA
ATOM     22  H   UNL     1      -9.907   7.998 130.161  0.00  0.00    +0.000 HD
ENDBRANCH   1  15
BRANCH  10  23
ATOM     23  C   UNL     1      -6.986  -0.105 129.048  0.00  0.00    +0.000 C 
ATOM     24  C   UNL     1      -6.334  -0.938 127.999  0.00  0.00    +0.000 C 
ATOM     25  C   UNL     1      -7.658  -1.367 128.539  0.00  0.00    +0.000 C 
ENDBRANCH  10  23
BRANCH  12  26
ATOM     26  C   UNL     1      -8.590   2.143 129.157  0.00  0.00    +0.000 C 
ATOM     27  N   UNL     1      -8.829   2.165 128.013  0.00  0.00    +0.000 NA
ENDBRANCH  12  26
BRANCH   8  28
ATOM     28  C   UNL     1      -5.111  -1.952 133.260  0.00  0.00    +0.000 C 
ATOM     29  O   UNL     1      -5.587  -2.974 133.729  0.00  0.00    +0.000 OA
BRANCH  28  30
ATOM     30  O   UNL     1      -3.786  -1.721 133.381  0.00  0.00    +0.000 OA
ATOM     31  H   UNL     1      -3.293  -1.342 132.638  0.00  0.00    +0.000 HD
ENDBRANCH  28  30
ENDBRANCH   8  28
TORSDOF 5
ENDMDL
