MODEL 1
REMARK VINA RESULT:      -7.1      0.000      0.000
REMARK  Name = Finerenone
REMARK  10 active torsions:
REMARK  status: ('A' for Active; 'I' for Inactive)
REMARK    1  A    between atoms: C_1  and  C_2
REMARK    2  A    between atoms: C_2  and  O_3
REMARK    3  A    between atoms: O_3  and  C_4
REMARK    4  A    between atoms: C_7  and  C_8
REMARK    5  A    between atoms: C_11  and  C_12
REMARK    6  A    between atoms: C_15  and  C_20
REMARK    7  A    between atoms: C_17  and  O_18
REMARK    8  A    between atoms: O_18  and  C_19
REMARK    9  A    between atoms: C_22  and  C_23
REMARK   10  A    between atoms: C_26  and  C_27
REMARK                            x       y       z     vdW  Elec       q    Type
REMARK                         _______ _______ _______ _____ _____    ______ ____
ROOT
ATOM      1  C   UNL     1      -7.481   0.981 127.206  0.00  0.00    +0.000 A 
ATOM      2  N   UNL     1      -6.519   1.524 127.964  0.00  0.00    +0.000 NA
ATOM      3  C   UNL     1      -5.955   2.660 127.481  0.00  0.00    +0.000 A 
ATOM      4  C   UNL     1      -6.330   3.319 126.294  0.00  0.00    +0.000 A 
ATOM      5  C   UNL     1      -5.510   4.488 125.823  0.00  0.00    +0.000 C 
ATOM      6  C   UNL     1      -7.382   2.758 125.540  0.00  0.00    +0.000 A 
ATOM      7  C   UNL     1      -7.897   1.524 125.980  0.00  0.00    +0.000 A 
ATOM      8  C   UNL     1      -8.711   0.672 125.027  0.00  0.00    +0.000 C 
ATOM      9  C   UNL     1      -9.223   1.338 123.757  0.00  0.00    +0.000 C 
ATOM     10  C   UNL     1      -8.719   2.563 123.411  0.00  0.00    +0.000 C 
ATOM     11  C   UNL     1      -8.759   3.041 121.952  0.00  0.00    +0.000 C 
ATOM     12  N   UNL     1      -7.857   3.288 124.293  0.00  0.00    +0.000 N 
ATOM     13  H   UNL     1      -7.190   3.901 123.821  0.00  0.00    +0.000 HD
ENDROOT
BRANCH   8  14
ATOM     14  C   UNL     1      -7.972  -0.686 124.711  0.00  0.00    +0.000 A 
ATOM     15  C   UNL     1      -6.656  -0.501 124.197  0.00  0.00    +0.000 A 
ATOM     16  C   UNL     1      -5.789  -1.560 123.960  0.00  0.00    +0.000 A 
ATOM     17  C   UNL     1      -6.223  -2.856 124.179  0.00  0.00    +0.000 A 
ATOM     18  C   UNL     1      -7.515  -3.084 124.625  0.00  0.00    +0.000 A 
ATOM     19  C   UNL     1      -8.403  -2.037 124.882  0.00  0.00    +0.000 A 
BRANCH  19  20
ATOM     20  O   UNL     1      -9.586  -2.638 125.266  0.00  0.00    +0.000 OA
ATOM     21  C   UNL     1      -9.494  -3.321 126.462  0.00  0.00    +0.000 C 
ENDBRANCH  19  20
BRANCH  17  22
ATOM     22  C   UNL     1      -5.351  -3.964 123.932  0.00  0.00    +0.000 C 
ATOM     23  N   UNL     1      -4.639  -4.846 123.732  0.00  0.00    +0.000 NA
ENDBRANCH  17  22
ENDBRANCH   8  14
BRANCH   9  24
ATOM     24  C   UNL     1     -10.083   0.459 122.858  0.00  0.00    +0.000 C 
ATOM     25  N   UNL     1      -9.477  -0.480 122.087  0.00  0.00    +0.000 N 
ATOM     26  O   UNL     1     -11.301   0.520 122.754  0.00  0.00    +0.000 OA
ATOM     27  H   UNL     1      -8.493  -0.621 121.983  0.00  0.00    +0.000 HD
ATOM     28  H   UNL     1     -10.069  -0.994 121.449  0.00  0.00    +0.000 HD
ENDBRANCH   9  24
BRANCH   1  29
ATOM     29  O   UNL     1      -7.924  -0.289 127.530  0.00  0.00    +0.000 OA
BRANCH  29  31
ATOM     30  C   UNL     1      -6.294  -2.016 127.967  0.00  0.00    +0.000 C 
ATOM     31  C   UNL     1      -7.182  -0.921 128.566  0.00  0.00    +0.000 C 
ENDBRANCH  29  31
ENDBRANCH   1  29
TORSDOF 6
ENDMDL
MODEL 2
REMARK VINA RESULT:      -7.0      1.697      2.555
REMARK  Name = Finerenone
REMARK  10 active torsions:
REMARK  status: ('A' for Active; 'I' for Inactive)
REMARK    1  A    between atoms: C_1  and  C_2
REMARK    2  A    between atoms: C_2  and  O_3
REMARK    3  A    between atoms: O_3  and  C_4
REMARK    4  A    between atoms: C_7  and  C_8
REMARK    5  A    between atoms: C_11  and  C_12
REMARK    6  A    between atoms: C_15  and  C_20
REMARK    7  A    between atoms: C_17  and  O_18
REMARK    8  A    between atoms: O_18  and  C_19
REMARK    9  A    between atoms: C_22  and  C_23
REMARK   10  A    between atoms: C_26  and  C_27
REMARK                            x       y       z     vdW  Elec       q    Type
REMARK                         _______ _______ _______ _____ _____    ______ ____
ROOT
ATOM      1  C   UNL     1      -6.559  -1.380 128.573  0.00  0.00    +0.000 A 
ATOM      2  N   UNL     1      -5.619  -1.370 129.528  0.00  0.00    +0.000 NA
ATOM      3  C   UNL     1      -4.906  -0.220 129.644  0.00  0.00    +0.000 A 
ATOM      4  C   UNL     1      -5.108   0.948 128.884  0.00  0.00    +0.000 A 
ATOM      5  C   UNL     1      -4.139   2.088 129.033  0.00  0.00    +0.000 C 
ATOM      6  C   UNL     1      -6.139   0.931 127.921  0.00  0.00    +0.000 A 
ATOM      7  C   UNL     1      -6.809  -0.291 127.723  0.00  0.00    +0.000 A 
ATOM      8  C   UNL     1      -7.615  -0.505 126.458  0.00  0.00    +0.000 C 
ATOM      9  C   UNL     1      -7.944   0.726 125.623  0.00  0.00    +0.000 C 
ATOM     10  C   UNL     1      -7.295   1.898 125.899  0.00  0.00    +0.000 C 
ATOM     11  C   UNL     1      -7.159   2.988 124.827  0.00  0.00    +0.000 C 
ATOM     12  N   UNL     1      -6.448   2.026 127.045  0.00  0.00    +0.000 N 
ATOM     13  H   UNL     1      -5.685   2.696 126.933  0.00  0.00    +0.000 HD
ENDROOT
BRANCH   8  14
ATOM     14  C   UNL     1      -6.988  -1.652 125.575  0.00  0.00    +0.000 A 
ATOM     15  C   UNL     1      -5.601  -1.459 125.309  0.00  0.00    +0.000 A 
ATOM     16  C   UNL     1      -4.827  -2.404 124.649  0.00  0.00    +0.000 A 
ATOM     17  C   UNL     1      -5.421  -3.563 124.181  0.00  0.00    +0.000 A 
ATOM     18  C   UNL     1      -6.779  -3.766 124.369  0.00  0.00    +0.000 A 
ATOM     19  C   UNL     1      -7.578  -2.837 125.038  0.00  0.00    +0.000 A 
BRANCH  19  20
ATOM     20  O   UNL     1      -8.860  -3.351 125.000  0.00  0.00    +0.000 OA
ATOM     21  C   UNL     1      -9.416  -3.350 123.736  0.00  0.00    +0.000 C 
ENDBRANCH  19  20
BRANCH  17  22
ATOM     22  C   UNL     1      -4.646  -4.548 123.488  0.00  0.00    +0.000 C 
ATOM     23  N   UNL     1      -4.013  -5.329 122.928  0.00  0.00    +0.000 NA
ENDBRANCH  17  22
ENDBRANCH   8  14
BRANCH   9  24
ATOM     24  C   UNL     1      -8.804   0.469 124.392  0.00  0.00    +0.000 C 
ATOM     25  N   UNL     1      -8.193   0.298 123.191  0.00  0.00    +0.000 N 
ATOM     26  O   UNL     1     -10.026   0.406 124.375  0.00  0.00    +0.000 OA
ATOM     27  H   UNL     1      -7.217   0.394 123.001  0.00  0.00    +0.000 HD
ATOM     28  H   UNL     1      -8.796   0.204 122.385  0.00  0.00    +0.000 HD
ENDBRANCH   9  24
BRANCH   1  29
ATOM     29  O   UNL     1      -7.150  -2.590 128.258  0.00  0.00    +0.000 OA
BRANCH  29  31
ATOM     30  C   UNL     1      -9.135  -3.960 128.392  0.00  0.00    +0.000 C 
ATOM     31  C   UNL     1      -8.229  -2.955 129.111  0.00  0.00    +0.000 C 
ENDBRANCH  29  31
ENDBRANCH   1  29
TORSDOF 6
ENDMDL
MODEL 3
REMARK VINA RESULT:      -6.9      2.225      5.083
REMARK  Name = Finerenone
REMARK  10 active torsions:
REMARK  status: ('A' for Active; 'I' for Inactive)
REMARK    1  A    between atoms: C_1  and  C_2
REMARK    2  A    between atoms: C_2  and  O_3
REMARK    3  A    between atoms: O_3  and  C_4
REMARK    4  A    between atoms: C_7  and  C_8
REMARK    5  A    between atoms: C_11  and  C_12
REMARK    6  A    between atoms: C_15  and  C_20
REMARK    7  A    between atoms: C_17  and  O_18
REMARK    8  A    between atoms: O_18  and  C_19
REMARK    9  A    between atoms: C_22  and  C_23
REMARK   10  A    between atoms: C_26  and  C_27
REMARK                            x       y       z     vdW  Elec       q    Type
REMARK                         _______ _______ _______ _____ _____    ______ ____
ROOT
ATOM      1  C   UNL     1      -6.713  -2.198 123.801  0.00  0.00    +0.000 A 
ATOM      2  N   UNL     1      -7.598  -2.778 122.979  0.00  0.00    +0.000 NA
ATOM      3  C   UNL     1      -8.652  -2.007 122.606  0.00  0.00    +0.000 A 
ATOM      4  C   UNL     1      -8.853  -0.662 122.973  0.00  0.00    +0.000 A 
ATOM      5  C   UNL     1     -10.144   0.008 122.595  0.00  0.00    +0.000 C 
ATOM      6  C   UNL     1      -7.879  -0.058 123.795  0.00  0.00    +0.000 A 
ATOM      7  C   UNL     1      -6.842  -0.882 124.272  0.00  0.00    +0.000 A 
ATOM      8  C   UNL     1      -6.017  -0.433 125.460  0.00  0.00    +0.000 C 
ATOM      9  C   UNL     1      -6.118   1.031 125.869  0.00  0.00    +0.000 C 
ATOM     10  C   UNL     1      -7.119   1.794 125.330  0.00  0.00    +0.000 C 
ATOM     11  C   UNL     1      -7.614   3.056 126.051  0.00  0.00    +0.000 C 
ATOM     12  N   UNL     1      -7.955   1.290 124.284  0.00  0.00    +0.000 N 
ATOM     13  H   UNL     1      -8.898   1.685 124.272  0.00  0.00    +0.000 HD
ENDROOT
BRANCH   8  14
ATOM     14  C   UNL     1      -6.232  -1.394 126.694  0.00  0.00    +0.000 A 
ATOM     15  C   UNL     1      -5.013  -1.777 127.324  0.00  0.00    +0.000 A 
ATOM     16  C   UNL     1      -4.978  -2.525 128.494  0.00  0.00    +0.000 A 
ATOM     17  C   UNL     1      -6.165  -2.964 129.056  0.00  0.00    +0.000 A 
ATOM     18  C   UNL     1      -7.371  -2.661 128.444  0.00  0.00    +0.000 A 
ATOM     19  C   UNL     1      -7.435  -1.902 127.273  0.00  0.00    +0.000 A 
BRANCH  19  20
ATOM     20  O   UNL     1      -8.774  -1.838 126.942  0.00  0.00    +0.000 OA
ATOM     21  C   UNL     1      -9.228  -2.951 126.263  0.00  0.00    +0.000 C 
ENDBRANCH  19  20
BRANCH  17  22
ATOM     22  C   UNL     1      -6.155  -3.745 130.256  0.00  0.00    +0.000 C 
ATOM     23  N   UNL     1      -6.135  -4.380 131.215  0.00  0.00    +0.000 NA
ENDBRANCH  17  22
ENDBRANCH   8  14
BRANCH   9  24
ATOM     24  C   UNL     1      -5.229   1.448 127.033  0.00  0.00    +0.000 C 
ATOM     25  N   UNL     1      -3.940   1.794 126.781  0.00  0.00    +0.000 N 
ATOM     26  O   UNL     1      -5.567   1.498 128.208  0.00  0.00    +0.000 OA
ATOM     27  H   UNL     1      -3.470   1.738 125.900  0.00  0.00    +0.000 HD
ATOM     28  H   UNL     1      -3.358   1.993 127.583  0.00  0.00    +0.000 HD
ENDBRANCH   9  24
BRANCH   1  29
ATOM     29  O   UNL     1      -5.755  -3.001 124.393  0.00  0.00    +0.000 OA
BRANCH  29  31
ATOM     30  C   UNL     1      -4.394  -4.820 123.571  0.00  0.00    +0.000 C 
ATOM     31  C   UNL     1      -4.648  -3.308 123.553  0.00  0.00    +0.000 C 
ENDBRANCH  29  31
ENDBRANCH   1  29
TORSDOF 6
ENDMDL
MODEL 4
REMARK VINA RESULT:      -6.9      1.869      6.437
REMARK  Name = Finerenone
REMARK  10 active torsions:
REMARK  status: ('A' for Active; 'I' for Inactive)
REMARK    1  A    between atoms: C_1  and  C_2
REMARK    2  A    between atoms: C_2  and  O_3
REMARK    3  A    between atoms: O_3  and  C_4
REMARK    4  A    between atoms: C_7  and  C_8
REMARK    5  A    between atoms: C_11  and  C_12
REMARK    6  A    between atoms: C_15  and  C_20
REMARK    7  A    between atoms: C_17  and  O_18
REMARK    8  A    between atoms: O_18  and  C_19
REMARK    9  A    between atoms: C_22  and  C_23
REMARK   10  A    between atoms: C_26  and  C_27
REMARK                            x       y       z     vdW  Elec       q    Type
REMARK                         _______ _______ _______ _____ _____    ______ ____
ROOT
ATOM      1  C   UNL     1      -8.222  -0.986 124.358  0.00  0.00    +0.000 A 
ATOM      2  N   UNL     1      -7.994  -1.343 123.087  0.00  0.00    +0.000 NA
ATOM      3  C   UNL     1      -6.921  -2.150 122.884  0.00  0.00    +0.000 A 
ATOM      4  C   UNL     1      -6.081  -2.664 123.891  0.00  0.00    +0.000 A 
ATOM      5  C   UNL     1      -4.849  -3.426 123.489  0.00  0.00    +0.000 C 
ATOM      6  C   UNL     1      -6.374  -2.316 125.226  0.00  0.00    +0.000 A 
ATOM      7  C   UNL     1      -7.418  -1.395 125.434  0.00  0.00    +0.000 A 
ATOM      8  C   UNL     1      -7.521  -0.668 126.759  0.00  0.00    +0.000 C 
ATOM      9  C   UNL     1      -6.702  -1.215 127.921  0.00  0.00    +0.000 C 
ATOM     10  C   UNL     1      -5.736  -2.148 127.660  0.00  0.00    +0.000 C 
ATOM     11  C   UNL     1      -4.557  -2.342 128.624  0.00  0.00    +0.000 C 
ATOM     12  N   UNL     1      -5.596  -2.728 126.360  0.00  0.00    +0.000 N 
ATOM     13  H   UNL     1      -4.643  -3.017 126.128  0.00  0.00    +0.000 HD
ENDROOT
BRANCH   8  14
ATOM     14  C   UNL     1      -7.297   0.883 126.572  0.00  0.00    +0.000 A 
ATOM     15  C   UNL     1      -6.181   1.191 125.742  0.00  0.00    +0.000 A 
ATOM     16  C   UNL     1      -5.873   2.488 125.353  0.00  0.00    +0.000 A 
ATOM     17  C   UNL     1      -6.642   3.539 125.822  0.00  0.00    +0.000 A 
ATOM     18  C   UNL     1      -7.703   3.289 126.677  0.00  0.00    +0.000 A 
ATOM     19  C   UNL     1      -8.041   1.994 127.075  0.00  0.00    +0.000 A 
BRANCH  19  20
ATOM     20  O   UNL     1      -9.107   2.136 127.942  0.00  0.00    +0.000 OA
ATOM     21  C   UNL     1      -8.762   2.704 129.152  0.00  0.00    +0.000 C 
ENDBRANCH  19  20
BRANCH  17  22
ATOM     22  C   UNL     1      -6.337   4.886 125.444  0.00  0.00    +0.000 C 
ATOM     23  N   UNL     1      -6.081   5.964 125.134  0.00  0.00    +0.000 NA
ENDBRANCH  17  22
ENDBRANCH   8  14
BRANCH   9  24
ATOM     24  C   UNL     1      -6.882  -0.486 129.246  0.00  0.00    +0.000 C 
ATOM     25  N   UNL     1      -7.945  -0.802 130.030  0.00  0.00    +0.000 N 
ATOM     26  O   UNL     1      -6.145   0.387 129.687  0.00  0.00    +0.000 OA
ATOM     27  H   UNL     1      -8.689  -1.428 129.799  0.00  0.00    +0.000 HD
ATOM     28  H   UNL     1      -8.074  -0.247 130.865  0.00  0.00    +0.000 HD
ENDBRANCH   9  24
BRANCH   1  29
ATOM     29  O   UNL     1      -9.151   0.013 124.594  0.00  0.00    +0.000 OA
BRANCH  29  31
ATOM     30  C   UNL     1      -9.151   2.142 123.455  0.00  0.00    +0.000 C 
ATOM     31  C   UNL     1      -9.605   0.679 123.422  0.00  0.00    +0.000 C 
ENDBRANCH  29  31
ENDBRANCH   1  29
TORSDOF 6
ENDMDL
MODEL 5
REMARK VINA RESULT:      -6.9      2.385      5.431
REMARK  Name = Finerenone
REMARK  10 active torsions:
REMARK  status: ('A' for Active; 'I' for Inactive)
REMARK    1  A    between atoms: C_1  and  C_2
REMARK    2  A    between atoms: C_2  and  O_3
REMARK    3  A    between atoms: O_3  and  C_4
REMARK    4  A    between atoms: C_7  and  C_8
REMARK    5  A    between atoms: C_11  and  C_12
REMARK    6  A    between atoms: C_15  and  C_20
REMARK    7  A    between atoms: C_17  and  O_18
REMARK    8  A    between atoms: O_18  and  C_19
REMARK    9  A    between atoms: C_22  and  C_23
REMARK   10  A    between atoms: C_26  and  C_27
REMARK                            x       y       z     vdW  Elec       q    Type
REMARK                         _______ _______ _______ _____ _____    ______ ____
ROOT
ATOM      1  C   UNL     1      -6.198  -2.322 128.228  0.00  0.00    +0.000 A 
ATOM      2  N   UNL     1      -6.679  -2.710 129.417  0.00  0.00    +0.000 NA
ATOM      3  C   UNL     1      -7.879  -3.344 129.390  0.00  0.00    +0.000 A 
ATOM      4  C   UNL     1      -8.614  -3.657 128.230  0.00  0.00    +0.000 A 
ATOM      5  C   UNL     1      -9.995  -4.232 128.379  0.00  0.00    +0.000 C 
ATOM      6  C   UNL     1      -8.061  -3.285 126.987  0.00  0.00    +0.000 A 
ATOM      7  C   UNL     1      -6.870  -2.534 127.015  0.00  0.00    +0.000 A 
ATOM      8  C   UNL     1      -6.447  -1.758 125.784  0.00  0.00    +0.000 C 
ATOM      9  C   UNL     1      -7.141  -2.098 124.472  0.00  0.00    +0.000 C 
ATOM     10  C   UNL     1      -8.266  -2.876 124.507  0.00  0.00    +0.000 C 
ATOM     11  C   UNL     1      -9.291  -2.822 123.365  0.00  0.00    +0.000 C 
ATOM     12  N   UNL     1      -8.700  -3.500 125.719  0.00  0.00    +0.000 N 
ATOM     13  H   UNL     1      -9.709  -3.644 125.781  0.00  0.00    +0.000 HD
ENDROOT
BRANCH   8  14
ATOM     14  C   UNL     1      -6.463  -0.205 126.062  0.00  0.00    +0.000 A 
ATOM     15  C   UNL     1      -5.176   0.397 125.948  0.00  0.00    +0.000 A 
ATOM     16  C   UNL     1      -4.981   1.769 126.038  0.00  0.00    +0.000 A 
ATOM     17  C   UNL     1      -6.062   2.594 126.300  0.00  0.00    +0.000 A 
ATOM     18  C   UNL     1      -7.322   2.044 126.474  0.00  0.00    +0.000 A 
ATOM     19  C   UNL     1      -7.547   0.669 126.377  0.00  0.00    +0.000 A 
BRANCH  19  20
ATOM     20  O   UNL     1      -8.892   0.492 126.642  0.00  0.00    +0.000 OA
ATOM     21  C   UNL     1      -9.686   0.536 125.515  0.00  0.00    +0.000 C 
ENDBRANCH  19  20
BRANCH  17  22
ATOM     22  C   UNL     1      -5.884   4.010 126.409  0.00  0.00    +0.000 C 
ATOM     23  N   UNL     1      -5.751   5.149 126.507  0.00  0.00    +0.000 NA
ENDBRANCH  17  22
ENDBRANCH   8  14
BRANCH   9  24
ATOM     24  C   UNL     1      -6.643  -1.332 123.252  0.00  0.00    +0.000 C 
ATOM     25  N   UNL     1      -5.853  -1.974 122.354  0.00  0.00    +0.000 N 
ATOM     26  O   UNL     1      -6.886  -0.160 122.997  0.00  0.00    +0.000 OA
ATOM     27  H   UNL     1      -5.488  -2.901 122.437  0.00  0.00    +0.000 HD
ATOM     28  H   UNL     1      -5.480  -1.416 121.598  0.00  0.00    +0.000 HD
ENDBRANCH   9  24
BRANCH   1  29
ATOM     29  O   UNL     1      -5.103  -1.475 128.217  0.00  0.00    +0.000 OA
BRANCH  29  31
ATOM     30  C   UNL     1      -4.829   0.496 129.585  0.00  0.00    +0.000 C 
ATOM     31  C   UNL     1      -4.695  -1.028 129.505  0.00  0.00    +0.000 C 
ENDBRANCH  29  31
ENDBRANCH   1  29
TORSDOF 6
ENDMDL
MODEL 6
REMARK VINA RESULT:      -6.5      6.251      9.465
REMARK  Name = Finerenone
REMARK  10 active torsions:
REMARK  status: ('A' for Active; 'I' for Inactive)
REMARK    1  A    between atoms: C_1  and  C_2
REMARK    2  A    between atoms: C_2  and  O_3
REMARK    3  A    between atoms: O_3  and  C_4
REMARK    4  A    between atoms: C_7  and  C_8
REMARK    5  A    between atoms: C_11  and  C_12
REMARK    6  A    between atoms: C_15  and  C_20
REMARK    7  A    between atoms: C_17  and  O_18
REMARK    8  A    between atoms: O_18  and  C_19
REMARK    9  A    between atoms: C_22  and  C_23
REMARK   10  A    between atoms: C_26  and  C_27
REMARK                            x       y       z     vdW  Elec       q    Type
REMARK                         _______ _______ _______ _____ _____    ______ ____
ROOT
ATOM      1  C   UNL     1      -5.494   5.271 129.761  0.00  0.00    +0.000 A 
ATOM      2  N   UNL     1      -4.542   6.108 129.326  0.00  0.00    +0.000 NA
ATOM      3  C   UNL     1      -3.847   6.764 130.290  0.00  0.00    +0.000 A 
ATOM      4  C   UNL     1      -4.018   6.600 131.678  0.00  0.00    +0.000 A 
ATOM      5  C   UNL     1      -3.271   7.509 132.614  0.00  0.00    +0.000 C 
ATOM      6  C   UNL     1      -4.991   5.675 132.111  0.00  0.00    +0.000 A 
ATOM      7  C   UNL     1      -5.786   5.071 131.119  0.00  0.00    +0.000 A 
ATOM      8  C   UNL     1      -7.091   4.406 131.509  0.00  0.00    +0.000 C 
ATOM      9  C   UNL     1      -7.314   4.121 132.989  0.00  0.00    +0.000 C 
ATOM     10  C   UNL     1      -6.474   4.698 133.902  0.00  0.00    +0.000 C 
ATOM     11  C   UNL     1      -6.922   4.905 135.356  0.00  0.00    +0.000 C 
ATOM     12  N   UNL     1      -5.310   5.419 133.488  0.00  0.00    +0.000 N 
ATOM     13  H   UNL     1      -5.027   6.165 134.126  0.00  0.00    +0.000 HD
ENDROOT
BRANCH   8  14
ATOM     14  C   UNL     1      -8.322   5.160 130.873  0.00  0.00    +0.000 A 
ATOM     15  C   UNL     1      -8.251   6.575 131.024  0.00  0.00    +0.000 A 
ATOM     16  C   UNL     1      -9.170   7.438 130.440  0.00  0.00    +0.000 A 
ATOM     17  C   UNL     1     -10.231   6.915 129.721  0.00  0.00    +0.000 A 
ATOM     18  C   UNL     1     -10.370   5.542 129.596  0.00  0.00    +0.000 A 
ATOM     19  C   UNL     1      -9.454   4.653 130.164  0.00  0.00    +0.000 A 
BRANCH  19  20
ATOM     20  O   UNL     1      -9.929   3.390 129.871  0.00  0.00    +0.000 OA
ATOM     21  C   UNL     1      -8.961   2.536 129.382  0.00  0.00    +0.000 C 
ENDBRANCH  19  20
BRANCH  17  22
ATOM     22  C   UNL     1     -11.197   7.783 129.118  0.00  0.00    +0.000 C 
ATOM     23  N   UNL     1     -11.964   8.484 128.623  0.00  0.00    +0.000 NA
ENDBRANCH  17  22
ENDBRANCH   8  14
BRANCH   9  24
ATOM     24  C   UNL     1      -8.614   3.402 133.326  0.00  0.00    +0.000 C 
ATOM     25  N   UNL     1      -9.655   4.124 133.816  0.00  0.00    +0.000 N 
ATOM     26  O   UNL     1      -8.819   2.202 133.202  0.00  0.00    +0.000 OA
ATOM     27  H   UNL     1      -9.645   5.094 134.057  0.00  0.00    +0.000 HD
ATOM     28  H   UNL     1     -10.474   3.604 134.099  0.00  0.00    +0.000 HD
ENDBRANCH   9  24
BRANCH   1  29
ATOM     29  O   UNL     1      -6.380   4.757 128.830  0.00  0.00    +0.000 OA
BRANCH  29  31
ATOM     30  C   UNL     1      -5.280   2.636 128.484  0.00  0.00    +0.000 C 
ATOM     31  C   UNL     1      -5.777   3.934 127.840  0.00  0.00    +0.000 C 
ENDBRANCH  29  31
ENDBRANCH   1  29
TORSDOF 6
ENDMDL
MODEL 7
REMARK VINA RESULT:      -6.4      5.073      7.691
REMARK  Name = Finerenone
REMARK  10 active torsions:
REMARK  status: ('A' for Active; 'I' for Inactive)
REMARK    1  A    between atoms: C_1  and  C_2
REMARK    2  A    between atoms: C_2  and  O_3
REMARK    3  A    between atoms: O_3  and  C_4
REMARK    4  A    between atoms: C_7  and  C_8
REMARK    5  A    between atoms: C_11  and  C_12
REMARK    6  A    between atoms: C_15  and  C_20
REMARK    7  A    between atoms: C_17  and  O_18
REMARK    8  A    between atoms: O_18  and  C_19
REMARK    9  A    between atoms: C_22  and  C_23
REMARK   10  A    between atoms: C_26  and  C_27
REMARK                            x       y       z     vdW  Elec       q    Type
REMARK                         _______ _______ _______ _____ _____    ______ ____
ROOT
ATOM      1  C   UNL     1      -5.109   5.948 130.296  0.00  0.00    +0.000 A 
ATOM      2  N   UNL     1      -5.653   7.151 130.523  0.00  0.00    +0.000 NA
ATOM      3  C   UNL     1      -6.909   7.144 131.037  0.00  0.00    +0.000 A 
ATOM      4  C   UNL     1      -7.646   5.994 131.384  0.00  0.00    +0.000 A 
ATOM      5  C   UNL     1      -9.080   6.151 131.806  0.00  0.00    +0.000 C 
ATOM      6  C   UNL     1      -7.030   4.741 131.185  0.00  0.00    +0.000 A 
ATOM      7  C   UNL     1      -5.772   4.738 130.554  0.00  0.00    +0.000 A 
ATOM      8  C   UNL     1      -5.246   3.456 129.941  0.00  0.00    +0.000 C 
ATOM      9  C   UNL     1      -5.941   2.159 130.332  0.00  0.00    +0.000 C 
ATOM     10  C   UNL     1      -7.138   2.229 130.990  0.00  0.00    +0.000 C 
ATOM     11  C   UNL     1      -8.126   1.054 130.944  0.00  0.00    +0.000 C 
ATOM     12  N   UNL     1      -7.659   3.478 131.454  0.00  0.00    +0.000 N 
ATOM     13  H   UNL     1      -8.679   3.521 131.493  0.00  0.00    +0.000 HD
ENDROOT
BRANCH   8  14
ATOM     14  C   UNL     1      -5.113   3.592 128.374  0.00  0.00    +0.000 A 
ATOM     15  C   UNL     1      -6.356   3.851 127.727  0.00  0.00    +0.000 A 
ATOM     16  C   UNL     1      -6.450   4.118 126.367  0.00  0.00    +0.000 A 
ATOM     17  C   UNL     1      -5.308   4.087 125.587  0.00  0.00    +0.000 A 
ATOM     18  C   UNL     1      -4.085   3.784 126.166  0.00  0.00    +0.000 A 
ATOM     19  C   UNL     1      -3.961   3.522 127.532  0.00  0.00    +0.000 A 
BRANCH  19  20
ATOM     20  O   UNL     1      -2.627   3.228 127.736  0.00  0.00    +0.000 OA
ATOM     21  C   UNL     1      -1.904   3.108 126.565  0.00  0.00    +0.000 C 
ENDBRANCH  19  20
BRANCH  17  22
ATOM     22  C   UNL     1      -5.381   4.349 124.182  0.00  0.00    +0.000 C 
ATOM     23  N   UNL     1      -5.434   4.572 123.054  0.00  0.00    +0.000 NA
ENDBRANCH  17  22
ENDBRANCH   8  14
BRANCH   9  24
ATOM     24  C   UNL     1      -5.342   0.891 129.735  0.00  0.00    +0.000 C 
ATOM     25  N   UNL     1      -4.202   0.388 130.275  0.00  0.00    +0.000 N 
ATOM     26  O   UNL     1      -5.795   0.266 128.786  0.00  0.00    +0.000 OA
ATOM     27  H   UNL     1      -3.651   0.805 130.998  0.00  0.00    +0.000 HD
ATOM     28  H   UNL     1      -3.792  -0.409 129.808  0.00  0.00    +0.000 HD
ENDBRANCH   9  24
BRANCH   1  29
ATOM     29  O   UNL     1      -3.936   5.895 129.564  0.00  0.00    +0.000 OA
BRANCH  29  31
ATOM     30  C   UNL     1      -2.328   6.915 128.078  0.00  0.00    +0.000 C 
ATOM     31  C   UNL     1      -3.579   7.122 128.939  0.00  0.00    +0.000 C 
ENDBRANCH  29  31
ENDBRANCH   1  29
TORSDOF 6
ENDMDL
MODEL 8
REMARK VINA RESULT:      -6.4      6.005      9.080
REMARK  Name = Finerenone
REMARK  10 active torsions:
REMARK  status: ('A' for Active; 'I' for Inactive)
REMARK    1  A    between atoms: C_1  and  C_2
REMARK    2  A    between atoms: C_2  and  O_3
REMARK    3  A    between atoms: O_3  and  C_4
REMARK    4  A    between atoms: C_7  and  C_8
REMARK    5  A    between atoms: C_11  and  C_12
REMARK    6  A    between atoms: C_15  and  C_20
REMARK    7  A    between atoms: C_17  and  O_18
REMARK    8  A    between atoms: O_18  and  C_19
REMARK    9  A    between atoms: C_22  and  C_23
REMARK   10  A    between atoms: C_26  and  C_27
REMARK                            x       y       z     vdW  Elec       q    Type
REMARK                         _______ _______ _______ _____ _____    ______ ____
ROOT
ATOM      1  C   UNL     1      -4.379   2.428 131.869  0.00  0.00    +0.000 A 
ATOM      2  N   UNL     1      -4.817   1.251 132.338  0.00  0.00    +0.000 NA
ATOM      3  C   UNL     1      -4.945   0.260 131.419  0.00  0.00    +0.000 A 
ATOM      4  C   UNL     1      -4.616   0.361 130.054  0.00  0.00    +0.000 A 
ATOM      5  C   UNL     1      -4.952  -0.783 129.139  0.00  0.00    +0.000 C 
ATOM      6  C   UNL     1      -4.106   1.594 129.595  0.00  0.00    +0.000 A 
ATOM      7  C   UNL     1      -4.072   2.656 130.518  0.00  0.00    +0.000 A 
ATOM      8  C   UNL     1      -3.940   4.079 130.016  0.00  0.00    +0.000 C 
ATOM      9  C   UNL     1      -3.507   4.272 128.568  0.00  0.00    +0.000 C 
ATOM     10  C   UNL     1      -3.513   3.188 127.732  0.00  0.00    +0.000 C 
ATOM     11  C   UNL     1      -3.617   3.373 126.212  0.00  0.00    +0.000 C 
ATOM     12  N   UNL     1      -3.757   1.869 128.229  0.00  0.00    +0.000 N 
ATOM     13  H   UNL     1      -4.193   1.238 127.554  0.00  0.00    +0.000 HD
ENDROOT
BRANCH   8  14
ATOM     14  C   UNL     1      -5.234   4.919 130.349  0.00  0.00    +0.000 A 
ATOM     15  C   UNL     1      -6.412   4.399 129.739  0.00  0.00    +0.000 A 
ATOM     16  C   UNL     1      -7.676   4.915 129.992  0.00  0.00    +0.000 A 
ATOM     17  C   UNL     1      -7.809   6.010 130.828  0.00  0.00    +0.000 A 
ATOM     18  C   UNL     1      -6.683   6.582 131.399  0.00  0.00    +0.000 A 
ATOM     19  C   UNL     1      -5.401   6.076 131.170  0.00  0.00    +0.000 A 
BRANCH  19  20
ATOM     20  O   UNL     1      -4.543   6.911 131.858  0.00  0.00    +0.000 OA
ATOM     21  C   UNL     1      -3.847   7.780 131.043  0.00  0.00    +0.000 C 
ENDBRANCH  19  20
BRANCH  17  22
ATOM     22  C   UNL     1      -9.101   6.566 131.096  0.00  0.00    +0.000 C 
ATOM     23  N   UNL     1     -10.134   7.027 131.309  0.00  0.00    +0.000 NA
ENDBRANCH  17  22
ENDBRANCH   8  14
BRANCH   9  24
ATOM     24  C   UNL     1      -3.334   5.719 128.125  0.00  0.00    +0.000 C 
ATOM     25  N   UNL     1      -2.096   6.275 128.173  0.00  0.00    +0.000 N 
ATOM     26  O   UNL     1      -4.226   6.455 127.723  0.00  0.00    +0.000 OA
ATOM     27  H   UNL     1      -1.269   5.855 128.545  0.00  0.00    +0.000 HD
ATOM     28  H   UNL     1      -2.031   7.257 127.943  0.00  0.00    +0.000 HD
ENDBRANCH   9  24
BRANCH   1  29
ATOM     29  O   UNL     1      -4.451   3.527 132.706  0.00  0.00    +0.000 OA
BRANCH  29  31
ATOM     30  C   UNL     1      -6.469   3.910 133.978  0.00  0.00    +0.000 C 
ATOM     31  C   UNL     1      -5.076   3.270 133.958  0.00  0.00    +0.000 C 
ENDBRANCH  29  31
ENDBRANCH   1  29
TORSDOF 6
ENDMDL
MODEL 9
REMARK VINA RESULT:      -6.4      2.895      6.281
REMARK  Name = Finerenone
REMARK  10 active torsions:
REMARK  status: ('A' for Active; 'I' for Inactive)
REMARK    1  A    between atoms: C_1  and  C_2
REMARK    2  A    between atoms: C_2  and  O_3
REMARK    3  A    between atoms: O_3  and  C_4
REMARK    4  A    between atoms: C_7  and  C_8
REMARK    5  A    between atoms: C_11  and  C_12
REMARK    6  A    between atoms: C_15  and  C_20
REMARK    7  A    between atoms: C_17  and  O_18
REMARK    8  A    between atoms: O_18  and  C_19
REMARK    9  A    between atoms: C_22  and  C_23
REMARK   10  A    between atoms: C_26  and  C_27
REMARK                            x       y       z     vdW  Elec       q    Type
REMARK                         _______ _______ _______ _____ _____    ______ ____
ROOT
ATOM      1  C   UNL     1      -6.012  -0.057 127.827  0.00  0.00    +0.000 A 
ATOM      2  N   UNL     1      -5.988  -1.261 128.414  0.00  0.00    +0.000 NA
ATOM      3  C   UNL     1      -6.909  -2.154 127.968  0.00  0.00    +0.000 A 
ATOM      4  C   UNL     1      -7.833  -1.927 126.930  0.00  0.00    +0.000 A 
ATOM      5  C   UNL     1      -8.883  -2.967 126.653  0.00  0.00    +0.000 C 
ATOM      6  C   UNL     1      -7.802  -0.670 126.292  0.00  0.00    +0.000 A 
ATOM      7  C   UNL     1      -6.924   0.295 126.820  0.00  0.00    +0.000 A 
ATOM      8  C   UNL     1      -7.124   1.757 126.475  0.00  0.00    +0.000 C 
ATOM      9  C   UNL     1      -8.048   2.079 125.308  0.00  0.00    +0.000 C 
ATOM     10  C   UNL     1      -8.841   1.083 124.805  0.00  0.00    +0.000 C 
ATOM     11  C   UNL     1     -10.128   1.420 124.040  0.00  0.00    +0.000 C 
ATOM     12  N   UNL     1      -8.699  -0.272 125.243  0.00  0.00    +0.000 N 
ATOM     13  H   UNL     1      -9.559  -0.820 125.201  0.00  0.00    +0.000 HD
ENDROOT
BRANCH   8  14
ATOM     14  C   UNL     1      -7.499   2.595 127.759  0.00  0.00    +0.000 A 
ATOM     15  C   UNL     1      -8.555   2.013 128.518  0.00  0.00    +0.000 A 
ATOM     16  C   UNL     1      -8.965   2.522 129.743  0.00  0.00    +0.000 A 
ATOM     17  C   UNL     1      -8.368   3.670 130.236  0.00  0.00    +0.000 A 
ATOM     18  C   UNL     1      -7.376   4.300 129.503  0.00  0.00    +0.000 A 
ATOM     19  C   UNL     1      -6.937   3.802 128.274  0.00  0.00    +0.000 A 
BRANCH  19  20
ATOM     20  O   UNL     1      -5.984   4.698 127.828  0.00  0.00    +0.000 OA
ATOM     21  C   UNL     1      -4.726   4.467 128.346  0.00  0.00    +0.000 C 
ENDBRANCH  19  20
BRANCH  17  22
ATOM     22  C   UNL     1      -8.781   4.220 131.491  0.00  0.00    +0.000 C 
ATOM     23  N   UNL     1      -9.122   4.672 132.494  0.00  0.00    +0.000 NA
ENDBRANCH  17  22
ENDBRANCH   8  14
BRANCH   9  24
ATOM     24  C   UNL     1      -8.174   3.557 124.963  0.00  0.00    +0.000 C 
ATOM     25  N   UNL     1      -7.357   4.080 124.013  0.00  0.00    +0.000 N 
ATOM     26  O   UNL     1      -8.956   4.346 125.476  0.00  0.00    +0.000 OA
ATOM     27  H   UNL     1      -6.608   3.609 123.546  0.00  0.00    +0.000 HD
ATOM     28  H   UNL     1      -7.416   5.078 123.863  0.00  0.00    +0.000 HD
ENDBRANCH   9  24
BRANCH   1  29
ATOM     29  O   UNL     1      -5.259   0.956 128.396  0.00  0.00    +0.000 OA
BRANCH  29  31
ATOM     30  C   UNL     1      -5.245   1.514 130.746  0.00  0.00    +0.000 C 
ATOM     31  C   UNL     1      -4.669   0.617 129.645  0.00  0.00    +0.000 C 
ENDBRANCH  29  31
ENDBRANCH   1  29
TORSDOF 6
ENDMDL
