MODEL 1
REMARK VINA RESULT:      -6.4      0.000      0.000
REMARK  Name = Fingolimod
REMARK  16 active torsions:
REMARK  status: ('A' for Active; 'I' for Inactive)
REMARK    1  A    between atoms: C_1  and  C_2
REMARK    2  A    between atoms: C_2  and  C_3
REMARK    3  A    between atoms: C_3  and  C_4
REMARK    4  A    between atoms: C_4  and  C_5
REMARK    5  A    between atoms: C_5  and  C_6
REMARK    6  A    between atoms: C_6  and  C_7
REMARK    7  A    between atoms: C_7  and  C_8
REMARK    8  A    between atoms: C_8  and  C_9
REMARK    9  A    between atoms: C_12  and  C_13
REMARK   10  A    between atoms: C_13  and  C_14
REMARK   11  A    between atoms: C_14  and  C_15
REMARK   12  A    between atoms: C_15  and  N_16
REMARK   13  A    between atoms: C_15  and  C_17
REMARK   14  A    between atoms: C_15  and  C_19
REMARK   15  A    between atoms: C_17  and  O_18
REMARK   16  A    between atoms: C_19  and  O_20
REMARK                            x       y       z     vdW  Elec       q    Type
REMARK                         _______ _______ _______ _____ _____    ______ ____
ROOT
ATOM      1  C   UNL     1      -8.594  -2.608 126.414  0.00  0.00    +0.000 A 
ATOM      2  C   UNL     1      -9.157  -3.623 127.197  0.00  0.00    +0.000 A 
ATOM      3  C   UNL     1      -8.671  -3.843 128.477  0.00  0.00    +0.000 A 
ATOM      4  C   UNL     1      -7.574  -3.112 128.937  0.00  0.00    +0.000 A 
ATOM      5  C   UNL     1      -6.991  -2.128 128.131  0.00  0.00    +0.000 A 
ATOM      6  C   UNL     1      -7.503  -1.877 126.869  0.00  0.00    +0.000 A 
ENDROOT
BRANCH   1   7
ATOM      7  C   UNL     1      -9.289  -2.173 125.162  0.00  0.00    +0.000 C 
BRANCH   7   8
ATOM      8  C   UNL     1      -9.073  -3.271 124.125  0.00  0.00    +0.000 C 
BRANCH   8   9
ATOM      9  C   UNL     1      -8.664  -2.664 122.804  0.00  0.00    +0.000 C 
BRANCH   9  10
ATOM     10  C   UNL     1      -7.641  -1.566 123.030  0.00  0.00    +0.000 C 
BRANCH  10  11
ATOM     11  C   UNL     1      -6.268  -2.053 122.598  0.00  0.00    +0.000 C 
BRANCH  11  12
ATOM     12  C   UNL     1      -5.411  -2.367 123.813  0.00  0.00    +0.000 C 
BRANCH  12  14
ATOM     13  C   UNL     1      -4.194  -4.528 123.527  0.00  0.00    +0.000 C 
ATOM     14  C   UNL     1      -5.426  -3.860 124.106  0.00  0.00    +0.000 C 
ENDBRANCH  12  14
ENDBRANCH  11  12
ENDBRANCH  10  11
ENDBRANCH   9  10
ENDBRANCH   8   9
ENDBRANCH   7   8
ENDBRANCH   1   7
BRANCH   4  15
ATOM     15  C   UNL     1      -7.006  -3.496 130.270  0.00  0.00    +0.000 C 
BRANCH  15  16
ATOM     16  C   UNL     1      -5.648  -4.192 130.205  0.00  0.00    +0.000 C 
BRANCH  16  17
ATOM     17  C   UNL     1      -4.473  -3.404 130.806  0.00  0.00    +0.000 C 
BRANCH  17  18
ATOM     18  N   UNL     1      -4.879  -1.990 131.036  0.00  0.00    +0.000 NA
ATOM     19  H   UNL     1      -4.061  -1.427 131.267  0.00  0.00    +0.000 HD
ATOM     20  H   UNL     1      -5.450  -1.951 131.884  0.00  0.00    +0.000 HD
ENDBRANCH  17  18
BRANCH  17  21
ATOM     21  C   UNL     1      -3.956  -4.049 132.123  0.00  0.00    +0.000 C 
BRANCH  21  22
ATOM     22  O   UNL     1      -2.785  -3.416 132.640  0.00  0.00    +0.000 OA
ATOM     23  H   UNL     1      -2.400  -2.901 131.914  0.00  0.00    +0.000 HD
ENDBRANCH  21  22
ENDBRANCH  17  21
BRANCH  17  24
ATOM     24  C   UNL     1      -3.326  -3.412 129.759  0.00  0.00    +0.000 C 
BRANCH  24  25
ATOM     25  O   UNL     1      -2.536  -2.233 129.866  0.00  0.00    +0.000 OA
ATOM     26  H   UNL     1      -3.104  -1.592 130.335  0.00  0.00    +0.000 HD
ENDBRANCH  24  25
ENDBRANCH  17  24
ENDBRANCH  16  17
ENDBRANCH  15  16
ENDBRANCH   4  15
TORSDOF 15
ENDMDL
MODEL 2
REMARK VINA RESULT:      -6.2     10.150     12.404
REMARK  Name = Fingolimod
REMARK  16 active torsions:
REMARK  status: ('A' for Active; 'I' for Inactive)
REMARK    1  A    between atoms: C_1  and  C_2
REMARK    2  A    between atoms: C_2  and  C_3
REMARK    3  A    between atoms: C_3  and  C_4
REMARK    4  A    between atoms: C_4  and  C_5
REMARK    5  A    between atoms: C_5  and  C_6
REMARK    6  A    between atoms: C_6  and  C_7
REMARK    7  A    between atoms: C_7  and  C_8
REMARK    8  A    between atoms: C_8  and  C_9
REMARK    9  A    between atoms: C_12  and  C_13
REMARK   10  A    between atoms: C_13  and  C_14
REMARK   11  A    between atoms: C_14  and  C_15
REMARK   12  A    between atoms: C_15  and  N_16
REMARK   13  A    between atoms: C_15  and  C_17
REMARK   14  A    between atoms: C_15  and  C_19
REMARK   15  A    between atoms: C_17  and  O_18
REMARK   16  A    between atoms: C_19  and  O_20
REMARK                            x       y       z     vdW  Elec       q    Type
REMARK                         _______ _______ _______ _____ _____    ______ ____
ROOT
ATOM      1  C   UNL     1      -8.238   6.225 132.139  0.00  0.00    +0.000 A 
ATOM      2  C   UNL     1      -9.363   6.061 132.956  0.00  0.00    +0.000 A 
ATOM      3  C   UNL     1     -10.628   6.194 132.405  0.00  0.00    +0.000 A 
ATOM      4  C   UNL     1     -10.766   6.575 131.069  0.00  0.00    +0.000 A 
ATOM      5  C   UNL     1      -9.634   6.778 130.271  0.00  0.00    +0.000 A 
ATOM      6  C   UNL     1      -8.370   6.602 130.809  0.00  0.00    +0.000 A 
ENDROOT
BRANCH   1   7
ATOM      7  C   UNL     1      -6.893   5.805 132.645  0.00  0.00    +0.000 C 
BRANCH   7   8
ATOM      8  C   UNL     1      -6.747   4.316 132.344  0.00  0.00    +0.000 C 
BRANCH   8   9
ATOM      9  C   UNL     1      -6.831   3.518 133.624  0.00  0.00    +0.000 C 
BRANCH   9  10
ATOM     10  C   UNL     1      -7.631   2.248 133.394  0.00  0.00    +0.000 C 
BRANCH  10  11
ATOM     11  C   UNL     1      -9.081   2.604 133.114  0.00  0.00    +0.000 C 
BRANCH  11  12
ATOM     12  C   UNL     1      -9.551   1.938 131.832  0.00  0.00    +0.000 C 
BRANCH  12  14
ATOM     13  C   UNL     1      -9.016   3.066 129.669  0.00  0.00    +0.000 C 
ATOM     14  C   UNL     1      -9.999   2.984 130.821  0.00  0.00    +0.000 C 
ENDBRANCH  12  14
ENDBRANCH  11  12
ENDBRANCH  10  11
ENDBRANCH   9  10
ENDBRANCH   8   9
ENDBRANCH   7   8
ENDBRANCH   1   7
BRANCH   4  15
ATOM     15  C   UNL     1     -12.155   6.844 130.574  0.00  0.00    +0.000 C 
BRANCH  15  16
ATOM     16  C   UNL     1     -12.391   8.272 130.086  0.00  0.00    +0.000 C 
BRANCH  16  17
ATOM     17  C   UNL     1     -12.612   8.424 128.573  0.00  0.00    +0.000 C 
BRANCH  17  18
ATOM     18  N   UNL     1     -11.344   8.853 127.919  0.00  0.00    +0.000 NA
ATOM     19  H   UNL     1     -11.523   9.101 126.946  0.00  0.00    +0.000 HD
ATOM     20  H   UNL     1     -10.723   8.042 127.854  0.00  0.00    +0.000 HD
ENDBRANCH  17  18
BRANCH  17  21
ATOM     21  C   UNL     1     -13.146   7.113 127.931  0.00  0.00    +0.000 C 
BRANCH  21  22
ATOM     22  O   UNL     1     -12.405   6.704 126.781  0.00  0.00    +0.000 OA
ATOM     23  H   UNL     1     -12.921   6.971 126.004  0.00  0.00    +0.000 HD
ENDBRANCH  21  22
ENDBRANCH  17  21
BRANCH  17  24
ATOM     24  C   UNL     1     -13.664   9.548 128.369  0.00  0.00    +0.000 C 
BRANCH  24  25
ATOM     25  O   UNL     1     -13.262  10.743 129.029  0.00  0.00    +0.000 OA
ATOM     26  H   UNL     1     -12.434  11.009 128.584  0.00  0.00    +0.000 HD
ENDBRANCH  24  25
ENDBRANCH  17  24
ENDBRANCH  16  17
ENDBRANCH  15  16
ENDBRANCH   4  15
TORSDOF 15
ENDMDL
MODEL 3
REMARK VINA RESULT:      -6.0      4.688      6.298
REMARK  Name = Fingolimod
REMARK  16 active torsions:
REMARK  status: ('A' for Active; 'I' for Inactive)
REMARK    1  A    between atoms: C_1  and  C_2
REMARK    2  A    between atoms: C_2  and  C_3
REMARK    3  A    between atoms: C_3  and  C_4
REMARK    4  A    between atoms: C_4  and  C_5
REMARK    5  A    between atoms: C_5  and  C_6
REMARK    6  A    between atoms: C_6  and  C_7
REMARK    7  A    between atoms: C_7  and  C_8
REMARK    8  A    between atoms: C_8  and  C_9
REMARK    9  A    between atoms: C_12  and  C_13
REMARK   10  A    between atoms: C_13  and  C_14
REMARK   11  A    between atoms: C_14  and  C_15
REMARK   12  A    between atoms: C_15  and  N_16
REMARK   13  A    between atoms: C_15  and  C_17
REMARK   14  A    between atoms: C_15  and  C_19
REMARK   15  A    between atoms: C_17  and  O_18
REMARK   16  A    between atoms: C_19  and  O_20
REMARK                            x       y       z     vdW  Elec       q    Type
REMARK                         _______ _______ _______ _____ _____    ______ ____
ROOT
ATOM      1  C   UNL     1      -8.939  -1.430 126.124  0.00  0.00    +0.000 A 
ATOM      2  C   UNL     1      -7.985  -1.160 127.112  0.00  0.00    +0.000 A 
ATOM      3  C   UNL     1      -7.734   0.155 127.473  0.00  0.00    +0.000 A 
ATOM      4  C   UNL     1      -8.369   1.195 126.791  0.00  0.00    +0.000 A 
ATOM      5  C   UNL     1      -9.291   0.915 125.776  0.00  0.00    +0.000 A 
ATOM      6  C   UNL     1      -9.575  -0.399 125.444  0.00  0.00    +0.000 A 
ENDROOT
BRANCH   1   7
ATOM      7  C   UNL     1      -9.423  -2.834 125.932  0.00  0.00    +0.000 C 
BRANCH   7   8
ATOM      8  C   UNL     1      -9.335  -3.138 124.440  0.00  0.00    +0.000 C 
BRANCH   8   9
ATOM      9  C   UNL     1      -7.903  -3.417 124.051  0.00  0.00    +0.000 C 
BRANCH   9  10
ATOM     10  C   UNL     1      -7.380  -2.306 123.157  0.00  0.00    +0.000 C 
BRANCH  10  11
ATOM     11  C   UNL     1      -6.123  -1.711 123.769  0.00  0.00    +0.000 C 
BRANCH  11  12
ATOM     12  C   UNL     1      -5.300  -2.795 124.446  0.00  0.00    +0.000 C 
BRANCH  12  14
ATOM     13  C   UNL     1      -4.362  -4.919 123.528  0.00  0.00    +0.000 C 
ATOM     14  C   UNL     1      -4.310  -3.405 123.464  0.00  0.00    +0.000 C 
ENDBRANCH  12  14
ENDBRANCH  11  12
ENDBRANCH  10  11
ENDBRANCH   9  10
ENDBRANCH   8   9
ENDBRANCH   7   8
ENDBRANCH   1   7
BRANCH   4  15
ATOM     15  C   UNL     1      -7.948   2.593 127.129  0.00  0.00    +0.000 C 
BRANCH  15  16
ATOM     16  C   UNL     1      -6.817   3.142 126.262  0.00  0.00    +0.000 C 
BRANCH  16  17
ATOM     17  C   UNL     1      -7.244   4.144 125.178  0.00  0.00    +0.000 C 
BRANCH  17  18
ATOM     18  N   UNL     1      -8.647   4.580 125.418  0.00  0.00    +0.000 NA
ATOM     19  H   UNL     1      -8.846   4.575 126.418  0.00  0.00    +0.000 HD
ATOM     20  H   UNL     1      -9.277   3.868 125.039  0.00  0.00    +0.000 HD
ENDBRANCH  17  18
BRANCH  17  21
ATOM     21  C   UNL     1      -6.290   5.371 125.115  0.00  0.00    +0.000 C 
BRANCH  21  22
ATOM     22  O   UNL     1      -5.394   5.446 126.224  0.00  0.00    +0.000 OA
ATOM     23  H   UNL     1      -5.500   4.625 126.728  0.00  0.00    +0.000 HD
ENDBRANCH  21  22
ENDBRANCH  17  21
BRANCH  17  24
ATOM     24  C   UNL     1      -7.196   3.401 123.815  0.00  0.00    +0.000 C 
BRANCH  24  25
ATOM     25  O   UNL     1      -8.407   3.593 123.092  0.00  0.00    +0.000 OA
ATOM     26  H   UNL     1      -8.165   3.456 122.155  0.00  0.00    +0.000 HD
ENDBRANCH  24  25
ENDBRANCH  17  24
ENDBRANCH  16  17
ENDBRANCH  15  16
ENDBRANCH   4  15
TORSDOF 15
ENDMDL
MODEL 4
REMARK VINA RESULT:      -6.0      4.632      7.106
REMARK  Name = Fingolimod
REMARK  16 active torsions:
REMARK  status: ('A' for Active; 'I' for Inactive)
REMARK    1  A    between atoms: C_1  and  C_2
REMARK    2  A    between atoms: C_2  and  C_3
REMARK    3  A    between atoms: C_3  and  C_4
REMARK    4  A    between atoms: C_4  and  C_5
REMARK    5  A    between atoms: C_5  and  C_6
REMARK    6  A    between atoms: C_6  and  C_7
REMARK    7  A    between atoms: C_7  and  C_8
REMARK    8  A    between atoms: C_8  and  C_9
REMARK    9  A    between atoms: C_12  and  C_13
REMARK   10  A    between atoms: C_13  and  C_14
REMARK   11  A    between atoms: C_14  and  C_15
REMARK   12  A    between atoms: C_15  and  N_16
REMARK   13  A    between atoms: C_15  and  C_17
REMARK   14  A    between atoms: C_15  and  C_19
REMARK   15  A    between atoms: C_17  and  O_18
REMARK   16  A    between atoms: C_19  and  O_20
REMARK                            x       y       z     vdW  Elec       q    Type
REMARK                         _______ _______ _______ _____ _____    ______ ____
ROOT
ATOM      1  C   UNL     1      -6.875  -1.387 127.770  0.00  0.00    +0.000 A 
ATOM      2  C   UNL     1      -7.871  -0.406 127.696  0.00  0.00    +0.000 A 
ATOM      3  C   UNL     1      -7.750   0.618 126.769  0.00  0.00    +0.000 A 
ATOM      4  C   UNL     1      -6.600   0.708 125.982  0.00  0.00    +0.000 A 
ATOM      5  C   UNL     1      -5.590  -0.255 126.092  0.00  0.00    +0.000 A 
ATOM      6  C   UNL     1      -5.730  -1.302 126.988  0.00  0.00    +0.000 A 
ENDROOT
BRANCH   1   7
ATOM      7  C   UNL     1      -7.130  -2.637 128.552  0.00  0.00    +0.000 C 
BRANCH   7   8
ATOM      8  C   UNL     1      -8.513  -3.141 128.153  0.00  0.00    +0.000 C 
BRANCH   8   9
ATOM      9  C   UNL     1      -8.478  -3.700 126.751  0.00  0.00    +0.000 C 
BRANCH   9  10
ATOM     10  C   UNL     1      -9.518  -3.009 125.888  0.00  0.00    +0.000 C 
BRANCH  10  11
ATOM     11  C   UNL     1      -8.861  -2.485 124.622  0.00  0.00    +0.000 C 
BRANCH  11  12
ATOM     12  C   UNL     1      -7.555  -3.218 124.361  0.00  0.00    +0.000 C 
BRANCH  12  14
ATOM     13  C   UNL     1      -5.254  -2.939 123.432  0.00  0.00    +0.000 C 
ATOM     14  C   UNL     1      -6.679  -2.420 123.405  0.00  0.00    +0.000 C 
ENDBRANCH  12  14
ENDBRANCH  11  12
ENDBRANCH  10  11
ENDBRANCH   9  10
ENDBRANCH   8   9
ENDBRANCH   7   8
ENDBRANCH   1   7
BRANCH   4  15
ATOM     15  C   UNL     1      -6.464   1.916 125.104  0.00  0.00    +0.000 C 
BRANCH  15  16
ATOM     16  C   UNL     1      -7.004   1.735 123.687  0.00  0.00    +0.000 C 
BRANCH  16  17
ATOM     17  C   UNL     1      -8.026   2.788 123.231  0.00  0.00    +0.000 C 
BRANCH  17  18
ATOM     18  N   UNL     1      -8.106   3.883 124.237  0.00  0.00    +0.000 NA
ATOM     19  H   UNL     1      -7.986   4.786 123.778  0.00  0.00    +0.000 HD
ATOM     20  H   UNL     1      -7.293   3.814 124.856  0.00  0.00    +0.000 HD
ENDBRANCH  17  18
BRANCH  17  21
ATOM     21  C   UNL     1      -7.683   3.357 121.825  0.00  0.00    +0.000 C 
BRANCH  21  22
ATOM     22  O   UNL     1      -8.785   4.012 121.197  0.00  0.00    +0.000 OA
ATOM     23  H   UNL     1      -8.932   3.564 120.348  0.00  0.00    +0.000 HD
ENDBRANCH  21  22
ENDBRANCH  17  21
BRANCH  17  24
ATOM     24  C   UNL     1      -9.413   2.091 123.166  0.00  0.00    +0.000 C 
BRANCH  24  25
ATOM     25  O   UNL     1      -9.264   0.684 123.018  0.00  0.00    +0.000 OA
ATOM     26  H   UNL     1     -10.146   0.366 122.740  0.00  0.00    +0.000 HD
ENDBRANCH  24  25
ENDBRANCH  17  24
ENDBRANCH  16  17
ENDBRANCH  15  16
ENDBRANCH   4  15
TORSDOF 15
ENDMDL
MODEL 5
REMARK VINA RESULT:      -5.9      4.827      6.866
REMARK  Name = Fingolimod
REMARK  16 active torsions:
REMARK  status: ('A' for Active; 'I' for Inactive)
REMARK    1  A    between atoms: C_1  and  C_2
REMARK    2  A    between atoms: C_2  and  C_3
REMARK    3  A    between atoms: C_3  and  C_4
REMARK    4  A    between atoms: C_4  and  C_5
REMARK    5  A    between atoms: C_5  and  C_6
REMARK    6  A    between atoms: C_6  and  C_7
REMARK    7  A    between atoms: C_7  and  C_8
REMARK    8  A    between atoms: C_8  and  C_9
REMARK    9  A    between atoms: C_12  and  C_13
REMARK   10  A    between atoms: C_13  and  C_14
REMARK   11  A    between atoms: C_14  and  C_15
REMARK   12  A    between atoms: C_15  and  N_16
REMARK   13  A    between atoms: C_15  and  C_17
REMARK   14  A    between atoms: C_15  and  C_19
REMARK   15  A    between atoms: C_17  and  O_18
REMARK   16  A    between atoms: C_19  and  O_20
REMARK                            x       y       z     vdW  Elec       q    Type
REMARK                         _______ _______ _______ _____ _____    ______ ____
ROOT
ATOM      1  C   UNL     1      -7.339  -1.595 127.264  0.00  0.00    +0.000 A 
ATOM      2  C   UNL     1      -8.268  -0.548 127.282  0.00  0.00    +0.000 A 
ATOM      3  C   UNL     1      -7.870   0.720 126.888  0.00  0.00    +0.000 A 
ATOM      4  C   UNL     1      -6.533   0.958 126.563  0.00  0.00    +0.000 A 
ATOM      5  C   UNL     1      -5.603  -0.087 126.588  0.00  0.00    +0.000 A 
ATOM      6  C   UNL     1      -6.008  -1.364 126.939  0.00  0.00    +0.000 A 
ENDROOT
BRANCH   1   7
ATOM      7  C   UNL     1      -7.817  -3.007 127.405  0.00  0.00    +0.000 C 
BRANCH   7   8
ATOM      8  C   UNL     1      -8.935  -3.205 126.386  0.00  0.00    +0.000 C 
BRANCH   8   9
ATOM      9  C   UNL     1      -8.357  -3.645 125.061  0.00  0.00    +0.000 C 
BRANCH   9  10
ATOM     10  C   UNL     1      -9.340  -3.356 123.942  0.00  0.00    +0.000 C 
BRANCH  10  11
ATOM     11  C   UNL     1      -8.701  -2.416 122.933  0.00  0.00    +0.000 C 
BRANCH  11  12
ATOM     12  C   UNL     1      -7.259  -2.129 123.318  0.00  0.00    +0.000 C 
BRANCH  12  14
ATOM     13  C   UNL     1      -8.278   0.151 123.344  0.00  0.00    +0.000 C 
ATOM     14  C   UNL     1      -6.982  -0.633 123.268  0.00  0.00    +0.000 C 
ENDBRANCH  12  14
ENDBRANCH  11  12
ENDBRANCH  10  11
ENDBRANCH   9  10
ENDBRANCH   8   9
ENDBRANCH   7   8
ENDBRANCH   1   7
BRANCH   4  15
ATOM     15  C   UNL     1      -6.138   2.377 126.288  0.00  0.00    +0.000 C 
BRANCH  15  16
ATOM     16  C   UNL     1      -5.878   2.690 124.815  0.00  0.00    +0.000 C 
BRANCH  16  17
ATOM     17  C   UNL     1      -6.757   3.796 124.210  0.00  0.00    +0.000 C 
BRANCH  17  18
ATOM     18  N   UNL     1      -6.081   5.115 124.358  0.00  0.00    +0.000 NA
ATOM     19  H   UNL     1      -6.734   5.866 124.137  0.00  0.00    +0.000 HD
ATOM     20  H   UNL     1      -5.363   5.194 123.633  0.00  0.00    +0.000 HD
ENDBRANCH  17  18
BRANCH  17  21
ATOM     21  C   UNL     1      -7.095   3.515 122.719  0.00  0.00    +0.000 C 
BRANCH  21  22
ATOM     22  O   UNL     1      -8.486   3.642 122.422  0.00  0.00    +0.000 OA
ATOM     23  H   UNL     1      -8.959   3.064 123.040  0.00  0.00    +0.000 HD
ENDBRANCH  21  22
ENDBRANCH  17  21
BRANCH  17  24
ATOM     24  C   UNL     1      -8.078   3.837 125.025  0.00  0.00    +0.000 C 
BRANCH  24  25
ATOM     25  O   UNL     1      -8.537   5.175 125.177  0.00  0.00    +0.000 OA
ATOM     26  H   UNL     1      -8.076   5.510 125.971  0.00  0.00    +0.000 HD
ENDBRANCH  24  25
ENDBRANCH  17  24
ENDBRANCH  16  17
ENDBRANCH  15  16
ENDBRANCH   4  15
TORSDOF 15
ENDMDL
MODEL 6
REMARK VINA RESULT:      -5.9      2.118      2.520
REMARK  Name = Fingolimod
REMARK  16 active torsions:
REMARK  status: ('A' for Active; 'I' for Inactive)
REMARK    1  A    between atoms: C_1  and  C_2
REMARK    2  A    between atoms: C_2  and  C_3
REMARK    3  A    between atoms: C_3  and  C_4
REMARK    4  A    between atoms: C_4  and  C_5
REMARK    5  A    between atoms: C_5  and  C_6
REMARK    6  A    between atoms: C_6  and  C_7
REMARK    7  A    between atoms: C_7  and  C_8
REMARK    8  A    between atoms: C_8  and  C_9
REMARK    9  A    between atoms: C_12  and  C_13
REMARK   10  A    between atoms: C_13  and  C_14
REMARK   11  A    between atoms: C_14  and  C_15
REMARK   12  A    between atoms: C_15  and  N_16
REMARK   13  A    between atoms: C_15  and  C_17
REMARK   14  A    between atoms: C_15  and  C_19
REMARK   15  A    between atoms: C_17  and  O_18
REMARK   16  A    between atoms: C_19  and  O_20
REMARK                            x       y       z     vdW  Elec       q    Type
REMARK                         _______ _______ _______ _____ _____    ______ ____
ROOT
ATOM      1  C   UNL     1      -8.624  -2.823 126.485  0.00  0.00    +0.000 A 
ATOM      2  C   UNL     1      -9.156  -3.796 127.339  0.00  0.00    +0.000 A 
ATOM      3  C   UNL     1      -8.592  -3.982 128.592  0.00  0.00    +0.000 A 
ATOM      4  C   UNL     1      -7.453  -3.261 128.954  0.00  0.00    +0.000 A 
ATOM      5  C   UNL     1      -6.904  -2.319 128.077  0.00  0.00    +0.000 A 
ATOM      6  C   UNL     1      -7.491  -2.102 126.842  0.00  0.00    +0.000 A 
ENDROOT
BRANCH   1   7
ATOM      7  C   UNL     1      -9.390  -2.417 125.265  0.00  0.00    +0.000 C 
BRANCH   7   8
ATOM      8  C   UNL     1      -8.908  -3.300 124.119  0.00  0.00    +0.000 C 
BRANCH   8   9
ATOM      9  C   UNL     1      -8.643  -2.459 122.892  0.00  0.00    +0.000 C 
BRANCH   9  10
ATOM     10  C   UNL     1      -7.490  -1.507 123.152  0.00  0.00    +0.000 C 
BRANCH  10  11
ATOM     11  C   UNL     1      -6.195  -2.131 122.661  0.00  0.00    +0.000 C 
BRANCH  11  12
ATOM     12  C   UNL     1      -5.272  -2.427 123.832  0.00  0.00    +0.000 C 
BRANCH  12  14
ATOM     13  C   UNL     1      -4.198  -4.653 123.477  0.00  0.00    +0.000 C 
ATOM     14  C   UNL     1      -5.314  -3.908 124.182  0.00  0.00    +0.000 C 
ENDBRANCH  12  14
ENDBRANCH  11  12
ENDBRANCH  10  11
ENDBRANCH   9  10
ENDBRANCH   8   9
ENDBRANCH   7   8
ENDBRANCH   1   7
BRANCH   4  15
ATOM     15  C   UNL     1      -6.808  -3.611 130.261  0.00  0.00    +0.000 C 
BRANCH  15  16
ATOM     16  C   UNL     1      -7.275  -2.769 131.446  0.00  0.00    +0.000 C 
BRANCH  16  17
ATOM     17  C   UNL     1      -6.319  -2.733 132.649  0.00  0.00    +0.000 C 
BRANCH  17  18
ATOM     18  N   UNL     1      -5.065  -3.464 132.318  0.00  0.00    +0.000 NA
ATOM     19  H   UNL     1      -4.302  -2.801 132.186  0.00  0.00    +0.000 HD
ATOM     20  H   UNL     1      -5.175  -3.896 131.397  0.00  0.00    +0.000 HD
ENDBRANCH  17  18
BRANCH  17  21
ATOM     21  C   UNL     1      -6.006  -1.277 133.096  0.00  0.00    +0.000 C 
BRANCH  21  22
ATOM     22  O   UNL     1      -7.119  -0.622 133.705  0.00  0.00    +0.000 OA
ATOM     23  H   UNL     1      -7.499  -1.247 134.342  0.00  0.00    +0.000 HD
ENDBRANCH  21  22
ENDBRANCH  17  21
BRANCH  17  24
ATOM     24  C   UNL     1      -7.018  -3.478 133.819  0.00  0.00    +0.000 C 
BRANCH  24  25
ATOM     25  O   UNL     1      -8.423  -3.253 133.794  0.00  0.00    +0.000 OA
ATOM     26  H   UNL     1      -8.578  -2.558 134.464  0.00  0.00    +0.000 HD
ENDBRANCH  24  25
ENDBRANCH  17  24
ENDBRANCH  16  17
ENDBRANCH  15  16
ENDBRANCH   4  15
TORSDOF 15
ENDMDL
MODEL 7
REMARK VINA RESULT:      -5.8      9.734     11.100
REMARK  Name = Fingolimod
REMARK  16 active torsions:
REMARK  status: ('A' for Active; 'I' for Inactive)
REMARK    1  A    between atoms: C_1  and  C_2
REMARK    2  A    between atoms: C_2  and  C_3
REMARK    3  A    between atoms: C_3  and  C_4
REMARK    4  A    between atoms: C_4  and  C_5
REMARK    5  A    between atoms: C_5  and  C_6
REMARK    6  A    between atoms: C_6  and  C_7
REMARK    7  A    between atoms: C_7  and  C_8
REMARK    8  A    between atoms: C_8  and  C_9
REMARK    9  A    between atoms: C_12  and  C_13
REMARK   10  A    between atoms: C_13  and  C_14
REMARK   11  A    between atoms: C_14  and  C_15
REMARK   12  A    between atoms: C_15  and  N_16
REMARK   13  A    between atoms: C_15  and  C_17
REMARK   14  A    between atoms: C_15  and  C_19
REMARK   15  A    between atoms: C_17  and  O_18
REMARK   16  A    between atoms: C_19  and  O_20
REMARK                            x       y       z     vdW  Elec       q    Type
REMARK                         _______ _______ _______ _____ _____    ______ ____
ROOT
ATOM      1  C   UNL     1      -9.896   5.701 130.853  0.00  0.00    +0.000 A 
ATOM      2  C   UNL     1      -9.248   4.729 131.624  0.00  0.00    +0.000 A 
ATOM      3  C   UNL     1      -7.961   4.970 132.081  0.00  0.00    +0.000 A 
ATOM      4  C   UNL     1      -7.296   6.136 131.696  0.00  0.00    +0.000 A 
ATOM      5  C   UNL     1      -7.938   7.083 130.891  0.00  0.00    +0.000 A 
ATOM      6  C   UNL     1      -9.238   6.864 130.470  0.00  0.00    +0.000 A 
ENDROOT
BRANCH   1   7
ATOM      7  C   UNL     1     -11.366   5.581 130.601  0.00  0.00    +0.000 C 
BRANCH   7   8
ATOM      8  C   UNL     1     -12.042   6.735 131.336  0.00  0.00    +0.000 C 
BRANCH   8   9
ATOM      9  C   UNL     1     -13.093   7.366 130.454  0.00  0.00    +0.000 C 
BRANCH   9  10
ATOM     10  C   UNL     1     -12.638   8.743 130.005  0.00  0.00    +0.000 C 
BRANCH  10  11
ATOM     11  C   UNL     1     -12.779   8.858 128.496  0.00  0.00    +0.000 C 
BRANCH  11  12
ATOM     12  C   UNL     1     -13.220   7.530 127.903  0.00  0.00    +0.000 C 
BRANCH  12  14
ATOM     13  C   UNL     1     -10.895   7.654 127.002  0.00  0.00    +0.000 C 
ATOM     14  C   UNL     1     -12.294   7.119 126.768  0.00  0.00    +0.000 C 
ENDBRANCH  12  14
ENDBRANCH  11  12
ENDBRANCH  10  11
ENDBRANCH   9  10
ENDBRANCH   8   9
ENDBRANCH   7   8
ENDBRANCH   1   7
BRANCH   4  15
ATOM     15  C   UNL     1      -5.859   6.269 132.102  0.00  0.00    +0.000 C 
BRANCH  15  16
ATOM     16  C   UNL     1      -4.989   7.042 131.113  0.00  0.00    +0.000 C 
BRANCH  16  17
ATOM     17  C   UNL     1      -3.933   6.208 130.372  0.00  0.00    +0.000 C 
BRANCH  17  18
ATOM     18  N   UNL     1      -2.857   5.800 131.317  0.00  0.00    +0.000 NA
ATOM     19  H   UNL     1      -2.732   4.789 131.286  0.00  0.00    +0.000 HD
ATOM     20  H   UNL     1      -3.180   5.977 132.272  0.00  0.00    +0.000 HD
ENDBRANCH  17  18
BRANCH  17  21
ATOM     21  C   UNL     1      -4.558   4.963 129.681  0.00  0.00    +0.000 C 
BRANCH  21  22
ATOM     22  O   UNL     1      -5.417   5.295 128.590  0.00  0.00    +0.000 OA
ATOM     23  H   UNL     1      -4.865   5.313 127.792  0.00  0.00    +0.000 HD
ENDBRANCH  21  22
ENDBRANCH  17  21
BRANCH  17  24
ATOM     24  C   UNL     1      -3.300   7.120 129.285  0.00  0.00    +0.000 C 
BRANCH  24  25
ATOM     25  O   UNL     1      -4.195   8.163 128.918  0.00  0.00    +0.000 OA
ATOM     26  H   UNL     1      -5.050   7.914 129.321  0.00  0.00    +0.000 HD
ENDBRANCH  24  25
ENDBRANCH  17  24
ENDBRANCH  16  17
ENDBRANCH  15  16
ENDBRANCH   4  15
TORSDOF 15
ENDMDL
MODEL 8
REMARK VINA RESULT:      -5.7      1.732      2.664
REMARK  Name = Fingolimod
REMARK  16 active torsions:
REMARK  status: ('A' for Active; 'I' for Inactive)
REMARK    1  A    between atoms: C_1  and  C_2
REMARK    2  A    between atoms: C_2  and  C_3
REMARK    3  A    between atoms: C_3  and  C_4
REMARK    4  A    between atoms: C_4  and  C_5
REMARK    5  A    between atoms: C_5  and  C_6
REMARK    6  A    between atoms: C_6  and  C_7
REMARK    7  A    between atoms: C_7  and  C_8
REMARK    8  A    between atoms: C_8  and  C_9
REMARK    9  A    between atoms: C_12  and  C_13
REMARK   10  A    between atoms: C_13  and  C_14
REMARK   11  A    between atoms: C_14  and  C_15
REMARK   12  A    between atoms: C_15  and  N_16
REMARK   13  A    between atoms: C_15  and  C_17
REMARK   14  A    between atoms: C_15  and  C_19
REMARK   15  A    between atoms: C_17  and  O_18
REMARK   16  A    between atoms: C_19  and  O_20
REMARK                            x       y       z     vdW  Elec       q    Type
REMARK                         _______ _______ _______ _____ _____    ______ ____
ROOT
ATOM      1  C   UNL     1      -8.569  -3.102 126.674  0.00  0.00    +0.000 A 
ATOM      2  C   UNL     1      -9.065  -3.894 127.716  0.00  0.00    +0.000 A 
ATOM      3  C   UNL     1      -8.530  -3.759 128.987  0.00  0.00    +0.000 A 
ATOM      4  C   UNL     1      -7.449  -2.900 129.197  0.00  0.00    +0.000 A 
ATOM      5  C   UNL     1      -6.933  -2.143 128.139  0.00  0.00    +0.000 A 
ATOM      6  C   UNL     1      -7.494  -2.246 126.878  0.00  0.00    +0.000 A 
ENDROOT
BRANCH   1   7
ATOM      7  C   UNL     1      -9.320  -3.030 125.381  0.00  0.00    +0.000 C 
BRANCH   7   8
ATOM      8  C   UNL     1      -8.390  -3.554 124.292  0.00  0.00    +0.000 C 
BRANCH   8   9
ATOM      9  C   UNL     1      -7.996  -2.431 123.362  0.00  0.00    +0.000 C 
BRANCH   9  10
ATOM     10  C   UNL     1      -9.235  -1.705 122.868  0.00  0.00    +0.000 C 
BRANCH  10  11
ATOM     11  C   UNL     1      -9.136  -0.232 123.224  0.00  0.00    +0.000 C 
BRANCH  11  12
ATOM     12  C   UNL     1      -7.791   0.068 123.866  0.00  0.00    +0.000 C 
BRANCH  12  14
ATOM     13  C   UNL     1      -9.411   0.748 125.641  0.00  0.00    +0.000 C 
ATOM     14  C   UNL     1      -7.980   0.860 125.153  0.00  0.00    +0.000 C 
ENDBRANCH  12  14
ENDBRANCH  11  12
ENDBRANCH  10  11
ENDBRANCH   9  10
ENDBRANCH   8   9
ENDBRANCH   7   8
ENDBRANCH   1   7
BRANCH   4  15
ATOM     15  C   UNL     1      -6.824  -2.907 130.559  0.00  0.00    +0.000 C 
BRANCH  15  16
ATOM     16  C   UNL     1      -5.622  -3.839 130.702  0.00  0.00    +0.000 C 
BRANCH  16  17
ATOM     17  C   UNL     1      -4.246  -3.157 130.636  0.00  0.00    +0.000 C 
BRANCH  17  18
ATOM     18  N   UNL     1      -3.374  -3.674 131.726  0.00  0.00    +0.000 NA
ATOM     19  H   UNL     1      -3.732  -3.371 132.631  0.00  0.00    +0.000 HD
ATOM     20  H   UNL     1      -2.463  -3.214 131.657  0.00  0.00    +0.000 HD
ENDBRANCH  17  18
BRANCH  17  21
ATOM     21  C   UNL     1      -3.569  -3.352 129.250  0.00  0.00    +0.000 C 
BRANCH  21  22
ATOM     22  O   UNL     1      -2.201  -2.947 129.228  0.00  0.00    +0.000 OA
ATOM     23  H   UNL     1      -2.115  -2.281 128.528  0.00  0.00    +0.000 HD
ENDBRANCH  21  22
ENDBRANCH  17  21
BRANCH  17  24
ATOM     24  C   UNL     1      -4.469  -1.639 130.876  0.00  0.00    +0.000 C 
BRANCH  24  25
ATOM     25  O   UNL     1      -3.954  -0.875 129.791  0.00  0.00    +0.000 OA
ATOM     26  H   UNL     1      -3.541  -1.531 129.196  0.00  0.00    +0.000 HD
ENDBRANCH  24  25
ENDBRANCH  17  24
ENDBRANCH  16  17
ENDBRANCH  15  16
ENDBRANCH   4  15
TORSDOF 15
ENDMDL
MODEL 9
REMARK VINA RESULT:      -5.6     10.038     12.046
REMARK  Name = Fingolimod
REMARK  16 active torsions:
REMARK  status: ('A' for Active; 'I' for Inactive)
REMARK    1  A    between atoms: C_1  and  C_2
REMARK    2  A    between atoms: C_2  and  C_3
REMARK    3  A    between atoms: C_3  and  C_4
REMARK    4  A    between atoms: C_4  and  C_5
REMARK    5  A    between atoms: C_5  and  C_6
REMARK    6  A    between atoms: C_6  and  C_7
REMARK    7  A    between atoms: C_7  and  C_8
REMARK    8  A    between atoms: C_8  and  C_9
REMARK    9  A    between atoms: C_12  and  C_13
REMARK   10  A    between atoms: C_13  and  C_14
REMARK   11  A    between atoms: C_14  and  C_15
REMARK   12  A    between atoms: C_15  and  N_16
REMARK   13  A    between atoms: C_15  and  C_17
REMARK   14  A    between atoms: C_15  and  C_19
REMARK   15  A    between atoms: C_17  and  O_18
REMARK   16  A    between atoms: C_19  and  O_20
REMARK                            x       y       z     vdW  Elec       q    Type
REMARK                         _______ _______ _______ _____ _____    ______ ____
ROOT
ATOM      1  C   UNL     1      -6.432   6.138 132.405  0.00  0.00    +0.000 A 
ATOM      2  C   UNL     1      -6.532   6.798 131.174  0.00  0.00    +0.000 A 
ATOM      3  C   UNL     1      -7.785   7.071 130.648  0.00  0.00    +0.000 A 
ATOM      4  C   UNL     1      -8.928   6.610 131.305  0.00  0.00    +0.000 A 
ATOM      5  C   UNL     1      -8.816   5.914 132.514  0.00  0.00    +0.000 A 
ATOM      6  C   UNL     1      -7.566   5.679 133.063  0.00  0.00    +0.000 A 
ENDROOT
BRANCH   1   7
ATOM      7  C   UNL     1      -5.114   6.097 133.113  0.00  0.00    +0.000 C 
BRANCH   7   8
ATOM      8  C   UNL     1      -4.698   4.632 133.200  0.00  0.00    +0.000 C 
BRANCH   8   9
ATOM      9  C   UNL     1      -3.518   4.373 132.294  0.00  0.00    +0.000 C 
BRANCH   9  10
ATOM     10  C   UNL     1      -3.979   3.684 131.022  0.00  0.00    +0.000 C 
BRANCH  10  11
ATOM     11  C   UNL     1      -3.441   4.434 129.815  0.00  0.00    +0.000 C 
BRANCH  11  12
ATOM     12  C   UNL     1      -2.538   5.574 130.259  0.00  0.00    +0.000 C 
BRANCH  12  14
ATOM     13  C   UNL     1      -3.481   6.813 128.307  0.00  0.00    +0.000 C 
ATOM     14  C   UNL     1      -2.221   6.490 129.086  0.00  0.00    +0.000 C 
ENDBRANCH  12  14
ENDBRANCH  11  12
ENDBRANCH  10  11
ENDBRANCH   9  10
ENDBRANCH   8   9
ENDBRANCH   7   8
ENDBRANCH   1   7
BRANCH   4  15
ATOM     15  C   UNL     1     -10.242   6.809 130.613  0.00  0.00    +0.000 C 
BRANCH  15  16
ATOM     16  C   UNL     1     -10.186   7.731 129.396  0.00  0.00    +0.000 C 
BRANCH  16  17
ATOM     17  C   UNL     1     -11.402   7.663 128.460  0.00  0.00    +0.000 C 
BRANCH  17  18
ATOM     18  N   UNL     1     -12.099   6.358 128.631  0.00  0.00    +0.000 NA
ATOM     19  H   UNL     1     -11.540   5.610 128.219  0.00  0.00    +0.000 HD
ATOM     20  H   UNL     1     -12.950   6.369 128.062  0.00  0.00    +0.000 HD
ENDBRANCH  17  18
BRANCH  17  21
ATOM     21  C   UNL     1     -12.383   8.846 128.699  0.00  0.00    +0.000 C 
BRANCH  21  22
ATOM     22  O   UNL     1     -12.688   9.056 130.078  0.00  0.00    +0.000 OA
ATOM     23  H   UNL     1     -11.865   9.336 130.509  0.00  0.00    +0.000 HD
ENDBRANCH  21  22
ENDBRANCH  17  21
BRANCH  17  24
ATOM     24  C   UNL     1     -10.871   7.740 127.003  0.00  0.00    +0.000 C 
BRANCH  24  25
ATOM     25  O   UNL     1     -10.993   6.479 126.354  0.00  0.00    +0.000 OA
ATOM     26  H   UNL     1     -11.398   6.680 125.488  0.00  0.00    +0.000 HD
ENDBRANCH  24  25
ENDBRANCH  17  24
ENDBRANCH  16  17
ENDBRANCH  15  16
ENDBRANCH   4  15
TORSDOF 15
ENDMDL
