MODEL 1
REMARK VINA RESULT:      -8.0      0.000      0.000
REMARK  Name = Flavin mononucleotide
REMARK  14 active torsions:
REMARK  status: ('A' for Active; 'I' for Inactive)
REMARK    1  A    between atoms: C_1  and  C_2
REMARK    2  A    between atoms: C_7  and  C_8
REMARK    3  A    between atoms: N_9  and  C_10
REMARK    4  A    between atoms: C_10  and  C_11
REMARK    5  A    between atoms: C_11  and  O_12
REMARK    6  A    between atoms: C_11  and  C_13
REMARK    7  A    between atoms: C_13  and  O_14
REMARK    8  A    between atoms: C_13  and  C_15
REMARK    9  A    between atoms: C_15  and  O_16
REMARK   10  A    between atoms: C_15  and  C_17
REMARK   11  A    between atoms: C_17  and  O_18
REMARK   12  A    between atoms: O_18  and  P_19
REMARK   13  A    between atoms: P_19  and  O_20
REMARK   14  A    between atoms: P_19  and  O_21
REMARK                            x       y       z     vdW  Elec       q    Type
REMARK                         _______ _______ _______ _____ _____    ______ ____
ROOT
ATOM      1  C   UNL     1      -7.468  -2.831 130.714  0.00  0.00    +0.000 C 
ATOM      2  C   UNL     1      -7.348  -1.407 130.195  0.00  0.00    +0.000 A 
ATOM      3  C   UNL     1      -7.545  -1.039 128.805  0.00  0.00    +0.000 A 
ATOM      4  C   UNL     1      -7.837   0.290 128.318  0.00  0.00    +0.000 A 
ATOM      5  C   UNL     1      -8.222   1.241 129.210  0.00  0.00    +0.000 A 
ATOM      6  C   UNL     1      -8.350   0.643 130.466  0.00  0.00    +0.000 A 
ATOM      7  C   UNL     1      -7.576  -0.453 131.144  0.00  0.00    +0.000 A 
ATOM      8  C   UNL     1      -7.537  -1.031 132.789  0.00  0.00    +0.000 C 
ATOM      9  N   UNL     1      -8.445   2.614 128.902  0.00  0.00    +0.000 N 
ATOM     10  C   UNL     1      -8.165   2.981 127.579  0.00  0.00    +0.000 A 
ATOM     11  N   UNL     1      -8.172   4.214 127.159  0.00  0.00    +0.000 NA
ATOM     12  C   UNL     1      -7.973   4.546 125.844  0.00  0.00    +0.000 A 
ATOM     13  O   UNL     1      -8.028   5.701 125.444  0.00  0.00    +0.000 OA
ATOM     14  N   UNL     1      -7.734   3.558 124.932  0.00  0.00    +0.000 N 
ATOM     15  C   UNL     1      -7.650   2.216 125.176  0.00  0.00    +0.000 A 
ATOM     16  O   UNL     1      -7.427   1.379 124.341  0.00  0.00    +0.000 OA
ATOM     17  C   UNL     1      -7.856   1.859 126.612  0.00  0.00    +0.000 A 
ATOM     18  N   UNL     1      -7.747   0.607 126.960  0.00  0.00    +0.000 NA
ATOM     19  H   UNL     1      -7.623   3.846 123.975  0.00  0.00    +0.000 HD
ENDROOT
BRANCH   9  20
ATOM     20  C   UNL     1      -8.537   3.813 129.854  0.00  0.00    +0.000 C 
BRANCH  20  21
ATOM     21  C   UNL     1      -9.904   4.360 130.183  0.00  0.00    +0.000 C 
BRANCH  21  22
ATOM     22  O   UNL     1     -10.609   3.444 131.048  0.00  0.00    +0.000 OA
ATOM     23  H   UNL     1     -10.563   3.725 131.984  0.00  0.00    +0.000 HD
ENDBRANCH  21  22
BRANCH  21  24
ATOM     24  C   UNL     1      -9.795   5.781 130.692  0.00  0.00    +0.000 C 
BRANCH  24  25
ATOM     25  O   UNL     1      -8.707   6.534 130.126  0.00  0.00    +0.000 OA
ATOM     26  H   UNL     1      -8.601   6.321 129.195  0.00  0.00    +0.000 HD
ENDBRANCH  24  25
BRANCH  24  27
ATOM     27  C   UNL     1     -11.279   6.338 130.662  0.00  0.00    +0.000 C 
BRANCH  27  28
ATOM     28  O   UNL     1     -11.804   5.709 131.887  0.00  0.00    +0.000 OA
ATOM     29  H   UNL     1     -12.609   5.176 131.674  0.00  0.00    +0.000 HD
ENDBRANCH  27  28
BRANCH  27  30
ATOM     30  C   UNL     1     -12.374   6.622 129.134  0.00  0.00    +0.000 C 
BRANCH  30  31
ATOM     31  O   UNL     1     -12.246   6.537 127.589  0.00  0.00    +0.000 OA
BRANCH  31  32
ATOM     32  P   UNL     1     -11.038   7.520 126.926  0.00  0.00    +0.000 P 
ATOM     33  O   UNL     1     -10.891   7.959 125.491  0.00  0.00    +0.000 OA
BRANCH  32  34
ATOM     34  O   UNL     1     -11.118   8.844 127.765  0.00  0.00    +0.000 OA
ATOM     35  H   UNL     1     -11.567   9.482 127.212  0.00  0.00    +0.000 HD
ENDBRANCH  32  34
BRANCH  32  36
ATOM     36  O   UNL     1      -9.756   6.744 127.472  0.00  0.00    +0.000 OA
ATOM     37  H   UNL     1      -9.441   7.259 128.244  0.00  0.00    +0.000 HD
ENDBRANCH  32  36
ENDBRANCH  31  32
ENDBRANCH  30  31
ENDBRANCH  27  30
ENDBRANCH  24  27
ENDBRANCH  21  24
ENDBRANCH  20  21
ENDBRANCH   9  20
TORSDOF 12
ENDMDL
MODEL 2
REMARK VINA RESULT:      -7.9      2.923      4.298
REMARK  Name = Flavin mononucleotide
REMARK  14 active torsions:
REMARK  status: ('A' for Active; 'I' for Inactive)
REMARK    1  A    between atoms: C_1  and  C_2
REMARK    2  A    between atoms: C_7  and  C_8
REMARK    3  A    between atoms: N_9  and  C_10
REMARK    4  A    between atoms: C_10  and  C_11
REMARK    5  A    between atoms: C_11  and  O_12
REMARK    6  A    between atoms: C_11  and  C_13
REMARK    7  A    between atoms: C_13  and  O_14
REMARK    8  A    between atoms: C_13  and  C_15
REMARK    9  A    between atoms: C_15  and  O_16
REMARK   10  A    between atoms: C_15  and  C_17
REMARK   11  A    between atoms: C_17  and  O_18
REMARK   12  A    between atoms: O_18  and  P_19
REMARK   13  A    between atoms: P_19  and  O_20
REMARK   14  A    between atoms: P_19  and  O_21
REMARK                            x       y       z     vdW  Elec       q    Type
REMARK                         _______ _______ _______ _____ _____    ______ ____
ROOT
ATOM      1  C   UNL     1      -2.075   6.653 130.598  0.00  0.00    +0.000 C 
ATOM      2  C   UNL     1      -3.391   6.313 129.918  0.00  0.00    +0.000 A 
ATOM      3  C   UNL     1      -3.486   5.804 128.562  0.00  0.00    +0.000 A 
ATOM      4  C   UNL     1      -4.619   5.099 128.003  0.00  0.00    +0.000 A 
ATOM      5  C   UNL     1      -5.575   4.630 128.848  0.00  0.00    +0.000 A 
ATOM      6  C   UNL     1      -5.161   4.867 130.161  0.00  0.00    +0.000 A 
ATOM      7  C   UNL     1      -4.396   6.000 130.786  0.00  0.00    +0.000 A 
ATOM      8  C   UNL     1      -4.100   6.455 132.444  0.00  0.00    +0.000 C 
ATOM      9  N   UNL     1      -6.793   4.009 128.446  0.00  0.00    +0.000 N 
ATOM     10  C   UNL     1      -7.012   3.966 127.062  0.00  0.00    +0.000 A 
ATOM     11  N   UNL     1      -8.129   3.569 126.524  0.00  0.00    +0.000 NA
ATOM     12  C   UNL     1      -8.296   3.459 125.168  0.00  0.00    +0.000 A 
ATOM     13  O   UNL     1      -9.331   3.040 124.667  0.00  0.00    +0.000 OA
ATOM     14  N   UNL     1      -7.267   3.796 124.337  0.00  0.00    +0.000 N 
ATOM     15  C   UNL     1      -6.035   4.266 124.699  0.00  0.00    +0.000 A 
ATOM     16  O   UNL     1      -5.159   4.561 123.931  0.00  0.00    +0.000 OA
ATOM     17  C   UNL     1      -5.862   4.395 126.178  0.00  0.00    +0.000 A 
ATOM     18  N   UNL     1      -4.739   4.882 126.628  0.00  0.00    +0.000 NA
ATOM     19  H   UNL     1      -7.424   3.671 123.351  0.00  0.00    +0.000 HD
ENDROOT
BRANCH   9  20
ATOM     20  C   UNL     1      -8.066   3.763 129.266  0.00  0.00    +0.000 C 
BRANCH  20  21
ATOM     21  C   UNL     1      -8.586   4.885 130.130  0.00  0.00    +0.000 C 
BRANCH  21  22
ATOM     22  O   UNL     1      -8.506   6.138 129.415  0.00  0.00    +0.000 OA
ATOM     23  H   UNL     1      -8.395   6.894 130.027  0.00  0.00    +0.000 HD
ENDBRANCH  21  22
BRANCH  21  24
ATOM     24  C   UNL     1      -9.952   4.537 130.680  0.00  0.00    +0.000 C 
BRANCH  24  25
ATOM     25  O   UNL     1      -9.926   3.712 131.860  0.00  0.00    +0.000 OA
ATOM     26  H   UNL     1     -10.068   2.791 131.627  0.00  0.00    +0.000 HD
ENDBRANCH  24  25
BRANCH  24  27
ATOM     27  C   UNL     1     -10.761   5.900 130.652  0.00  0.00    +0.000 C 
BRANCH  27  28
ATOM     28  O   UNL     1     -11.097   6.018 132.082  0.00  0.00    +0.000 OA
ATOM     29  H   UNL     1     -11.901   6.582 132.194  0.00  0.00    +0.000 HD
ENDBRANCH  27  28
BRANCH  27  30
ATOM     30  C   UNL     1     -11.939   6.514 129.293  0.00  0.00    +0.000 C 
BRANCH  30  31
ATOM     31  O   UNL     1     -12.035   6.477 127.744  0.00  0.00    +0.000 OA
BRANCH  31  32
ATOM     32  P   UNL     1     -10.805   7.318 126.940  0.00  0.00    +0.000 P 
ATOM     33  O   UNL     1     -10.911   8.105 125.658  0.00  0.00    +0.000 OA
BRANCH  32  34
ATOM     34  O   UNL     1     -10.269   8.330 128.013  0.00  0.00    +0.000 OA
ATOM     35  H   UNL     1      -9.344   8.464 127.813  0.00  0.00    +0.000 HD
ENDBRANCH  32  34
BRANCH  32  36
ATOM     36  O   UNL     1      -9.715   6.155 126.866  0.00  0.00    +0.000 OA
ATOM     37  H   UNL     1      -9.935   5.633 126.065  0.00  0.00    +0.000 HD
ENDBRANCH  32  36
ENDBRANCH  31  32
ENDBRANCH  30  31
ENDBRANCH  27  30
ENDBRANCH  24  27
ENDBRANCH  21  24
ENDBRANCH  20  21
ENDBRANCH   9  20
TORSDOF 12
ENDMDL
MODEL 3
REMARK VINA RESULT:      -7.7      1.999      2.795
REMARK  Name = Flavin mononucleotide
REMARK  14 active torsions:
REMARK  status: ('A' for Active; 'I' for Inactive)
REMARK    1  A    between atoms: C_1  and  C_2
REMARK    2  A    between atoms: C_7  and  C_8
REMARK    3  A    between atoms: N_9  and  C_10
REMARK    4  A    between atoms: C_10  and  C_11
REMARK    5  A    between atoms: C_11  and  O_12
REMARK    6  A    between atoms: C_11  and  C_13
REMARK    7  A    between atoms: C_13  and  O_14
REMARK    8  A    between atoms: C_13  and  C_15
REMARK    9  A    between atoms: C_15  and  O_16
REMARK   10  A    between atoms: C_15  and  C_17
REMARK   11  A    between atoms: C_17  and  O_18
REMARK   12  A    between atoms: O_18  and  P_19
REMARK   13  A    between atoms: P_19  and  O_20
REMARK   14  A    between atoms: P_19  and  O_21
REMARK                            x       y       z     vdW  Elec       q    Type
REMARK                         _______ _______ _______ _____ _____    ______ ____
ROOT
ATOM      1  C   UNL     1      -8.967  -3.722 127.325  0.00  0.00    +0.000 C 
ATOM      2  C   UNL     1      -8.264  -2.386 127.149  0.00  0.00    +0.000 A 
ATOM      3  C   UNL     1      -8.655  -1.396 126.161  0.00  0.00    +0.000 A 
ATOM      4  C   UNL     1      -8.315   0.008 126.196  0.00  0.00    +0.000 A 
ATOM      5  C   UNL     1      -7.818   0.530 127.348  0.00  0.00    +0.000 A 
ATOM      6  C   UNL     1      -7.847  -0.460 128.331  0.00  0.00    +0.000 A 
ATOM      7  C   UNL     1      -7.626  -1.946 128.272  0.00  0.00    +0.000 A 
ATOM      8  C   UNL     1      -7.391  -3.159 129.503  0.00  0.00    +0.000 C 
ATOM      9  N   UNL     1      -7.344   1.864 127.508  0.00  0.00    +0.000 N 
ATOM     10  C   UNL     1      -7.343   2.641 126.340  0.00  0.00    +0.000 A 
ATOM     11  N   UNL     1      -6.811   3.827 126.268  0.00  0.00    +0.000 NA
ATOM     12  C   UNL     1      -6.890   4.603 125.140  0.00  0.00    +0.000 A 
ATOM     13  O   UNL     1      -6.432   5.736 125.091  0.00  0.00    +0.000 OA
ATOM     14  N   UNL     1      -7.527   4.115 124.035  0.00  0.00    +0.000 N 
ATOM     15  C   UNL     1      -8.113   2.888 123.897  0.00  0.00    +0.000 A 
ATOM     16  O   UNL     1      -8.656   2.495 122.898  0.00  0.00    +0.000 OA
ATOM     17  C   UNL     1      -8.015   2.042 125.125  0.00  0.00    +0.000 A 
ATOM     18  N   UNL     1      -8.500   0.832 125.082  0.00  0.00    +0.000 NA
ATOM     19  H   UNL     1      -7.586   4.730 123.241  0.00  0.00    +0.000 HD
ENDROOT
BRANCH   9  20
ATOM     20  C   UNL     1      -6.465   2.449 128.621  0.00  0.00    +0.000 C 
BRANCH  20  21
ATOM     21  C   UNL     1      -7.146   3.050 129.826  0.00  0.00    +0.000 C 
BRANCH  21  22
ATOM     22  O   UNL     1      -6.584   2.499 131.037  0.00  0.00    +0.000 OA
ATOM     23  H   UNL     1      -6.700   1.529 131.079  0.00  0.00    +0.000 HD
ENDBRANCH  21  22
BRANCH  21  24
ATOM     24  C   UNL     1      -7.141   4.560 129.736  0.00  0.00    +0.000 C 
BRANCH  24  25
ATOM     25  O   UNL     1      -6.145   5.100 128.848  0.00  0.00    +0.000 OA
ATOM     26  H   UNL     1      -6.420   4.995 127.934  0.00  0.00    +0.000 HD
ENDBRANCH  24  25
BRANCH  24  27
ATOM     27  C   UNL     1      -8.668   4.963 129.594  0.00  0.00    +0.000 C 
BRANCH  27  28
ATOM     28  O   UNL     1      -8.719   5.237 128.147  0.00  0.00    +0.000 OA
ATOM     29  H   UNL     1      -9.228   6.067 127.979  0.00  0.00    +0.000 HD
ENDBRANCH  27  28
BRANCH  27  30
ATOM     30  C   UNL     1      -9.721   5.944 130.836  0.00  0.00    +0.000 C 
BRANCH  30  31
ATOM     31  O   UNL     1     -10.970   6.867 130.817  0.00  0.00    +0.000 OA
BRANCH  31  32
ATOM     32  P   UNL     1     -11.217   7.690 129.359  0.00  0.00    +0.000 P 
ATOM     33  O   UNL     1     -12.092   8.894 129.116  0.00  0.00    +0.000 OA
BRANCH  32  34
ATOM     34  O   UNL     1      -9.775   8.121 128.913  0.00  0.00    +0.000 OA
ATOM     35  H   UNL     1      -9.252   7.321 128.897  0.00  0.00    +0.000 HD
ENDBRANCH  32  34
BRANCH  32  36
ATOM     36  O   UNL     1     -11.599   6.449 128.433  0.00  0.00    +0.000 OA
ATOM     37  H   UNL     1     -10.849   6.339 127.810  0.00  0.00    +0.000 HD
ENDBRANCH  32  36
ENDBRANCH  31  32
ENDBRANCH  30  31
ENDBRANCH  27  30
ENDBRANCH  24  27
ENDBRANCH  21  24
ENDBRANCH  20  21
ENDBRANCH   9  20
TORSDOF 12
ENDMDL
MODEL 4
REMARK VINA RESULT:      -7.7      2.479      4.057
REMARK  Name = Flavin mononucleotide
REMARK  14 active torsions:
REMARK  status: ('A' for Active; 'I' for Inactive)
REMARK    1  A    between atoms: C_1  and  C_2
REMARK    2  A    between atoms: C_7  and  C_8
REMARK    3  A    between atoms: N_9  and  C_10
REMARK    4  A    between atoms: C_10  and  C_11
REMARK    5  A    between atoms: C_11  and  O_12
REMARK    6  A    between atoms: C_11  and  C_13
REMARK    7  A    between atoms: C_13  and  O_14
REMARK    8  A    between atoms: C_13  and  C_15
REMARK    9  A    between atoms: C_15  and  O_16
REMARK   10  A    between atoms: C_15  and  C_17
REMARK   11  A    between atoms: C_17  and  O_18
REMARK   12  A    between atoms: O_18  and  P_19
REMARK   13  A    between atoms: P_19  and  O_20
REMARK   14  A    between atoms: P_19  and  O_21
REMARK                            x       y       z     vdW  Elec       q    Type
REMARK                         _______ _______ _______ _____ _____    ______ ____
ROOT
ATOM      1  C   UNL     1      -9.176  -4.326 128.201  0.00  0.00    +0.000 C 
ATOM      2  C   UNL     1      -8.593  -3.221 127.337  0.00  0.00    +0.000 A 
ATOM      3  C   UNL     1      -9.365  -2.469 126.364  0.00  0.00    +0.000 A 
ATOM      4  C   UNL     1      -9.003  -1.182 125.813  0.00  0.00    +0.000 A 
ATOM      5  C   UNL     1      -8.012  -0.472 126.414  0.00  0.00    +0.000 A 
ATOM      6  C   UNL     1      -7.613  -1.154 127.565  0.00  0.00    +0.000 A 
ATOM      7  C   UNL     1      -7.493  -2.620 127.876  0.00  0.00    +0.000 A 
ATOM      8  C   UNL     1      -6.752  -3.494 129.192  0.00  0.00    +0.000 C 
ATOM      9  N   UNL     1      -7.475   0.757 125.933  0.00  0.00    +0.000 N 
ATOM     10  C   UNL     1      -7.990   1.193 124.705  0.00  0.00    +0.000 A 
ATOM     11  N   UNL     1      -7.515   2.212 124.048  0.00  0.00    +0.000 NA
ATOM     12  C   UNL     1      -8.083   2.671 122.887  0.00  0.00    +0.000 A 
ATOM     13  O   UNL     1      -7.664   3.658 122.298  0.00  0.00    +0.000 OA
ATOM     14  N   UNL     1      -9.175   2.030 122.376  0.00  0.00    +0.000 N 
ATOM     15  C   UNL     1      -9.797   0.927 122.891  0.00  0.00    +0.000 A 
ATOM     16  O   UNL     1     -10.754   0.387 122.401  0.00  0.00    +0.000 OA
ATOM     17  C   UNL     1      -9.169   0.424 124.150  0.00  0.00    +0.000 A 
ATOM     18  N   UNL     1      -9.657  -0.655 124.697  0.00  0.00    +0.000 NA
ATOM     19  H   UNL     1      -9.575   2.418 121.540  0.00  0.00    +0.000 HD
ENDROOT
BRANCH   9  20
ATOM     20  C   UNL     1      -6.161   1.452 126.316  0.00  0.00    +0.000 C 
BRANCH  20  21
ATOM     21  C   UNL     1      -6.154   2.341 127.535  0.00  0.00    +0.000 C 
BRANCH  21  22
ATOM     22  O   UNL     1      -4.957   2.111 128.309  0.00  0.00    +0.000 OA
ATOM     23  H   UNL     1      -4.162   2.072 127.739  0.00  0.00    +0.000 HD
ENDBRANCH  21  22
BRANCH  21  24
ATOM     24  C   UNL     1      -6.405   3.780 127.139  0.00  0.00    +0.000 C 
BRANCH  24  25
ATOM     25  O   UNL     1      -5.902   4.136 125.838  0.00  0.00    +0.000 OA
ATOM     26  H   UNL     1      -6.394   3.678 125.152  0.00  0.00    +0.000 HD
ENDBRANCH  24  25
BRANCH  24  27
ATOM     27  C   UNL     1      -7.916   4.053 127.534  0.00  0.00    +0.000 C 
BRANCH  27  28
ATOM     28  O   UNL     1      -8.462   4.388 126.207  0.00  0.00    +0.000 OA
ATOM     29  H   UNL     1      -8.857   3.582 125.792  0.00  0.00    +0.000 HD
ENDBRANCH  27  28
BRANCH  27  30
ATOM     30  C   UNL     1      -8.562   4.878 129.120  0.00  0.00    +0.000 C 
BRANCH  30  31
ATOM     31  O   UNL     1      -8.998   6.292 129.592  0.00  0.00    +0.000 OA
BRANCH  31  32
ATOM     32  P   UNL     1     -10.379   6.898 128.824  0.00  0.00    +0.000 P 
ATOM     33  O   UNL     1     -10.996   8.265 128.980  0.00  0.00    +0.000 OA
BRANCH  32  34
ATOM     34  O   UNL     1     -10.062   6.751 127.294  0.00  0.00    +0.000 OA
ATOM     35  H   UNL     1     -10.791   6.260 126.918  0.00  0.00    +0.000 HD
ENDBRANCH  32  34
BRANCH  32  36
ATOM     36  O   UNL     1     -11.394   5.716 129.167  0.00  0.00    +0.000 OA
ATOM     37  H   UNL     1     -11.530   5.753 130.137  0.00  0.00    +0.000 HD
ENDBRANCH  32  36
ENDBRANCH  31  32
ENDBRANCH  30  31
ENDBRANCH  27  30
ENDBRANCH  24  27
ENDBRANCH  21  24
ENDBRANCH  20  21
ENDBRANCH   9  20
TORSDOF 12
ENDMDL
MODEL 5
REMARK VINA RESULT:      -7.4      2.513      3.810
REMARK  Name = Flavin mononucleotide
REMARK  14 active torsions:
REMARK  status: ('A' for Active; 'I' for Inactive)
REMARK    1  A    between atoms: C_1  and  C_2
REMARK    2  A    between atoms: C_7  and  C_8
REMARK    3  A    between atoms: N_9  and  C_10
REMARK    4  A    between atoms: C_10  and  C_11
REMARK    5  A    between atoms: C_11  and  O_12
REMARK    6  A    between atoms: C_11  and  C_13
REMARK    7  A    between atoms: C_13  and  O_14
REMARK    8  A    between atoms: C_13  and  C_15
REMARK    9  A    between atoms: C_15  and  O_16
REMARK   10  A    between atoms: C_15  and  C_17
REMARK   11  A    between atoms: C_17  and  O_18
REMARK   12  A    between atoms: O_18  and  P_19
REMARK   13  A    between atoms: P_19  and  O_20
REMARK   14  A    between atoms: P_19  and  O_21
REMARK                            x       y       z     vdW  Elec       q    Type
REMARK                         _______ _______ _______ _____ _____    ______ ____
ROOT
ATOM      1  C   UNL     1      -9.377  -3.314 123.958  0.00  0.00    +0.000 C 
ATOM      2  C   UNL     1      -8.563  -2.140 124.479  0.00  0.00    +0.000 A 
ATOM      3  C   UNL     1      -8.429  -0.879 123.772  0.00  0.00    +0.000 A 
ATOM      4  C   UNL     1      -8.026   0.378 124.361  0.00  0.00    +0.000 A 
ATOM      5  C   UNL     1      -8.017   0.490 125.715  0.00  0.00    +0.000 A 
ATOM      6  C   UNL     1      -8.530  -0.689 126.260  0.00  0.00    +0.000 A 
ATOM      7  C   UNL     1      -8.420  -2.126 125.836  0.00  0.00    +0.000 A 
ATOM      8  C   UNL     1      -8.815  -3.629 126.629  0.00  0.00    +0.000 C 
ATOM      9  N   UNL     1      -7.550   1.623 126.443  0.00  0.00    +0.000 N 
ATOM     10  C   UNL     1      -7.002   2.649 125.661  0.00  0.00    +0.000 A 
ATOM     11  N   UNL     1      -6.399   3.689 126.162  0.00  0.00    +0.000 NA
ATOM     12  C   UNL     1      -5.939   4.720 125.384  0.00  0.00    +0.000 A 
ATOM     13  O   UNL     1      -5.416   5.718 125.861  0.00  0.00    +0.000 OA
ATOM     14  N   UNL     1      -6.092   4.657 124.028  0.00  0.00    +0.000 N 
ATOM     15  C   UNL     1      -6.661   3.642 123.310  0.00  0.00    +0.000 A 
ATOM     16  O   UNL     1      -6.767   3.624 122.113  0.00  0.00    +0.000 OA
ATOM     17  C   UNL     1      -7.150   2.515 124.161  0.00  0.00    +0.000 A 
ATOM     18  N   UNL     1      -7.666   1.473 123.570  0.00  0.00    +0.000 NA
ATOM     19  H   UNL     1      -5.767   5.449 123.501  0.00  0.00    +0.000 HD
ENDROOT
BRANCH   9  20
ATOM     20  C   UNL     1      -7.174   1.729 127.926  0.00  0.00    +0.000 C 
BRANCH  20  21
ATOM     21  C   UNL     1      -8.181   2.327 128.877  0.00  0.00    +0.000 C 
BRANCH  21  22
ATOM     22  O   UNL     1      -8.591   1.341 129.849  0.00  0.00    +0.000 OA
ATOM     23  H   UNL     1      -8.164   0.476 129.685  0.00  0.00    +0.000 HD
ENDBRANCH  21  22
BRANCH  21  24
ATOM     24  C   UNL     1      -7.657   3.626 129.450  0.00  0.00    +0.000 C 
BRANCH  24  25
ATOM     25  O   UNL     1      -6.286   3.912 129.120  0.00  0.00    +0.000 OA
ATOM     26  H   UNL     1      -5.695   3.352 129.630  0.00  0.00    +0.000 HD
ENDBRANCH  24  25
BRANCH  24  27
ATOM     27  C   UNL     1      -8.804   4.685 129.172  0.00  0.00    +0.000 C 
BRANCH  27  28
ATOM     28  O   UNL     1      -8.531   4.979 127.755  0.00  0.00    +0.000 OA
ATOM     29  H   UNL     1      -9.318   4.744 127.204  0.00  0.00    +0.000 HD
ENDBRANCH  27  28
BRANCH  27  30
ATOM     30  C   UNL     1      -9.459   6.014 130.363  0.00  0.00    +0.000 C 
BRANCH  30  31
ATOM     31  O   UNL     1     -10.753   6.848 130.564  0.00  0.00    +0.000 OA
BRANCH  31  32
ATOM     32  P   UNL     1     -11.320   7.620 129.168  0.00  0.00    +0.000 P 
ATOM     33  O   UNL     1     -12.023   8.950 129.071  0.00  0.00    +0.000 OA
BRANCH  32  34
ATOM     34  O   UNL     1     -10.049   7.747 128.257  0.00  0.00    +0.000 OA
ATOM     35  H   UNL     1     -10.076   7.002 127.658  0.00  0.00    +0.000 HD
ENDBRANCH  32  34
BRANCH  32  36
ATOM     36  O   UNL     1     -12.172   6.421 128.550  0.00  0.00    +0.000 OA
ATOM     37  H   UNL     1     -12.789   6.139 129.258  0.00  0.00    +0.000 HD
ENDBRANCH  32  36
ENDBRANCH  31  32
ENDBRANCH  30  31
ENDBRANCH  27  30
ENDBRANCH  24  27
ENDBRANCH  21  24
ENDBRANCH  20  21
ENDBRANCH   9  20
TORSDOF 12
ENDMDL
MODEL 6
REMARK VINA RESULT:      -7.2      3.741      4.843
REMARK  Name = Flavin mononucleotide
REMARK  14 active torsions:
REMARK  status: ('A' for Active; 'I' for Inactive)
REMARK    1  A    between atoms: C_1  and  C_2
REMARK    2  A    between atoms: C_7  and  C_8
REMARK    3  A    between atoms: N_9  and  C_10
REMARK    4  A    between atoms: C_10  and  C_11
REMARK    5  A    between atoms: C_11  and  O_12
REMARK    6  A    between atoms: C_11  and  C_13
REMARK    7  A    between atoms: C_13  and  O_14
REMARK    8  A    between atoms: C_13  and  C_15
REMARK    9  A    between atoms: C_15  and  O_16
REMARK   10  A    between atoms: C_15  and  C_17
REMARK   11  A    between atoms: C_17  and  O_18
REMARK   12  A    between atoms: O_18  and  P_19
REMARK   13  A    between atoms: P_19  and  O_20
REMARK   14  A    between atoms: P_19  and  O_21
REMARK                            x       y       z     vdW  Elec       q    Type
REMARK                         _______ _______ _______ _____ _____    ______ ____
ROOT
ATOM      1  C   UNL     1      -0.953   6.458 131.948  0.00  0.00    +0.000 C 
ATOM      2  C   UNL     1      -2.240   6.373 131.144  0.00  0.00    +0.000 A 
ATOM      3  C   UNL     1      -2.452   5.425 130.065  0.00  0.00    +0.000 A 
ATOM      4  C   UNL     1      -3.737   5.019 129.540  0.00  0.00    +0.000 A 
ATOM      5  C   UNL     1      -4.856   5.321 130.250  0.00  0.00    +0.000 A 
ATOM      6  C   UNL     1      -4.469   5.908 131.456  0.00  0.00    +0.000 A 
ATOM      7  C   UNL     1      -3.339   6.833 131.810  0.00  0.00    +0.000 A 
ATOM      8  C   UNL     1      -2.989   7.787 133.228  0.00  0.00    +0.000 C 
ATOM      9  N   UNL     1      -6.192   5.080 129.818  0.00  0.00    +0.000 N 
ATOM     10  C   UNL     1      -6.315   4.555 128.524  0.00  0.00    +0.000 A 
ATOM     11  N   UNL     1      -7.456   4.410 127.914  0.00  0.00    +0.000 NA
ATOM     12  C   UNL     1      -7.563   3.821 126.680  0.00  0.00    +0.000 A 
ATOM     13  O   UNL     1      -8.642   3.642 126.131  0.00  0.00    +0.000 OA
ATOM     14  N   UNL     1      -6.435   3.387 126.045  0.00  0.00    +0.000 N 
ATOM     15  C   UNL     1      -5.148   3.481 126.497  0.00  0.00    +0.000 A 
ATOM     16  O   UNL     1      -4.180   3.093 125.898  0.00  0.00    +0.000 OA
ATOM     17  C   UNL     1      -5.036   4.133 127.837  0.00  0.00    +0.000 A 
ATOM     18  N   UNL     1      -3.845   4.316 128.337  0.00  0.00    +0.000 NA
ATOM     19  H   UNL     1      -6.564   2.935 125.156  0.00  0.00    +0.000 HD
ENDROOT
BRANCH   9  20
ATOM     20  C   UNL     1      -7.501   5.675 130.354  0.00  0.00    +0.000 C 
BRANCH  20  21
ATOM     21  C   UNL     1      -8.568   4.725 130.841  0.00  0.00    +0.000 C 
BRANCH  21  22
ATOM     22  O   UNL     1      -7.966   3.639 131.577  0.00  0.00    +0.000 OA
ATOM     23  H   UNL     1      -8.617   3.192 132.155  0.00  0.00    +0.000 HD
ENDBRANCH  21  22
BRANCH  21  24
ATOM     24  C   UNL     1      -9.654   5.484 131.573  0.00  0.00    +0.000 C 
BRANCH  24  25
ATOM     25  O   UNL     1      -9.176   6.329 132.636  0.00  0.00    +0.000 OA
ATOM     26  H   UNL     1      -9.822   6.371 133.346  0.00  0.00    +0.000 HD
ENDBRANCH  24  25
BRANCH  24  27
ATOM     27  C   UNL     1     -10.591   6.057 130.430  0.00  0.00    +0.000 C 
BRANCH  27  28
ATOM     28  O   UNL     1     -10.711   4.857 129.584  0.00  0.00    +0.000 OA
ATOM     29  H   UNL     1     -10.153   4.959 128.774  0.00  0.00    +0.000 HD
ENDBRANCH  27  28
BRANCH  27  30
ATOM     30  C   UNL     1     -10.567   7.807 129.689  0.00  0.00    +0.000 C 
BRANCH  30  31
ATOM     31  O   UNL     1     -10.687   8.471 128.291  0.00  0.00    +0.000 OA
BRANCH  31  32
ATOM     32  P   UNL     1     -10.864   7.384 127.005  0.00  0.00    +0.000 P 
ATOM     33  O   UNL     1     -10.869   7.694 125.529  0.00  0.00    +0.000 OA
BRANCH  32  34
ATOM     34  O   UNL     1      -9.701   6.351 127.215  0.00  0.00    +0.000 OA
ATOM     35  H   UNL     1      -9.001   6.614 126.618  0.00  0.00    +0.000 HD
ENDBRANCH  32  34
BRANCH  32  36
ATOM     36  O   UNL     1     -12.189   6.641 127.488  0.00  0.00    +0.000 OA
ATOM     37  H   UNL     1     -12.814   6.691 126.734  0.00  0.00    +0.000 HD
ENDBRANCH  32  36
ENDBRANCH  31  32
ENDBRANCH  30  31
ENDBRANCH  27  30
ENDBRANCH  24  27
ENDBRANCH  21  24
ENDBRANCH  20  21
ENDBRANCH   9  20
TORSDOF 12
ENDMDL
MODEL 7
REMARK VINA RESULT:      -7.2      3.520      6.619
REMARK  Name = Flavin mononucleotide
REMARK  14 active torsions:
REMARK  status: ('A' for Active; 'I' for Inactive)
REMARK    1  A    between atoms: C_1  and  C_2
REMARK    2  A    between atoms: C_7  and  C_8
REMARK    3  A    between atoms: N_9  and  C_10
REMARK    4  A    between atoms: C_10  and  C_11
REMARK    5  A    between atoms: C_11  and  O_12
REMARK    6  A    between atoms: C_11  and  C_13
REMARK    7  A    between atoms: C_13  and  O_14
REMARK    8  A    between atoms: C_13  and  C_15
REMARK    9  A    between atoms: C_15  and  O_16
REMARK   10  A    between atoms: C_15  and  C_17
REMARK   11  A    between atoms: C_17  and  O_18
REMARK   12  A    between atoms: O_18  and  P_19
REMARK   13  A    between atoms: P_19  and  O_20
REMARK   14  A    between atoms: P_19  and  O_21
REMARK                            x       y       z     vdW  Elec       q    Type
REMARK                         _______ _______ _______ _____ _____    ______ ____
ROOT
ATOM      1  C   UNL     1      -6.588   4.631 135.588  0.00  0.00    +0.000 C 
ATOM      2  C   UNL     1      -7.554   4.503 134.421  0.00  0.00    +0.000 A 
ATOM      3  C   UNL     1      -8.544   5.509 134.083  0.00  0.00    +0.000 A 
ATOM      4  C   UNL     1      -9.200   5.650 132.803  0.00  0.00    +0.000 A 
ATOM      5  C   UNL     1      -8.694   4.979 131.734  0.00  0.00    +0.000 A 
ATOM      6  C   UNL     1      -7.514   4.344 132.129  0.00  0.00    +0.000 A 
ATOM      7  C   UNL     1      -7.104   3.692 133.420  0.00  0.00    +0.000 A 
ATOM      8  C   UNL     1      -5.761   2.667 133.854  0.00  0.00    +0.000 C 
ATOM      9  N   UNL     1      -9.283   4.935 130.438  0.00  0.00    +0.000 N 
ATOM     10  C   UNL     1     -10.518   5.589 130.321  0.00  0.00    +0.000 A 
ATOM     11  N   UNL     1     -11.265   5.528 129.257  0.00  0.00    +0.000 NA
ATOM     12  C   UNL     1     -12.431   6.239 129.133  0.00  0.00    +0.000 A 
ATOM     13  O   UNL     1     -13.105   6.217 128.112  0.00  0.00    +0.000 OA
ATOM     14  N   UNL     1     -12.848   7.027 130.166  0.00  0.00    +0.000 N 
ATOM     15  C   UNL     1     -12.230   7.197 131.374  0.00  0.00    +0.000 A 
ATOM     16  O   UNL     1     -12.640   7.896 132.263  0.00  0.00    +0.000 OA
ATOM     17  C   UNL     1     -10.966   6.412 131.509  0.00  0.00    +0.000 A 
ATOM     18  N   UNL     1     -10.324   6.465 132.643  0.00  0.00    +0.000 NA
ATOM     19  H   UNL     1     -13.693   7.553 130.020  0.00  0.00    +0.000 HD
ENDROOT
BRANCH   9  20
ATOM     20  C   UNL     1      -9.006   3.962 129.285  0.00  0.00    +0.000 C 
BRANCH  20  21
ATOM     21  C   UNL     1      -8.139   4.436 128.144  0.00  0.00    +0.000 C 
BRANCH  21  22
ATOM     22  O   UNL     1      -6.926   5.028 128.658  0.00  0.00    +0.000 OA
ATOM     23  H   UNL     1      -7.115   5.678 129.365  0.00  0.00    +0.000 HD
ENDBRANCH  21  22
BRANCH  21  24
ATOM     24  C   UNL     1      -7.944   3.326 127.135  0.00  0.00    +0.000 C 
BRANCH  24  25
ATOM     25  O   UNL     1      -8.745   2.155 127.375  0.00  0.00    +0.000 OA
ATOM     26  H   UNL     1      -8.606   1.506 126.679  0.00  0.00    +0.000 HD
ENDBRANCH  24  25
BRANCH  24  27
ATOM     27  C   UNL     1      -7.957   4.052 125.725  0.00  0.00    +0.000 C 
BRANCH  27  28
ATOM     28  O   UNL     1      -8.704   5.271 126.082  0.00  0.00    +0.000 OA
ATOM     29  H   UNL     1      -8.548   5.496 127.032  0.00  0.00    +0.000 HD
ENDBRANCH  27  28
BRANCH  27  30
ATOM     30  C   UNL     1      -8.120   3.243 124.013  0.00  0.00    +0.000 C 
BRANCH  30  31
ATOM     31  O   UNL     1      -9.211   2.522 123.175  0.00  0.00    +0.000 OA
BRANCH  31  32
ATOM     32  P   UNL     1      -9.877   1.151 123.911  0.00  0.00    +0.000 P 
ATOM     33  O   UNL     1      -9.306   0.348 125.053  0.00  0.00    +0.000 OA
BRANCH  32  34
ATOM     34  O   UNL     1     -11.292   1.627 124.397  0.00  0.00    +0.000 OA
ATOM     35  H   UNL     1     -11.224   1.735 125.344  0.00  0.00    +0.000 HD
ENDBRANCH  32  34
BRANCH  32  36
ATOM     36  O   UNL     1     -10.145   0.273 122.607  0.00  0.00    +0.000 OA
ATOM     37  H   UNL     1     -11.030   0.543 122.281  0.00  0.00    +0.000 HD
ENDBRANCH  32  36
ENDBRANCH  31  32
ENDBRANCH  30  31
ENDBRANCH  27  30
ENDBRANCH  24  27
ENDBRANCH  21  24
ENDBRANCH  20  21
ENDBRANCH   9  20
TORSDOF 12
ENDMDL
MODEL 8
REMARK VINA RESULT:      -7.1      3.184      5.311
REMARK  Name = Flavin mononucleotide
REMARK  14 active torsions:
REMARK  status: ('A' for Active; 'I' for Inactive)
REMARK    1  A    between atoms: C_1  and  C_2
REMARK    2  A    between atoms: C_7  and  C_8
REMARK    3  A    between atoms: N_9  and  C_10
REMARK    4  A    between atoms: C_10  and  C_11
REMARK    5  A    between atoms: C_11  and  O_12
REMARK    6  A    between atoms: C_11  and  C_13
REMARK    7  A    between atoms: C_13  and  O_14
REMARK    8  A    between atoms: C_13  and  C_15
REMARK    9  A    between atoms: C_15  and  O_16
REMARK   10  A    between atoms: C_15  and  C_17
REMARK   11  A    between atoms: C_17  and  O_18
REMARK   12  A    between atoms: O_18  and  P_19
REMARK   13  A    between atoms: P_19  and  O_20
REMARK   14  A    between atoms: P_19  and  O_21
REMARK                            x       y       z     vdW  Elec       q    Type
REMARK                         _______ _______ _______ _____ _____    ______ ____
ROOT
ATOM      1  C   UNL     1      -6.382   3.433 122.588  0.00  0.00    +0.000 C 
ATOM      2  C   UNL     1      -6.075   3.323 124.073  0.00  0.00    +0.000 A 
ATOM      3  C   UNL     1      -5.224   4.257 124.789  0.00  0.00    +0.000 A 
ATOM      4  C   UNL     1      -5.207   4.454 126.221  0.00  0.00    +0.000 A 
ATOM      5  C   UNL     1      -6.224   3.940 126.961  0.00  0.00    +0.000 A 
ATOM      6  C   UNL     1      -7.168   3.388 126.094  0.00  0.00    +0.000 A 
ATOM      7  C   UNL     1      -7.030   2.659 124.786  0.00  0.00    +0.000 A 
ATOM      8  C   UNL     1      -8.151   1.732 123.823  0.00  0.00    +0.000 C 
ATOM      9  N   UNL     1      -6.297   3.962 128.384  0.00  0.00    +0.000 N 
ATOM     10  C   UNL     1      -5.176   4.502 129.030  0.00  0.00    +0.000 A 
ATOM     11  N   UNL     1      -5.007   4.470 130.321  0.00  0.00    +0.000 NA
ATOM     12  C   UNL     1      -3.942   5.073 130.940  0.00  0.00    +0.000 A 
ATOM     13  O   UNL     1      -3.812   5.083 132.157  0.00  0.00    +0.000 OA
ATOM     14  N   UNL     1      -3.004   5.715 130.185  0.00  0.00    +0.000 N 
ATOM     15  C   UNL     1      -2.980   5.829 128.822  0.00  0.00    +0.000 A 
ATOM     16  O   UNL     1      -2.125   6.397 128.196  0.00  0.00    +0.000 OA
ATOM     17  C   UNL     1      -4.136   5.160 128.151  0.00  0.00    +0.000 A 
ATOM     18  N   UNL     1      -4.182   5.167 126.848  0.00  0.00    +0.000 NA
ATOM     19  H   UNL     1      -2.257   6.168 130.683  0.00  0.00    +0.000 HD
ENDROOT
BRANCH   9  20
ATOM     20  C   UNL     1      -7.190   3.134 129.318  0.00  0.00    +0.000 C 
BRANCH  20  21
ATOM     21  C   UNL     1      -8.596   3.617 129.572  0.00  0.00    +0.000 C 
BRANCH  21  22
ATOM     22  O   UNL     1      -9.548   2.680 129.023  0.00  0.00    +0.000 OA
ATOM     23  H   UNL     1      -9.804   2.921 128.109  0.00  0.00    +0.000 HD
ENDBRANCH  21  22
BRANCH  21  24
ATOM     24  C   UNL     1      -8.783   3.949 131.037  0.00  0.00    +0.000 C 
BRANCH  24  25
ATOM     25  O   UNL     1      -7.556   4.077 131.779  0.00  0.00    +0.000 OA
ATOM     26  H   UNL     1      -7.065   4.847 131.482  0.00  0.00    +0.000 HD
ENDBRANCH  24  25
BRANCH  24  27
ATOM     27  C   UNL     1      -9.876   5.097 131.058  0.00  0.00    +0.000 C 
BRANCH  27  28
ATOM     28  O   UNL     1     -11.084   4.293 130.807  0.00  0.00    +0.000 OA
ATOM     29  H   UNL     1     -11.769   4.845 130.355  0.00  0.00    +0.000 HD
ENDBRANCH  27  28
BRANCH  27  30
ATOM     30  C   UNL     1      -9.697   6.870 130.396  0.00  0.00    +0.000 C 
BRANCH  30  31
ATOM     31  O   UNL     1     -10.526   7.878 129.554  0.00  0.00    +0.000 OA
BRANCH  31  32
ATOM     32  P   UNL     1     -10.807   7.399 127.954  0.00  0.00    +0.000 P 
ATOM     33  O   UNL     1     -10.842   8.270 126.724  0.00  0.00    +0.000 OA
BRANCH  32  34
ATOM     34  O   UNL     1      -9.699   6.323 127.677  0.00  0.00    +0.000 OA
ATOM     35  H   UNL     1      -8.862   6.779 127.751  0.00  0.00    +0.000 HD
ENDBRANCH  32  34
BRANCH  32  36
ATOM     36  O   UNL     1     -12.156   6.578 128.173  0.00  0.00    +0.000 OA
ATOM     37  H   UNL     1     -12.285   6.528 129.144  0.00  0.00    +0.000 HD
ENDBRANCH  32  36
ENDBRANCH  31  32
ENDBRANCH  30  31
ENDBRANCH  27  30
ENDBRANCH  24  27
ENDBRANCH  21  24
ENDBRANCH  20  21
ENDBRANCH   9  20
TORSDOF 12
ENDMDL
MODEL 9
REMARK VINA RESULT:      -7.1      2.566      6.032
REMARK  Name = Flavin mononucleotide
REMARK  14 active torsions:
REMARK  status: ('A' for Active; 'I' for Inactive)
REMARK    1  A    between atoms: C_1  and  C_2
REMARK    2  A    between atoms: C_7  and  C_8
REMARK    3  A    between atoms: N_9  and  C_10
REMARK    4  A    between atoms: C_10  and  C_11
REMARK    5  A    between atoms: C_11  and  O_12
REMARK    6  A    between atoms: C_11  and  C_13
REMARK    7  A    between atoms: C_13  and  O_14
REMARK    8  A    between atoms: C_13  and  C_15
REMARK    9  A    between atoms: C_15  and  O_16
REMARK   10  A    between atoms: C_15  and  C_17
REMARK   11  A    between atoms: C_17  and  O_18
REMARK   12  A    between atoms: O_18  and  P_19
REMARK   13  A    between atoms: P_19  and  O_20
REMARK   14  A    between atoms: P_19  and  O_21
REMARK                            x       y       z     vdW  Elec       q    Type
REMARK                         _______ _______ _______ _____ _____    ______ ____
ROOT
ATOM      1  C   UNL     1      -8.486  -0.542 132.127  0.00  0.00    +0.000 C 
ATOM      2  C   UNL     1      -8.777   0.612 131.182  0.00  0.00    +0.000 A 
ATOM      3  C   UNL     1      -9.446   1.835 131.589  0.00  0.00    +0.000 A 
ATOM      4  C   UNL     1      -9.401   3.095 130.883  0.00  0.00    +0.000 A 
ATOM      5  C   UNL     1      -8.468   3.263 129.908  0.00  0.00    +0.000 A 
ATOM      6  C   UNL     1      -7.647   2.135 129.882  0.00  0.00    +0.000 A 
ATOM      7  C   UNL     1      -7.931   0.677 130.112  0.00  0.00    +0.000 A 
ATOM      8  C   UNL     1      -7.000  -0.771 129.827  0.00  0.00    +0.000 C 
ATOM      9  N   UNL     1      -8.364   4.403 129.059  0.00  0.00    +0.000 N 
ATOM     10  C   UNL     1      -9.366   5.368 129.230  0.00  0.00    +0.000 A 
ATOM     11  N   UNL     1      -9.512   6.398 128.447  0.00  0.00    +0.000 NA
ATOM     12  C   UNL     1     -10.448   7.373 128.677  0.00  0.00    +0.000 A 
ATOM     13  O   UNL     1     -10.551   8.364 127.968  0.00  0.00    +0.000 OA
ATOM     14  N   UNL     1     -11.282   7.260 129.753  0.00  0.00    +0.000 N 
ATOM     15  C   UNL     1     -11.315   6.243 130.667  0.00  0.00    +0.000 A 
ATOM     16  O   UNL     1     -12.075   6.179 131.596  0.00  0.00    +0.000 OA
ATOM     17  C   UNL     1     -10.300   5.178 130.405  0.00  0.00    +0.000 A 
ATOM     18  N   UNL     1     -10.280   4.137 131.191  0.00  0.00    +0.000 NA
ATOM     19  H   UNL     1     -11.933   8.012 129.900  0.00  0.00    +0.000 HD
ENDROOT
BRANCH   9  20
ATOM     20  C   UNL     1      -7.602   4.553 127.736  0.00  0.00    +0.000 C 
BRANCH  20  21
ATOM     21  C   UNL     1      -8.263   4.058 126.473  0.00  0.00    +0.000 C 
BRANCH  21  22
ATOM     22  O   UNL     1      -8.909   5.154 125.789  0.00  0.00    +0.000 OA
ATOM     23  H   UNL     1      -9.244   4.883 124.911  0.00  0.00    +0.000 HD
ENDBRANCH  21  22
BRANCH  21  24
ATOM     24  C   UNL     1      -7.280   3.263 125.641  0.00  0.00    +0.000 C 
BRANCH  24  25
ATOM     25  O   UNL     1      -6.469   2.344 126.396  0.00  0.00    +0.000 OA
ATOM     26  H   UNL     1      -5.792   2.820 126.884  0.00  0.00    +0.000 HD
ENDBRANCH  24  25
BRANCH  24  27
ATOM     27  C   UNL     1      -8.113   2.776 124.383  0.00  0.00    +0.000 C 
BRANCH  27  28
ATOM     28  O   UNL     1      -8.002   3.975 123.534  0.00  0.00    +0.000 OA
ATOM     29  H   UNL     1      -7.067   4.091 123.235  0.00  0.00    +0.000 HD
ENDBRANCH  27  28
BRANCH  27  30
ATOM     30  C   UNL     1      -9.673   1.691 124.383  0.00  0.00    +0.000 C 
BRANCH  30  31
ATOM     31  O   UNL     1     -10.050   0.209 124.655  0.00  0.00    +0.000 OA
BRANCH  31  32
ATOM     32  P   UNL     1      -8.904  -0.659 125.549  0.00  0.00    +0.000 P 
ATOM     33  O   UNL     1      -8.982  -2.095 126.001  0.00  0.00    +0.000 OA
BRANCH  32  34
ATOM     34  O   UNL     1      -7.593  -0.557 124.692  0.00  0.00    +0.000 OA
ATOM     35  H   UNL     1      -6.932  -1.069 125.155  0.00  0.00    +0.000 HD
ENDBRANCH  32  34
BRANCH  32  36
ATOM     36  O   UNL     1      -8.705   0.363 126.758  0.00  0.00    +0.000 OA
ATOM     37  H   UNL     1      -9.113   1.206 126.465  0.00  0.00    +0.000 HD
ENDBRANCH  32  36
ENDBRANCH  31  32
ENDBRANCH  30  31
ENDBRANCH  27  30
ENDBRANCH  24  27
ENDBRANCH  21  24
ENDBRANCH  20  21
ENDBRANCH   9  20
TORSDOF 12
ENDMDL
