MODEL 1
REMARK VINA RESULT:      -8.1      0.000      0.000
REMARK  Name = Flavoxate
REMARK  7 active torsions:
REMARK  status: ('A' for Active; 'I' for Inactive)
REMARK    1  A    between atoms: C_1  and  C_2
REMARK    2  A    between atoms: C_3  and  C_24
REMARK    3  A    between atoms: C_10  and  C_11
REMARK    4  A    between atoms: C_11  and  O_13
REMARK    5  A    between atoms: O_13  and  C_14
REMARK    6  A    between atoms: C_14  and  C_15
REMARK    7  A    between atoms: C_15  and  N_16
REMARK                            x       y       z     vdW  Elec       q    Type
REMARK                         _______ _______ _______ _____ _____    ______ ____
ROOT
ATOM      1  C   UNL     1      -4.792   4.531 122.994  0.00  0.00    +0.000 C 
ATOM      2  C   UNL     1      -5.837   3.756 123.731  0.00  0.00    +0.000 A 
ATOM      3  C   UNL     1      -5.794   3.418 125.030  0.00  0.00    +0.000 A 
ATOM      4  O   UNL     1      -6.761   2.699 125.689  0.00  0.00    +0.000 OA
ATOM      5  C   UNL     1      -7.849   2.229 125.006  0.00  0.00    +0.000 A 
ATOM      6  C   UNL     1      -8.019   2.496 123.644  0.00  0.00    +0.000 A 
ATOM      7  C   UNL     1      -9.110   1.977 122.939  0.00  0.00    +0.000 A 
ATOM      8  C   UNL     1     -10.040   1.183 123.606  0.00  0.00    +0.000 A 
ATOM      9  C   UNL     1      -9.887   0.931 124.976  0.00  0.00    +0.000 A 
ATOM     10  C   UNL     1      -8.793   1.455 125.697  0.00  0.00    +0.000 A 
ATOM     11  C   UNL     1      -7.019   3.324 122.948  0.00  0.00    +0.000 A 
ATOM     12  O   UNL     1      -7.161   3.638 121.772  0.00  0.00    +0.000 OA
ENDROOT
BRANCH   3  13
ATOM     13  C   UNL     1      -4.696   3.825 125.918  0.00  0.00    +0.000 A 
ATOM     14  C   UNL     1      -3.545   3.039 126.049  0.00  0.00    +0.000 A 
ATOM     15  C   UNL     1      -2.543   3.415 126.945  0.00  0.00    +0.000 A 
ATOM     16  C   UNL     1      -2.644   4.619 127.644  0.00  0.00    +0.000 A 
ATOM     17  C   UNL     1      -3.774   5.419 127.498  0.00  0.00    +0.000 A 
ATOM     18  C   UNL     1      -4.807   5.009 126.662  0.00  0.00    +0.000 A 
ENDBRANCH   3  13
BRANCH  10  19
ATOM     19  C   UNL     1      -8.705   1.146 127.162  0.00  0.00    +0.000 C 
ATOM     20  O   UNL     1      -8.909   2.000 128.020  0.00  0.00    +0.000 OA
BRANCH  19  21
ATOM     21  O   UNL     1      -8.380  -0.147 127.419  0.00  0.00    +0.000 OA
BRANCH  21  22
ATOM     22  C   UNL     1      -7.099  -0.586 126.933  0.00  0.00    +0.000 C 
BRANCH  22  23
ATOM     23  C   UNL     1      -7.104  -2.114 126.678  0.00  0.00    +0.000 C 
BRANCH  23  24
ATOM     24  N   UNL     1      -7.425  -2.397 125.268  0.00  0.00    +0.000 NA
ATOM     25  C   UNL     1      -8.859  -2.596 125.016  0.00  0.00    +0.000 C 
ATOM     26  C   UNL     1      -9.072  -3.049 123.563  0.00  0.00    +0.000 C 
ATOM     27  C   UNL     1      -8.483  -2.048 122.572  0.00  0.00    +0.000 C 
ATOM     28  C   UNL     1      -7.036  -1.729 122.931  0.00  0.00    +0.000 C 
ATOM     29  C   UNL     1      -6.909  -1.329 124.397  0.00  0.00    +0.000 C 
ENDBRANCH  23  24
ENDBRANCH  22  23
ENDBRANCH  21  22
ENDBRANCH  19  21
ENDBRANCH  10  19
TORSDOF 6
ENDMDL
MODEL 2
REMARK VINA RESULT:      -7.9      4.800      7.382
REMARK  Name = Flavoxate
REMARK  7 active torsions:
REMARK  status: ('A' for Active; 'I' for Inactive)
REMARK    1  A    between atoms: C_1  and  C_2
REMARK    2  A    between atoms: C_3  and  C_24
REMARK    3  A    between atoms: C_10  and  C_11
REMARK    4  A    between atoms: C_11  and  O_13
REMARK    5  A    between atoms: O_13  and  C_14
REMARK    6  A    between atoms: C_14  and  C_15
REMARK    7  A    between atoms: C_15  and  N_16
REMARK                            x       y       z     vdW  Elec       q    Type
REMARK                         _______ _______ _______ _____ _____    ______ ____
ROOT
ATOM      1  C   UNL     1     -10.327   6.071 132.047  0.00  0.00    +0.000 C 
ATOM      2  C   UNL     1      -9.571   5.615 130.839  0.00  0.00    +0.000 A 
ATOM      3  C   UNL     1      -9.893   5.884 129.564  0.00  0.00    +0.000 A 
ATOM      4  O   UNL     1      -9.190   5.449 128.466  0.00  0.00    +0.000 OA
ATOM      5  C   UNL     1      -8.098   4.642 128.628  0.00  0.00    +0.000 A 
ATOM      6  C   UNL     1      -7.655   4.272 129.901  0.00  0.00    +0.000 A 
ATOM      7  C   UNL     1      -6.565   3.410 130.062  0.00  0.00    +0.000 A 
ATOM      8  C   UNL     1      -5.913   2.915 128.935  0.00  0.00    +0.000 A 
ATOM      9  C   UNL     1      -6.338   3.301 127.657  0.00  0.00    +0.000 A 
ATOM     10  C   UNL     1      -7.433   4.175 127.485  0.00  0.00    +0.000 A 
ATOM     11  C   UNL     1      -8.365   4.790 131.083  0.00  0.00    +0.000 A 
ATOM     12  O   UNL     1      -7.972   4.545 132.218  0.00  0.00    +0.000 OA
ENDROOT
BRANCH   3  13
ATOM     13  C   UNL     1     -11.040   6.726 129.197  0.00  0.00    +0.000 A 
ATOM     14  C   UNL     1     -12.335   6.198 129.146  0.00  0.00    +0.000 A 
ATOM     15  C   UNL     1     -13.400   7.002 128.735  0.00  0.00    +0.000 A 
ATOM     16  C   UNL     1     -13.192   8.354 128.462  0.00  0.00    +0.000 A 
ATOM     17  C   UNL     1     -11.910   8.893 128.538  0.00  0.00    +0.000 A 
ATOM     18  C   UNL     1     -10.836   8.075 128.874  0.00  0.00    +0.000 A 
ENDBRANCH   3  13
BRANCH  10  19
ATOM     19  C   UNL     1      -7.821   4.546 126.084  0.00  0.00    +0.000 C 
ATOM     20  O   UNL     1      -7.440   5.588 125.559  0.00  0.00    +0.000 OA
BRANCH  19  21
ATOM     21  O   UNL     1      -8.622   3.626 125.488  0.00  0.00    +0.000 OA
BRANCH  21  22
ATOM     22  C   UNL     1      -8.274   3.262 124.140  0.00  0.00    +0.000 C 
BRANCH  22  23
ATOM     23  C   UNL     1      -6.835   2.692 124.082  0.00  0.00    +0.000 C 
BRANCH  23  24
ATOM     24  N   UNL     1      -6.168   3.111 122.835  0.00  0.00    +0.000 NA
ATOM     25  C   UNL     1      -7.091   3.301 121.707  0.00  0.00    +0.000 C 
ATOM     26  C   UNL     1      -6.290   3.569 120.423  0.00  0.00    +0.000 C 
ATOM     27  C   UNL     1      -5.369   4.777 120.579  0.00  0.00    +0.000 C 
ATOM     28  C   UNL     1      -4.521   4.645 121.838  0.00  0.00    +0.000 C 
ATOM     29  C   UNL     1      -5.389   4.339 123.055  0.00  0.00    +0.000 C 
ENDBRANCH  23  24
ENDBRANCH  22  23
ENDBRANCH  21  22
ENDBRANCH  19  21
ENDBRANCH  10  19
TORSDOF 6
ENDMDL
MODEL 3
REMARK VINA RESULT:      -7.8      2.482      6.175
REMARK  Name = Flavoxate
REMARK  7 active torsions:
REMARK  status: ('A' for Active; 'I' for Inactive)
REMARK    1  A    between atoms: C_1  and  C_2
REMARK    2  A    between atoms: C_3  and  C_24
REMARK    3  A    between atoms: C_10  and  C_11
REMARK    4  A    between atoms: C_11  and  O_13
REMARK    5  A    between atoms: O_13  and  C_14
REMARK    6  A    between atoms: C_14  and  C_15
REMARK    7  A    between atoms: C_15  and  N_16
REMARK                            x       y       z     vdW  Elec       q    Type
REMARK                         _______ _______ _______ _____ _____    ______ ____
ROOT
ATOM      1  C   UNL     1      -8.303  -4.194 125.262  0.00  0.00    +0.000 C 
ATOM      2  C   UNL     1      -8.359  -2.708 125.105  0.00  0.00    +0.000 A 
ATOM      3  C   UNL     1      -7.860  -1.807 125.966  0.00  0.00    +0.000 A 
ATOM      4  O   UNL     1      -7.929  -0.444 125.808  0.00  0.00    +0.000 OA
ATOM      5  C   UNL     1      -8.583   0.088 124.732  0.00  0.00    +0.000 A 
ATOM      6  C   UNL     1      -9.161  -0.732 123.758  0.00  0.00    +0.000 A 
ATOM      7  C   UNL     1      -9.867  -0.186 122.682  0.00  0.00    +0.000 A 
ATOM      8  C   UNL     1      -9.995   1.197 122.580  0.00  0.00    +0.000 A 
ATOM      9  C   UNL     1      -9.398   2.025 123.540  0.00  0.00    +0.000 A 
ATOM     10  C   UNL     1      -8.678   1.484 124.626  0.00  0.00    +0.000 A 
ATOM     11  C   UNL     1      -9.032  -2.194 123.888  0.00  0.00    +0.000 A 
ATOM     12  O   UNL     1      -9.466  -2.950 123.026  0.00  0.00    +0.000 OA
ENDROOT
BRANCH   3  13
ATOM     13  C   UNL     1      -7.135  -2.193 127.185  0.00  0.00    +0.000 A 
ATOM     14  C   UNL     1      -7.822  -2.569 128.345  0.00  0.00    +0.000 A 
ATOM     15  C   UNL     1      -7.112  -2.872 129.508  0.00  0.00    +0.000 A 
ATOM     16  C   UNL     1      -5.717  -2.890 129.492  0.00  0.00    +0.000 A 
ATOM     17  C   UNL     1      -5.027  -2.545 128.333  0.00  0.00    +0.000 A 
ATOM     18  C   UNL     1      -5.733  -2.169 127.195  0.00  0.00    +0.000 A 
ENDBRANCH   3  13
BRANCH  10  19
ATOM     19  C   UNL     1      -8.062   2.438 125.606  0.00  0.00    +0.000 C 
ATOM     20  O   UNL     1      -8.695   2.892 126.555  0.00  0.00    +0.000 OA
BRANCH  19  21
ATOM     21  O   UNL     1      -6.767   2.733 125.326  0.00  0.00    +0.000 OA
BRANCH  21  22
ATOM     22  C   UNL     1      -6.495   4.095 124.950  0.00  0.00    +0.000 C 
BRANCH  22  23
ATOM     23  C   UNL     1      -5.258   4.171 124.022  0.00  0.00    +0.000 C 
BRANCH  23  24
ATOM     24  N   UNL     1      -5.672   4.484 122.642  0.00  0.00    +0.000 NA
ATOM     25  C   UNL     1      -4.549   4.785 121.742  0.00  0.00    +0.000 C 
ATOM     26  C   UNL     1      -5.087   5.260 120.383  0.00  0.00    +0.000 C 
ATOM     27  C   UNL     1      -6.020   4.226 119.758  0.00  0.00    +0.000 C 
ATOM     28  C   UNL     1      -7.095   3.804 120.752  0.00  0.00    +0.000 C 
ATOM     29  C   UNL     1      -6.478   3.387 122.083  0.00  0.00    +0.000 C 
ENDBRANCH  23  24
ENDBRANCH  22  23
ENDBRANCH  21  22
ENDBRANCH  19  21
ENDBRANCH  10  19
TORSDOF 6
ENDMDL
MODEL 4
REMARK VINA RESULT:      -7.5      4.512      6.665
REMARK  Name = Flavoxate
REMARK  7 active torsions:
REMARK  status: ('A' for Active; 'I' for Inactive)
REMARK    1  A    between atoms: C_1  and  C_2
REMARK    2  A    between atoms: C_3  and  C_24
REMARK    3  A    between atoms: C_10  and  C_11
REMARK    4  A    between atoms: C_11  and  O_13
REMARK    5  A    between atoms: O_13  and  C_14
REMARK    6  A    between atoms: C_14  and  C_15
REMARK    7  A    between atoms: C_15  and  N_16
REMARK                            x       y       z     vdW  Elec       q    Type
REMARK                         _______ _______ _______ _____ _____    ______ ____
ROOT
ATOM      1  C   UNL     1     -10.847   6.244 132.402  0.00  0.00    +0.000 C 
ATOM      2  C   UNL     1     -10.164   5.271 131.494  0.00  0.00    +0.000 A 
ATOM      3  C   UNL     1     -10.168   5.314 130.152  0.00  0.00    +0.000 A 
ATOM      4  O   UNL     1      -9.540   4.406 129.334  0.00  0.00    +0.000 OA
ATOM      5  C   UNL     1      -8.886   3.334 129.875  0.00  0.00    +0.000 A 
ATOM      6  C   UNL     1      -8.810   3.157 131.260  0.00  0.00    +0.000 A 
ATOM      7  C   UNL     1      -8.178   2.037 131.809  0.00  0.00    +0.000 A 
ATOM      8  C   UNL     1      -7.616   1.085 130.963  0.00  0.00    +0.000 A 
ATOM      9  C   UNL     1      -7.669   1.269 129.574  0.00  0.00    +0.000 A 
ATOM     10  C   UNL     1      -8.298   2.399 129.011  0.00  0.00    +0.000 A 
ATOM     11  C   UNL     1      -9.424   4.164 132.143  0.00  0.00    +0.000 A 
ATOM     12  O   UNL     1      -9.326   4.084 133.363  0.00  0.00    +0.000 OA
ENDROOT
BRANCH   3  13
ATOM     13  C   UNL     1     -10.830   6.386 129.396  0.00  0.00    +0.000 A 
ATOM     14  C   UNL     1     -10.106   7.484 128.917  0.00  0.00    +0.000 A 
ATOM     15  C   UNL     1     -10.769   8.519 128.254  0.00  0.00    +0.000 A 
ATOM     16  C   UNL     1     -12.134   8.420 127.988  0.00  0.00    +0.000 A 
ATOM     17  C   UNL     1     -12.856   7.317 128.437  0.00  0.00    +0.000 A 
ATOM     18  C   UNL     1     -12.211   6.320 129.163  0.00  0.00    +0.000 A 
ENDBRANCH   3  13
BRANCH  10  19
ATOM     19  C   UNL     1      -8.305   2.527 127.516  0.00  0.00    +0.000 C 
ATOM     20  O   UNL     1      -7.645   3.383 126.934  0.00  0.00    +0.000 OA
BRANCH  19  21
ATOM     21  O   UNL     1      -9.104   1.616 126.903  0.00  0.00    +0.000 OA
BRANCH  21  22
ATOM     22  C   UNL     1      -8.541   0.947 125.761  0.00  0.00    +0.000 C 
BRANCH  22  23
ATOM     23  C   UNL     1      -7.801  -0.344 126.191  0.00  0.00    +0.000 C 
BRANCH  23  24
ATOM     24  N   UNL     1      -8.013  -1.412 125.198  0.00  0.00    +0.000 NA
ATOM     25  C   UNL     1      -8.547  -2.655 125.772  0.00  0.00    +0.000 C 
ATOM     26  C   UNL     1      -8.574  -3.752 124.697  0.00  0.00    +0.000 C 
ATOM     27  C   UNL     1      -9.391  -3.324 123.479  0.00  0.00    +0.000 C 
ATOM     28  C   UNL     1      -8.932  -1.959 122.980  0.00  0.00    +0.000 C 
ATOM     29  C   UNL     1      -8.895  -0.943 124.117  0.00  0.00    +0.000 C 
ENDBRANCH  23  24
ENDBRANCH  22  23
ENDBRANCH  21  22
ENDBRANCH  19  21
ENDBRANCH  10  19
TORSDOF 6
ENDMDL
MODEL 5
REMARK VINA RESULT:      -7.5      4.677      6.776
REMARK  Name = Flavoxate
REMARK  7 active torsions:
REMARK  status: ('A' for Active; 'I' for Inactive)
REMARK    1  A    between atoms: C_1  and  C_2
REMARK    2  A    between atoms: C_3  and  C_24
REMARK    3  A    between atoms: C_10  and  C_11
REMARK    4  A    between atoms: C_11  and  O_13
REMARK    5  A    between atoms: O_13  and  C_14
REMARK    6  A    between atoms: C_14  and  C_15
REMARK    7  A    between atoms: C_15  and  N_16
REMARK                            x       y       z     vdW  Elec       q    Type
REMARK                         _______ _______ _______ _____ _____    ______ ____
ROOT
ATOM      1  C   UNL     1     -10.240   6.115 132.086  0.00  0.00    +0.000 C 
ATOM      2  C   UNL     1      -9.512   5.619 130.877  0.00  0.00    +0.000 A 
ATOM      3  C   UNL     1      -9.848   5.868 129.601  0.00  0.00    +0.000 A 
ATOM      4  O   UNL     1      -9.171   5.396 128.503  0.00  0.00    +0.000 OA
ATOM      5  C   UNL     1      -8.093   4.570 128.666  0.00  0.00    +0.000 A 
ATOM      6  C   UNL     1      -7.637   4.218 129.940  0.00  0.00    +0.000 A 
ATOM      7  C   UNL     1      -6.562   3.339 130.103  0.00  0.00    +0.000 A 
ATOM      8  C   UNL     1      -5.937   2.807 128.978  0.00  0.00    +0.000 A 
ATOM      9  C   UNL     1      -6.374   3.174 127.698  0.00  0.00    +0.000 A 
ATOM     10  C   UNL     1      -7.454   4.066 127.524  0.00  0.00    +0.000 A 
ATOM     11  C   UNL     1      -8.319   4.776 131.121  0.00  0.00    +0.000 A 
ATOM     12  O   UNL     1      -7.914   4.547 132.255  0.00  0.00    +0.000 OA
ENDROOT
BRANCH   3  13
ATOM     13  C   UNL     1     -10.984   6.724 129.233  0.00  0.00    +0.000 A 
ATOM     14  C   UNL     1     -10.791   8.060 128.864  0.00  0.00    +0.000 A 
ATOM     15  C   UNL     1     -11.891   8.870 128.579  0.00  0.00    +0.000 A 
ATOM     16  C   UNL     1     -13.177   8.328 128.572  0.00  0.00    +0.000 A 
ATOM     17  C   UNL     1     -13.374   6.992 128.910  0.00  0.00    +0.000 A 
ATOM     18  C   UNL     1     -12.286   6.203 129.269  0.00  0.00    +0.000 A 
ENDBRANCH   3  13
BRANCH  10  19
ATOM     19  C   UNL     1      -7.856   4.415 126.121  0.00  0.00    +0.000 C 
ATOM     20  O   UNL     1      -7.367   5.369 125.524  0.00  0.00    +0.000 OA
BRANCH  19  21
ATOM     21  O   UNL     1      -8.798   3.581 125.610  0.00  0.00    +0.000 OA
BRANCH  21  22
ATOM     22  C   UNL     1      -8.524   3.044 124.303  0.00  0.00    +0.000 C 
BRANCH  22  23
ATOM     23  C   UNL     1      -9.517   1.905 123.961  0.00  0.00    +0.000 C 
BRANCH  23  24
ATOM     24  N   UNL     1      -8.937   0.596 124.313  0.00  0.00    +0.000 NA
ATOM     25  C   UNL     1      -9.429   0.056 125.588  0.00  0.00    +0.000 C 
ATOM     26  C   UNL     1      -8.647  -1.217 125.947  0.00  0.00    +0.000 C 
ATOM     27  C   UNL     1      -8.746  -2.266 124.841  0.00  0.00    +0.000 C 
ATOM     28  C   UNL     1      -8.382  -1.657 123.492  0.00  0.00    +0.000 C 
ATOM     29  C   UNL     1      -9.172  -0.378 123.235  0.00  0.00    +0.000 C 
ENDBRANCH  23  24
ENDBRANCH  22  23
ENDBRANCH  21  22
ENDBRANCH  19  21
ENDBRANCH  10  19
TORSDOF 6
ENDMDL
MODEL 6
REMARK VINA RESULT:      -7.3      2.750      5.021
REMARK  Name = Flavoxate
REMARK  7 active torsions:
REMARK  status: ('A' for Active; 'I' for Inactive)
REMARK    1  A    between atoms: C_1  and  C_2
REMARK    2  A    between atoms: C_3  and  C_24
REMARK    3  A    between atoms: C_10  and  C_11
REMARK    4  A    between atoms: C_11  and  O_13
REMARK    5  A    between atoms: O_13  and  C_14
REMARK    6  A    between atoms: C_14  and  C_15
REMARK    7  A    between atoms: C_15  and  N_16
REMARK                            x       y       z     vdW  Elec       q    Type
REMARK                         _______ _______ _______ _____ _____    ______ ____
ROOT
ATOM      1  C   UNL     1      -9.481   2.581 122.012  0.00  0.00    +0.000 C 
ATOM      2  C   UNL     1      -8.789   1.385 122.585  0.00  0.00    +0.000 A 
ATOM      3  C   UNL     1      -7.491   1.315 122.921  0.00  0.00    +0.000 A 
ATOM      4  O   UNL     1      -6.871   0.203 123.439  0.00  0.00    +0.000 OA
ATOM      5  C   UNL     1      -7.574  -0.958 123.604  0.00  0.00    +0.000 A 
ATOM      6  C   UNL     1      -8.933  -1.033 123.286  0.00  0.00    +0.000 A 
ATOM      7  C   UNL     1      -9.638  -2.234 123.414  0.00  0.00    +0.000 A 
ATOM      8  C   UNL     1      -8.975  -3.371 123.866  0.00  0.00    +0.000 A 
ATOM      9  C   UNL     1      -7.618  -3.297 124.209  0.00  0.00    +0.000 A 
ATOM     10  C   UNL     1      -6.899  -2.089 124.089  0.00  0.00    +0.000 A 
ATOM     11  C   UNL     1      -9.619   0.175 122.793  0.00  0.00    +0.000 A 
ATOM     12  O   UNL     1     -10.823   0.173 122.564  0.00  0.00    +0.000 OA
ENDROOT
BRANCH   3  13
ATOM     13  C   UNL     1      -6.579   2.460 122.801  0.00  0.00    +0.000 A 
ATOM     14  C   UNL     1      -6.204   3.205 123.925  0.00  0.00    +0.000 A 
ATOM     15  C   UNL     1      -5.386   4.326 123.777  0.00  0.00    +0.000 A 
ATOM     16  C   UNL     1      -4.866   4.653 122.525  0.00  0.00    +0.000 A 
ATOM     17  C   UNL     1      -5.211   3.900 121.406  0.00  0.00    +0.000 A 
ATOM     18  C   UNL     1      -6.088   2.827 121.540  0.00  0.00    +0.000 A 
ENDBRANCH   3  13
BRANCH  10  19
ATOM     19  C   UNL     1      -5.452  -2.090 124.484  0.00  0.00    +0.000 C 
ATOM     20  O   UNL     1      -4.656  -2.909 124.033  0.00  0.00    +0.000 OA
BRANCH  19  21
ATOM     21  O   UNL     1      -5.138  -1.113 125.372  0.00  0.00    +0.000 OA
BRANCH  21  22
ATOM     22  C   UNL     1      -5.778  -1.197 126.659  0.00  0.00    +0.000 C 
BRANCH  22  23
ATOM     23  C   UNL     1      -5.060  -2.230 127.561  0.00  0.00    +0.000 C 
BRANCH  23  24
ATOM     24  N   UNL     1      -5.985  -2.747 128.586  0.00  0.00    +0.000 NA
ATOM     25  C   UNL     1      -5.309  -3.367 129.734  0.00  0.00    +0.000 C 
ATOM     26  C   UNL     1      -6.350  -4.020 130.657  0.00  0.00    +0.000 C 
ATOM     27  C   UNL     1      -7.395  -3.009 131.126  0.00  0.00    +0.000 C 
ATOM     28  C   UNL     1      -7.984  -2.258 129.938  0.00  0.00    +0.000 C 
ATOM     29  C   UNL     1      -6.884  -1.679 129.055  0.00  0.00    +0.000 C 
ENDBRANCH  23  24
ENDBRANCH  22  23
ENDBRANCH  21  22
ENDBRANCH  19  21
ENDBRANCH  10  19
TORSDOF 6
ENDMDL
MODEL 7
REMARK VINA RESULT:      -7.3      2.205      6.378
REMARK  Name = Flavoxate
REMARK  7 active torsions:
REMARK  status: ('A' for Active; 'I' for Inactive)
REMARK    1  A    between atoms: C_1  and  C_2
REMARK    2  A    between atoms: C_3  and  C_24
REMARK    3  A    between atoms: C_10  and  C_11
REMARK    4  A    between atoms: C_11  and  O_13
REMARK    5  A    between atoms: O_13  and  C_14
REMARK    6  A    between atoms: C_14  and  C_15
REMARK    7  A    between atoms: C_15  and  N_16
REMARK                            x       y       z     vdW  Elec       q    Type
REMARK                         _______ _______ _______ _____ _____    ______ ____
ROOT
ATOM      1  C   UNL     1      -8.235  -4.165 125.095  0.00  0.00    +0.000 C 
ATOM      2  C   UNL     1      -8.293  -2.670 125.091  0.00  0.00    +0.000 A 
ATOM      3  C   UNL     1      -7.896  -1.867 126.090  0.00  0.00    +0.000 A 
ATOM      4  O   UNL     1      -7.964  -0.494 126.071  0.00  0.00    +0.000 OA
ATOM      5  C   UNL     1      -8.511   0.149 124.995  0.00  0.00    +0.000 A 
ATOM      6  C   UNL     1      -8.976  -0.564 123.886  0.00  0.00    +0.000 A 
ATOM      7  C   UNL     1      -9.574   0.094 122.806  0.00  0.00    +0.000 A 
ATOM      8  C   UNL     1      -9.707   1.480 122.838  0.00  0.00    +0.000 A 
ATOM      9  C   UNL     1      -9.222   2.202 123.937  0.00  0.00    +0.000 A 
ATOM     10  C   UNL     1      -8.611   1.548 125.028  0.00  0.00    +0.000 A 
ATOM     11  C   UNL     1      -8.843  -2.031 123.873  0.00  0.00    +0.000 A 
ATOM     12  O   UNL     1      -9.177  -2.690 122.895  0.00  0.00    +0.000 OA
ENDROOT
BRANCH   3  13
ATOM     13  C   UNL     1      -7.296  -2.380 127.329  0.00  0.00    +0.000 A 
ATOM     14  C   UNL     1      -8.084  -2.974 128.321  0.00  0.00    +0.000 A 
ATOM     15  C   UNL     1      -7.499  -3.398 129.515  0.00  0.00    +0.000 A 
ATOM     16  C   UNL     1      -6.117  -3.315 129.686  0.00  0.00    +0.000 A 
ATOM     17  C   UNL     1      -5.322  -2.751 128.692  0.00  0.00    +0.000 A 
ATOM     18  C   UNL     1      -5.913  -2.258 127.533  0.00  0.00    +0.000 A 
ENDBRANCH   3  13
BRANCH  10  19
ATOM     19  C   UNL     1      -8.111   2.392 126.163  0.00  0.00    +0.000 C 
ATOM     20  O   UNL     1      -8.666   2.405 127.257  0.00  0.00    +0.000 OA
BRANCH  19  21
ATOM     21  O   UNL     1      -7.010   3.120 125.844  0.00  0.00    +0.000 OA
BRANCH  21  22
ATOM     22  C   UNL     1      -5.821   2.369 125.539  0.00  0.00    +0.000 C 
BRANCH  22  23
ATOM     23  C   UNL     1      -5.283   1.656 126.804  0.00  0.00    +0.000 C 
BRANCH  23  24
ATOM     24  N   UNL     1      -4.183   2.434 127.402  0.00  0.00    +0.000 NA
ATOM     25  C   UNL     1      -3.452   3.265 126.435  0.00  0.00    +0.000 C 
ATOM     26  C   UNL     1      -2.231   3.901 127.117  0.00  0.00    +0.000 C 
ATOM     27  C   UNL     1      -2.636   4.722 128.339  0.00  0.00    +0.000 C 
ATOM     28  C   UNL     1      -3.523   3.900 129.266  0.00  0.00    +0.000 C 
ATOM     29  C   UNL     1      -4.684   3.274 128.502  0.00  0.00    +0.000 C 
ENDBRANCH  23  24
ENDBRANCH  22  23
ENDBRANCH  21  22
ENDBRANCH  19  21
ENDBRANCH  10  19
TORSDOF 6
ENDMDL
MODEL 8
REMARK VINA RESULT:      -7.3      2.158      4.961
REMARK  Name = Flavoxate
REMARK  7 active torsions:
REMARK  status: ('A' for Active; 'I' for Inactive)
REMARK    1  A    between atoms: C_1  and  C_2
REMARK    2  A    between atoms: C_3  and  C_24
REMARK    3  A    between atoms: C_10  and  C_11
REMARK    4  A    between atoms: C_11  and  O_13
REMARK    5  A    between atoms: O_13  and  C_14
REMARK    6  A    between atoms: C_14  and  C_15
REMARK    7  A    between atoms: C_15  and  N_16
REMARK                            x       y       z     vdW  Elec       q    Type
REMARK                         _______ _______ _______ _____ _____    ______ ____
ROOT
ATOM      1  C   UNL     1      -9.389   2.314 122.279  0.00  0.00    +0.000 C 
ATOM      2  C   UNL     1      -8.884   1.232 123.179  0.00  0.00    +0.000 A 
ATOM      3  C   UNL     1      -7.960   1.379 124.142  0.00  0.00    +0.000 A 
ATOM      4  O   UNL     1      -7.503   0.370 124.955  0.00  0.00    +0.000 OA
ATOM      5  C   UNL     1      -7.958  -0.908 124.782  0.00  0.00    +0.000 A 
ATOM      6  C   UNL     1      -8.915  -1.209 123.809  0.00  0.00    +0.000 A 
ATOM      7  C   UNL     1      -9.346  -2.524 123.605  0.00  0.00    +0.000 A 
ATOM      8  C   UNL     1      -8.813  -3.547 124.385  0.00  0.00    +0.000 A 
ATOM      9  C   UNL     1      -7.871  -3.248 125.378  0.00  0.00    +0.000 A 
ATOM     10  C   UNL     1      -7.434  -1.924 125.596  0.00  0.00    +0.000 A 
ATOM     11  C   UNL     1      -9.459  -0.119 122.980  0.00  0.00    +0.000 A 
ATOM     12  O   UNL     1     -10.346  -0.327 122.159  0.00  0.00    +0.000 OA
ENDROOT
BRANCH   3  13
ATOM     13  C   UNL     1      -7.350   2.677 124.463  0.00  0.00    +0.000 A 
ATOM     14  C   UNL     1      -7.849   3.472 125.501  0.00  0.00    +0.000 A 
ATOM     15  C   UNL     1      -7.291   4.728 125.746  0.00  0.00    +0.000 A 
ATOM     16  C   UNL     1      -6.180   5.155 125.019  0.00  0.00    +0.000 A 
ATOM     17  C   UNL     1      -5.660   4.357 124.003  0.00  0.00    +0.000 A 
ATOM     18  C   UNL     1      -6.262   3.138 123.708  0.00  0.00    +0.000 A 
ENDBRANCH   3  13
BRANCH  10  19
ATOM     19  C   UNL     1      -6.429  -1.685 126.683  0.00  0.00    +0.000 C 
ATOM     20  O   UNL     1      -5.233  -1.908 126.522  0.00  0.00    +0.000 OA
BRANCH  19  21
ATOM     21  O   UNL     1      -6.981  -1.213 127.830  0.00  0.00    +0.000 OA
BRANCH  21  22
ATOM     22  C   UNL     1      -6.214  -0.226 128.543  0.00  0.00    +0.000 C 
BRANCH  22  23
ATOM     23  C   UNL     1      -6.726   1.200 128.225  0.00  0.00    +0.000 C 
BRANCH  23  24
ATOM     24  N   UNL     1      -5.591   2.116 128.011  0.00  0.00    +0.000 NA
ATOM     25  C   UNL     1      -4.737   2.286 129.196  0.00  0.00    +0.000 C 
ATOM     26  C   UNL     1      -3.690   3.379 128.927  0.00  0.00    +0.000 C 
ATOM     27  C   UNL     1      -2.848   3.057 127.695  0.00  0.00    +0.000 C 
ATOM     28  C   UNL     1      -3.743   2.731 126.505  0.00  0.00    +0.000 C 
ATOM     29  C   UNL     1      -4.776   1.670 126.870  0.00  0.00    +0.000 C 
ENDBRANCH  23  24
ENDBRANCH  22  23
ENDBRANCH  21  22
ENDBRANCH  19  21
ENDBRANCH  10  19
TORSDOF 6
ENDMDL
MODEL 9
REMARK VINA RESULT:      -7.3      3.033      6.330
REMARK  Name = Flavoxate
REMARK  7 active torsions:
REMARK  status: ('A' for Active; 'I' for Inactive)
REMARK    1  A    between atoms: C_1  and  C_2
REMARK    2  A    between atoms: C_3  and  C_24
REMARK    3  A    between atoms: C_10  and  C_11
REMARK    4  A    between atoms: C_11  and  O_13
REMARK    5  A    between atoms: O_13  and  C_14
REMARK    6  A    between atoms: C_14  and  C_15
REMARK    7  A    between atoms: C_15  and  N_16
REMARK                            x       y       z     vdW  Elec       q    Type
REMARK                         _______ _______ _______ _____ _____    ______ ____
ROOT
ATOM      1  C   UNL     1      -8.549  -3.760 125.374  0.00  0.00    +0.000 C 
ATOM      2  C   UNL     1      -8.424  -2.270 125.429  0.00  0.00    +0.000 A 
ATOM      3  C   UNL     1      -7.882  -1.564 126.434  0.00  0.00    +0.000 A 
ATOM      4  O   UNL     1      -7.783  -0.195 126.470  0.00  0.00    +0.000 OA
ATOM      5  C   UNL     1      -8.299   0.556 125.451  0.00  0.00    +0.000 A 
ATOM      6  C   UNL     1      -8.903  -0.046 124.342  0.00  0.00    +0.000 A 
ATOM      7  C   UNL     1      -9.469   0.725 123.322  0.00  0.00    +0.000 A 
ATOM      8  C   UNL     1      -9.429   2.114 123.414  0.00  0.00    +0.000 A 
ATOM      9  C   UNL     1      -8.806   2.724 124.511  0.00  0.00    +0.000 A 
ATOM     10  C   UNL     1      -8.226   1.954 125.541  0.00  0.00    +0.000 A 
ATOM     11  C   UNL     1      -8.951  -1.517 124.267  0.00  0.00    +0.000 A 
ATOM     12  O   UNL     1      -9.412  -2.088 123.285  0.00  0.00    +0.000 OA
ENDROOT
BRANCH   3  13
ATOM     13  C   UNL     1      -7.288  -2.200 127.618  0.00  0.00    +0.000 A 
ATOM     14  C   UNL     1      -5.912  -2.127 127.863  0.00  0.00    +0.000 A 
ATOM     15  C   UNL     1      -5.363  -2.791 128.961  0.00  0.00    +0.000 A 
ATOM     16  C   UNL     1      -6.194  -3.452 129.867  0.00  0.00    +0.000 A 
ATOM     17  C   UNL     1      -7.567  -3.505 129.646  0.00  0.00    +0.000 A 
ATOM     18  C   UNL     1      -8.107  -2.908 128.511  0.00  0.00    +0.000 A 
ENDBRANCH   3  13
BRANCH  10  19
ATOM     19  C   UNL     1      -7.570   2.682 126.678  0.00  0.00    +0.000 C 
ATOM     20  O   UNL     1      -6.361   2.888 126.705  0.00  0.00    +0.000 OA
BRANCH  19  21
ATOM     21  O   UNL     1      -8.444   3.069 127.642  0.00  0.00    +0.000 OA
BRANCH  21  22
ATOM     22  C   UNL     1      -8.029   4.175 128.465  0.00  0.00    +0.000 C 
BRANCH  22  23
ATOM     23  C   UNL     1      -7.477   3.672 129.821  0.00  0.00    +0.000 C 
BRANCH  23  24
ATOM     24  N   UNL     1      -8.188   2.451 130.243  0.00  0.00    +0.000 NA
ATOM     25  C   UNL     1      -7.320   1.269 130.351  0.00  0.00    +0.000 C 
ATOM     26  C   UNL     1      -8.175   0.023 130.629  0.00  0.00    +0.000 C 
ATOM     27  C   UNL     1      -9.019   0.192 131.890  0.00  0.00    +0.000 C 
ATOM     28  C   UNL     1      -9.802   1.499 131.839  0.00  0.00    +0.000 C 
ATOM     29  C   UNL     1      -8.886   2.675 131.519  0.00  0.00    +0.000 C 
ENDBRANCH  23  24
ENDBRANCH  22  23
ENDBRANCH  21  22
ENDBRANCH  19  21
ENDBRANCH  10  19
TORSDOF 6
ENDMDL
