MODEL 1
REMARK VINA RESULT:      -7.9      0.000      0.000
REMARK  Name = Flavone
REMARK  1 active torsions:
REMARK  status: ('A' for Active; 'I' for Inactive)
REMARK    1  A    between atoms: C_4  and  C_12
REMARK                            x       y       z     vdW  Elec       q    Type
REMARK                         _______ _______ _______ _____ _____    ______ ____
ROOT
ATOM      1  O   UNL     1     -13.129   6.836 131.452  0.00  0.00    +0.000 OA
ATOM      2  C   UNL     1     -12.064   6.888 130.846  0.00  0.00    +0.000 A 
ATOM      3  C   UNL     1     -10.783   6.776 131.557  0.00  0.00    +0.000 A 
ATOM      4  C   UNL     1      -9.643   6.814 130.852  0.00  0.00    +0.000 A 
ATOM      5  O   UNL     1      -9.568   6.998 129.482  0.00  0.00    +0.000 OA
ATOM      6  C   UNL     1     -10.744   7.086 128.775  0.00  0.00    +0.000 A 
ATOM      7  C   UNL     1     -10.652   7.229 127.391  0.00  0.00    +0.000 A 
ATOM      8  C   UNL     1     -11.816   7.316 126.622  0.00  0.00    +0.000 A 
ATOM      9  C   UNL     1     -13.069   7.258 127.235  0.00  0.00    +0.000 A 
ATOM     10  C   UNL     1     -13.163   7.118 128.620  0.00  0.00    +0.000 A 
ATOM     11  C   UNL     1     -11.996   7.034 129.385  0.00  0.00    +0.000 A 
ENDROOT
BRANCH   4  12
ATOM     12  C   UNL     1      -8.345   6.587 131.503  0.00  0.00    +0.000 A 
ATOM     13  C   UNL     1      -7.151   7.002 130.901  0.00  0.00    +0.000 A 
ATOM     14  C   UNL     1      -5.920   6.666 131.473  0.00  0.00    +0.000 A 
ATOM     15  C   UNL     1      -5.875   5.975 132.684  0.00  0.00    +0.000 A 
ATOM     16  C   UNL     1      -7.058   5.581 133.304  0.00  0.00    +0.000 A 
ATOM     17  C   UNL     1      -8.286   5.876 132.711  0.00  0.00    +0.000 A 
ENDBRANCH   4  12
TORSDOF 1
ENDMDL
MODEL 2
REMARK VINA RESULT:      -7.4      1.603      5.969
REMARK  Name = Flavone
REMARK  1 active torsions:
REMARK  status: ('A' for Active; 'I' for Inactive)
REMARK    1  A    between atoms: C_4  and  C_12
REMARK                            x       y       z     vdW  Elec       q    Type
REMARK                         _______ _______ _______ _____ _____    ______ ____
ROOT
ATOM      1  O   UNL     1      -9.036   4.961 133.672  0.00  0.00    +0.000 OA
ATOM      2  C   UNL     1      -8.793   5.638 132.679  0.00  0.00    +0.000 A 
ATOM      3  C   UNL     1      -9.874   6.108 131.801  0.00  0.00    +0.000 A 
ATOM      4  C   UNL     1      -9.566   6.866 130.740  0.00  0.00    +0.000 A 
ATOM      5  O   UNL     1      -8.279   7.217 130.367  0.00  0.00    +0.000 OA
ATOM      6  C   UNL     1      -7.240   6.816 131.172  0.00  0.00    +0.000 A 
ATOM      7  C   UNL     1      -5.953   7.212 130.806  0.00  0.00    +0.000 A 
ATOM      8  C   UNL     1      -4.860   6.839 131.593  0.00  0.00    +0.000 A 
ATOM      9  C   UNL     1      -5.052   6.072 132.745  0.00  0.00    +0.000 A 
ATOM     10  C   UNL     1      -6.339   5.673 133.111  0.00  0.00    +0.000 A 
ATOM     11  C   UNL     1      -7.428   6.046 132.319  0.00  0.00    +0.000 A 
ENDROOT
BRANCH   4  12
ATOM     12  C   UNL     1     -10.619   7.457 129.902  0.00  0.00    +0.000 A 
ATOM     13  C   UNL     1     -11.953   7.481 130.327  0.00  0.00    +0.000 A 
ATOM     14  C   UNL     1     -12.958   7.931 129.465  0.00  0.00    +0.000 A 
ATOM     15  C   UNL     1     -12.630   8.423 128.201  0.00  0.00    +0.000 A 
ATOM     16  C   UNL     1     -11.303   8.426 127.780  0.00  0.00    +0.000 A 
ATOM     17  C   UNL     1     -10.305   7.936 128.622  0.00  0.00    +0.000 A 
ENDBRANCH   4  12
TORSDOF 1
ENDMDL
MODEL 3
REMARK VINA RESULT:      -7.2      1.517      6.278
REMARK  Name = Flavone
REMARK  1 active torsions:
REMARK  status: ('A' for Active; 'I' for Inactive)
REMARK    1  A    between atoms: C_4  and  C_12
REMARK                            x       y       z     vdW  Elec       q    Type
REMARK                         _______ _______ _______ _____ _____    ______ ____
ROOT
ATOM      1  O   UNL     1      -6.248   7.209 130.929  0.00  0.00    +0.000 OA
ATOM      2  C   UNL     1      -7.392   6.844 131.177  0.00  0.00    +0.000 A 
ATOM      3  C   UNL     1      -8.525   7.301 130.361  0.00  0.00    +0.000 A 
ATOM      4  C   UNL     1      -9.756   6.857 130.652  0.00  0.00    +0.000 A 
ATOM      5  O   UNL     1     -10.063   6.018 131.711  0.00  0.00    +0.000 OA
ATOM      6  C   UNL     1      -9.029   5.550 132.486  0.00  0.00    +0.000 A 
ATOM      7  C   UNL     1      -9.350   4.674 133.523  0.00  0.00    +0.000 A 
ATOM      8  C   UNL     1      -8.337   4.161 134.338  0.00  0.00    +0.000 A 
ATOM      9  C   UNL     1      -7.006   4.522 134.118  0.00  0.00    +0.000 A 
ATOM     10  C   UNL     1      -6.684   5.402 133.083  0.00  0.00    +0.000 A 
ATOM     11  C   UNL     1      -7.701   5.914 132.272  0.00  0.00    +0.000 A 
ENDROOT
BRANCH   4  12
ATOM     12  C   UNL     1     -10.902   7.191 129.795  0.00  0.00    +0.000 A 
ATOM     13  C   UNL     1     -12.126   6.525 129.929  0.00  0.00    +0.000 A 
ATOM     14  C   UNL     1     -13.163   6.766 129.023  0.00  0.00    +0.000 A 
ATOM     15  C   UNL     1     -13.008   7.724 128.021  0.00  0.00    +0.000 A 
ATOM     16  C   UNL     1     -11.804   8.411 127.894  0.00  0.00    +0.000 A 
ATOM     17  C   UNL     1     -10.753   8.138 128.770  0.00  0.00    +0.000 A 
ENDBRANCH   4  12
TORSDOF 1
ENDMDL
MODEL 4
REMARK VINA RESULT:      -7.1      1.852      3.021
REMARK  Name = Flavone
REMARK  1 active torsions:
REMARK  status: ('A' for Active; 'I' for Inactive)
REMARK    1  A    between atoms: C_4  and  C_12
REMARK                            x       y       z     vdW  Elec       q    Type
REMARK                         _______ _______ _______ _____ _____    ______ ____
ROOT
ATOM      1  O   UNL     1      -9.716   6.413 127.481  0.00  0.00    +0.000 OA
ATOM      2  C   UNL     1     -10.120   6.503 128.635  0.00  0.00    +0.000 A 
ATOM      3  C   UNL     1      -9.524   5.699 129.711  0.00  0.00    +0.000 A 
ATOM      4  C   UNL     1      -9.982   5.846 130.962  0.00  0.00    +0.000 A 
ATOM      5  O   UNL     1     -11.024   6.682 131.328  0.00  0.00    +0.000 OA
ATOM      6  C   UNL     1     -11.595   7.468 130.357  0.00  0.00    +0.000 A 
ATOM      7  C   UNL     1     -12.616   8.334 130.749  0.00  0.00    +0.000 A 
ATOM      8  C   UNL     1     -13.228   9.162 129.803  0.00  0.00    +0.000 A 
ATOM      9  C   UNL     1     -12.819   9.125 128.468  0.00  0.00    +0.000 A 
ATOM     10  C   UNL     1     -11.801   8.257 128.073  0.00  0.00    +0.000 A 
ATOM     11  C   UNL     1     -11.194   7.429 129.022  0.00  0.00    +0.000 A 
ENDROOT
BRANCH   4  12
ATOM     12  C   UNL     1      -9.339   5.153 132.088  0.00  0.00    +0.000 A 
ATOM     13  C   UNL     1      -9.440   3.765 132.235  0.00  0.00    +0.000 A 
ATOM     14  C   UNL     1      -8.931   3.140 133.378  0.00  0.00    +0.000 A 
ATOM     15  C   UNL     1      -8.259   3.887 134.346  0.00  0.00    +0.000 A 
ATOM     16  C   UNL     1      -8.132   5.265 134.195  0.00  0.00    +0.000 A 
ATOM     17  C   UNL     1      -8.679   5.896 133.077  0.00  0.00    +0.000 A 
ENDBRANCH   4  12
TORSDOF 1
ENDMDL
MODEL 5
REMARK VINA RESULT:      -7.0      2.132      6.085
REMARK  Name = Flavone
REMARK  1 active torsions:
REMARK  status: ('A' for Active; 'I' for Inactive)
REMARK    1  A    between atoms: C_4  and  C_12
REMARK                            x       y       z     vdW  Elec       q    Type
REMARK                         _______ _______ _______ _____ _____    ______ ____
ROOT
ATOM      1  O   UNL     1      -9.751   2.545 130.926  0.00  0.00    +0.000 OA
ATOM      2  C   UNL     1      -9.680   3.725 131.253  0.00  0.00    +0.000 A 
ATOM      3  C   UNL     1     -10.302   4.776 130.437  0.00  0.00    +0.000 A 
ATOM      4  C   UNL     1     -10.220   6.050 130.845  0.00  0.00    +0.000 A 
ATOM      5  O   UNL     1      -9.544   6.474 131.977  0.00  0.00    +0.000 OA
ATOM      6  C   UNL     1      -8.966   5.521 132.780  0.00  0.00    +0.000 A 
ATOM      7  C   UNL     1      -8.324   5.961 133.938  0.00  0.00    +0.000 A 
ATOM      8  C   UNL     1      -7.726   5.034 134.796  0.00  0.00    +0.000 A 
ATOM      9  C   UNL     1      -7.769   3.670 134.498  0.00  0.00    +0.000 A 
ATOM     10  C   UNL     1      -8.407   3.229 133.339  0.00  0.00    +0.000 A 
ATOM     11  C   UNL     1      -9.002   4.160 132.483  0.00  0.00    +0.000 A 
ENDROOT
BRANCH   4  12
ATOM     12  C   UNL     1     -10.926   7.120 130.126  0.00  0.00    +0.000 A 
ATOM     13  C   UNL     1     -12.169   7.590 130.567  0.00  0.00    +0.000 A 
ATOM     14  C   UNL     1     -12.883   8.517 129.801  0.00  0.00    +0.000 A 
ATOM     15  C   UNL     1     -12.330   9.032 128.628  0.00  0.00    +0.000 A 
ATOM     16  C   UNL     1     -11.083   8.589 128.195  0.00  0.00    +0.000 A 
ATOM     17  C   UNL     1     -10.390   7.630 128.935  0.00  0.00    +0.000 A 
ENDBRANCH   4  12
TORSDOF 1
ENDMDL
MODEL 6
REMARK VINA RESULT:      -6.9      3.048      3.292
REMARK  Name = Flavone
REMARK  1 active torsions:
REMARK  status: ('A' for Active; 'I' for Inactive)
REMARK    1  A    between atoms: C_4  and  C_12
REMARK                            x       y       z     vdW  Elec       q    Type
REMARK                         _______ _______ _______ _____ _____    ______ ____
ROOT
ATOM      1  O   UNL     1     -12.317   6.772 132.021  0.00  0.00    +0.000 OA
ATOM      2  C   UNL     1     -11.584   6.301 131.158  0.00  0.00    +0.000 A 
ATOM      3  C   UNL     1     -10.899   5.018 131.365  0.00  0.00    +0.000 A 
ATOM      4  C   UNL     1     -10.125   4.529 130.386  0.00  0.00    +0.000 A 
ATOM      5  O   UNL     1      -9.877   5.167 129.183  0.00  0.00    +0.000 OA
ATOM      6  C   UNL     1     -10.515   6.360 128.939  0.00  0.00    +0.000 A 
ATOM      7  C   UNL     1     -10.286   6.970 127.706  0.00  0.00    +0.000 A 
ATOM      8  C   UNL     1     -10.915   8.181 127.402  0.00  0.00    +0.000 A 
ATOM      9  C   UNL     1     -11.772   8.780 128.328  0.00  0.00    +0.000 A 
ATOM     10  C   UNL     1     -11.999   8.172 129.564  0.00  0.00    +0.000 A 
ATOM     11  C   UNL     1     -11.365   6.963 129.864  0.00  0.00    +0.000 A 
ENDROOT
BRANCH   4  12
ATOM     12  C   UNL     1      -9.516   3.196 130.500  0.00  0.00    +0.000 A 
ATOM     13  C   UNL     1      -8.744   2.662 129.461  0.00  0.00    +0.000 A 
ATOM     14  C   UNL     1      -8.279   1.345 129.534  0.00  0.00    +0.000 A 
ATOM     15  C   UNL     1      -8.523   0.578 130.674  0.00  0.00    +0.000 A 
ATOM     16  C   UNL     1      -9.268   1.109 131.723  0.00  0.00    +0.000 A 
ATOM     17  C   UNL     1      -9.771   2.408 131.632  0.00  0.00    +0.000 A 
ENDBRANCH   4  12
TORSDOF 1
ENDMDL
MODEL 7
REMARK VINA RESULT:      -6.8     10.445     10.725
REMARK  Name = Flavone
REMARK  1 active torsions:
REMARK  status: ('A' for Active; 'I' for Inactive)
REMARK    1  A    between atoms: C_4  and  C_12
REMARK                            x       y       z     vdW  Elec       q    Type
REMARK                         _______ _______ _______ _____ _____    ______ ____
ROOT
ATOM      1  O   UNL     1     -10.134  -2.890 125.853  0.00  0.00    +0.000 OA
ATOM      2  C   UNL     1      -8.925  -2.727 125.972  0.00  0.00    +0.000 A 
ATOM      3  C   UNL     1      -8.270  -2.849 127.282  0.00  0.00    +0.000 A 
ATOM      4  C   UNL     1      -6.942  -2.686 127.363  0.00  0.00    +0.000 A 
ATOM      5  O   UNL     1      -6.121  -2.361 126.297  0.00  0.00    +0.000 OA
ATOM      6  C   UNL     1      -6.689  -2.258 125.050  0.00  0.00    +0.000 A 
ATOM      7  C   UNL     1      -5.841  -1.971 123.980  0.00  0.00    +0.000 A 
ATOM      8  C   UNL     1      -6.364  -1.862 122.688  0.00  0.00    +0.000 A 
ATOM      9  C   UNL     1      -7.732  -2.041 122.466  0.00  0.00    +0.000 A 
ATOM     10  C   UNL     1      -8.581  -2.325 123.536  0.00  0.00    +0.000 A 
ATOM     11  C   UNL     1      -8.054  -2.430 124.826  0.00  0.00    +0.000 A 
ENDROOT
BRANCH   4  12
ATOM     12  C   UNL     1      -6.229  -2.916 128.628  0.00  0.00    +0.000 A 
ATOM     13  C   UNL     1      -4.850  -2.698 128.731  0.00  0.00    +0.000 A 
ATOM     14  C   UNL     1      -4.168  -3.041 129.902  0.00  0.00    +0.000 A 
ATOM     15  C   UNL     1      -4.869  -3.540 131.001  0.00  0.00    +0.000 A 
ATOM     16  C   UNL     1      -6.245  -3.736 130.917  0.00  0.00    +0.000 A 
ATOM     17  C   UNL     1      -6.919  -3.435 129.733  0.00  0.00    +0.000 A 
ENDBRANCH   4  12
TORSDOF 1
ENDMDL
MODEL 8
REMARK VINA RESULT:      -6.8      8.533      9.930
REMARK  Name = Flavone
REMARK  1 active torsions:
REMARK  status: ('A' for Active; 'I' for Inactive)
REMARK    1  A    between atoms: C_4  and  C_12
REMARK                            x       y       z     vdW  Elec       q    Type
REMARK                         _______ _______ _______ _____ _____    ______ ____
ROOT
ATOM      1  O   UNL     1      -9.387   1.201 126.566  0.00  0.00    +0.000 OA
ATOM      2  C   UNL     1      -8.747   0.933 125.555  0.00  0.00    +0.000 A 
ATOM      3  C   UNL     1      -8.078   1.988 124.782  0.00  0.00    +0.000 A 
ATOM      4  C   UNL     1      -7.369   1.648 123.696  0.00  0.00    +0.000 A 
ATOM      5  O   UNL     1      -7.247   0.358 123.206  0.00  0.00    +0.000 OA
ATOM      6  C   UNL     1      -7.840  -0.661 123.911  0.00  0.00    +0.000 A 
ATOM      7  C   UNL     1      -7.674  -1.959 123.426  0.00  0.00    +0.000 A 
ATOM      8  C   UNL     1      -8.249  -3.035 124.108  0.00  0.00    +0.000 A 
ATOM      9  C   UNL     1      -8.988  -2.815 125.273  0.00  0.00    +0.000 A 
ATOM     10  C   UNL     1      -9.158  -1.517 125.757  0.00  0.00    +0.000 A 
ATOM     11  C   UNL     1      -8.583  -0.444 125.070  0.00  0.00    +0.000 A 
ENDROOT
BRANCH   4  12
ATOM     12  C   UNL     1      -6.586   2.651 122.960  0.00  0.00    +0.000 A 
ATOM     13  C   UNL     1      -6.416   2.561 121.574  0.00  0.00    +0.000 A 
ATOM     14  C   UNL     1      -5.565   3.449 120.910  0.00  0.00    +0.000 A 
ATOM     15  C   UNL     1      -4.934   4.475 121.614  0.00  0.00    +0.000 A 
ATOM     16  C   UNL     1      -5.118   4.588 122.989  0.00  0.00    +0.000 A 
ATOM     17  C   UNL     1      -5.931   3.674 123.661  0.00  0.00    +0.000 A 
ENDBRANCH   4  12
TORSDOF 1
ENDMDL
MODEL 9
REMARK VINA RESULT:      -6.8      8.971     10.210
REMARK  Name = Flavone
REMARK  1 active torsions:
REMARK  status: ('A' for Active; 'I' for Inactive)
REMARK    1  A    between atoms: C_4  and  C_12
REMARK                            x       y       z     vdW  Elec       q    Type
REMARK                         _______ _______ _______ _____ _____    ______ ____
ROOT
ATOM      1  O   UNL     1      -9.637  -2.807 124.121  0.00  0.00    +0.000 OA
ATOM      2  C   UNL     1      -8.874  -2.119 124.790  0.00  0.00    +0.000 A 
ATOM      3  C   UNL     1      -8.252  -0.913 124.226  0.00  0.00    +0.000 A 
ATOM      4  C   UNL     1      -7.442  -0.177 125.000  0.00  0.00    +0.000 A 
ATOM      5  O   UNL     1      -7.101  -0.489 126.306  0.00  0.00    +0.000 OA
ATOM      6  C   UNL     1      -7.677  -1.596 126.879  0.00  0.00    +0.000 A 
ATOM      7  C   UNL     1      -7.355  -1.874 128.208  0.00  0.00    +0.000 A 
ATOM      8  C   UNL     1      -7.919  -2.984 128.843  0.00  0.00    +0.000 A 
ATOM      9  C   UNL     1      -8.804  -3.815 128.152  0.00  0.00    +0.000 A 
ATOM     10  C   UNL     1      -9.125  -3.540 126.822  0.00  0.00    +0.000 A 
ATOM     11  C   UNL     1      -8.556  -2.431 126.191  0.00  0.00    +0.000 A 
ENDROOT
BRANCH   4  12
ATOM     12  C   UNL     1      -6.892   1.098 124.520  0.00  0.00    +0.000 A 
ATOM     13  C   UNL     1      -6.157   1.935 125.369  0.00  0.00    +0.000 A 
ATOM     14  C   UNL     1      -5.751   3.199 124.932  0.00  0.00    +0.000 A 
ATOM     15  C   UNL     1      -6.015   3.608 123.624  0.00  0.00    +0.000 A 
ATOM     16  C   UNL     1      -6.723   2.772 122.765  0.00  0.00    +0.000 A 
ATOM     17  C   UNL     1      -7.168   1.528 123.214  0.00  0.00    +0.000 A 
ENDBRANCH   4  12
TORSDOF 1
ENDMDL
