MODEL 1
REMARK VINA RESULT:      -7.3      0.000      0.000
REMARK  Name = Flecainide
REMARK  9 active torsions:
REMARK  status: ('A' for Active; 'I' for Inactive)
REMARK    1  A    between atoms: C_2  and  C_5
REMARK    2  A    between atoms: C_5  and  O_6
REMARK    3  A    between atoms: O_6  and  C_7
REMARK    4  A    between atoms: C_9  and  C_10
REMARK    5  A    between atoms: N_12  and  C_13
REMARK    6  A    between atoms: C_13  and  C_14
REMARK    7  A    between atoms: C_20  and  O_21
REMARK    8  A    between atoms: O_21  and  C_22
REMARK    9  A    between atoms: C_22  and  C_23
REMARK                            x       y       z     vdW  Elec       q    Type
REMARK                         _______ _______ _______ _____ _____    ______ ____
ROOT
ATOM      1  C   UNL     1      -8.165  -2.741 128.135  0.00  0.00    +0.000 A 
ATOM      2  C   UNL     1      -7.673  -1.522 127.656  0.00  0.00    +0.000 A 
ATOM      3  C   UNL     1      -7.859  -1.146 126.310  0.00  0.00    +0.000 A 
ATOM      4  C   UNL     1      -8.430  -2.072 125.414  0.00  0.00    +0.000 A 
ATOM      5  C   UNL     1      -8.932  -3.279 125.907  0.00  0.00    +0.000 A 
ATOM      6  C   UNL     1      -8.816  -3.604 127.261  0.00  0.00    +0.000 A 
ENDROOT
BRANCH   3   7
ATOM      7  C   UNL     1      -7.536   0.278 125.931  0.00  0.00    +0.000 C 
ATOM      8  O   UNL     1      -6.525   0.824 126.371  0.00  0.00    +0.000 OA
ATOM      9  N   UNL     1      -8.442   0.941 125.137  0.00  0.00    +0.000 N 
ATOM     10  H   UNL     1      -9.251   0.430 124.807  0.00  0.00    +0.000 HD
BRANCH   9  11
ATOM     11  C   UNL     1      -8.278   2.321 124.713  0.00  0.00    +0.000 C 
BRANCH  11  12
ATOM     12  C   UNL     1      -7.906   2.437 123.216  0.00  0.00    +0.000 C 
ATOM     13  C   UNL     1      -6.448   2.907 123.077  0.00  0.00    +0.000 C 
ATOM     14  C   UNL     1      -6.042   3.060 121.616  0.00  0.00    +0.000 C 
ATOM     15  C   UNL     1      -7.043   3.940 120.876  0.00  0.00    +0.000 C 
ATOM     16  C   UNL     1      -8.472   3.445 121.089  0.00  0.00    +0.000 C 
ATOM     17  N   UNL     1      -8.798   3.376 122.516  0.00  0.00    +0.000 NA
ATOM     18  H   UNL     1      -9.767   3.078 122.627  0.00  0.00    +0.000 HD
ENDBRANCH  11  12
ENDBRANCH   9  11
ENDBRANCH   3   7
BRANCH   1  19
ATOM     19  O   UNL     1      -8.088  -2.938 129.486  0.00  0.00    +0.000 OA
BRANCH  19  20
ATOM     20  C   UNL     1      -6.892  -2.483 130.137  0.00  0.00    +0.000 C 
BRANCH  20  22
ATOM     21  F   UNL     1      -5.018  -3.472 131.181  0.00  0.00    +0.000 F 
ATOM     22  C   UNL     1      -5.818  -3.562 130.092  0.00  0.00    +0.000 C 
ATOM     23  F   UNL     1      -5.025  -3.430 129.005  0.00  0.00    +0.000 F 
ATOM     24  F   UNL     1      -6.347  -4.803 130.082  0.00  0.00    +0.000 F 
ENDBRANCH  20  22
ENDBRANCH  19  20
ENDBRANCH   1  19
BRANCH   4  25
ATOM     25  O   UNL     1      -8.468  -1.731 124.089  0.00  0.00    +0.000 OA
BRANCH  25  26
ATOM     26  C   UNL     1      -7.685  -2.487 123.160  0.00  0.00    +0.000 C 
BRANCH  26  27
ATOM     27  C   UNL     1      -6.349  -1.795 122.943  0.00  0.00    +0.000 C 
ATOM     28  F   UNL     1      -5.511  -2.020 123.981  0.00  0.00    +0.000 F 
ATOM     29  F   UNL     1      -5.743  -2.228 121.817  0.00  0.00    +0.000 F 
ATOM     30  F   UNL     1      -6.515  -0.459 122.831  0.00  0.00    +0.000 F 
ENDBRANCH  26  27
ENDBRANCH  25  26
ENDBRANCH   4  25
TORSDOF 9
ENDMDL
MODEL 2
REMARK VINA RESULT:      -7.3      3.697      5.789
REMARK  Name = Flecainide
REMARK  9 active torsions:
REMARK  status: ('A' for Active; 'I' for Inactive)
REMARK    1  A    between atoms: C_2  and  C_5
REMARK    2  A    between atoms: C_5  and  O_6
REMARK    3  A    between atoms: O_6  and  C_7
REMARK    4  A    between atoms: C_9  and  C_10
REMARK    5  A    between atoms: N_12  and  C_13
REMARK    6  A    between atoms: C_13  and  C_14
REMARK    7  A    between atoms: C_20  and  O_21
REMARK    8  A    between atoms: O_21  and  C_22
REMARK    9  A    between atoms: C_22  and  C_23
REMARK                            x       y       z     vdW  Elec       q    Type
REMARK                         _______ _______ _______ _____ _____    ______ ____
ROOT
ATOM      1  C   UNL     1      -9.288  -0.055 124.353  0.00  0.00    +0.000 A 
ATOM      2  C   UNL     1      -8.690   1.017 125.022  0.00  0.00    +0.000 A 
ATOM      3  C   UNL     1      -8.537   2.269 124.392  0.00  0.00    +0.000 A 
ATOM      4  C   UNL     1      -8.871   2.393 123.029  0.00  0.00    +0.000 A 
ATOM      5  C   UNL     1      -9.481   1.320 122.374  0.00  0.00    +0.000 A 
ATOM      6  C   UNL     1      -9.705   0.110 123.037  0.00  0.00    +0.000 A 
ENDROOT
BRANCH   3   7
ATOM      7  C   UNL     1      -8.127   3.439 125.251  0.00  0.00    +0.000 C 
ATOM      8  O   UNL     1      -8.899   4.379 125.431  0.00  0.00    +0.000 OA
ATOM      9  N   UNL     1      -6.849   3.431 125.761  0.00  0.00    +0.000 N 
ATOM     10  H   UNL     1      -6.267   2.623 125.577  0.00  0.00    +0.000 HD
BRANCH   9  11
ATOM     11  C   UNL     1      -6.307   4.499 126.583  0.00  0.00    +0.000 C 
BRANCH  11  12
ATOM     12  C   UNL     1      -4.761   4.527 126.568  0.00  0.00    +0.000 C 
ATOM     13  C   UNL     1      -4.217   3.113 126.307  0.00  0.00    +0.000 C 
ATOM     14  C   UNL     1      -2.692   3.087 126.307  0.00  0.00    +0.000 C 
ATOM     15  C   UNL     1      -2.151   3.727 127.580  0.00  0.00    +0.000 C 
ATOM     16  C   UNL     1      -2.761   5.108 127.802  0.00  0.00    +0.000 C 
ATOM     17  N   UNL     1      -4.224   5.038 127.841  0.00  0.00    +0.000 NA
ATOM     18  H   UNL     1      -4.603   5.966 128.027  0.00  0.00    +0.000 HD
ENDBRANCH  11  12
ENDBRANCH   9  11
ENDBRANCH   3   7
BRANCH   1  19
ATOM     19  O   UNL     1      -9.548  -1.170 125.101  0.00  0.00    +0.000 OA
BRANCH  19  20
ATOM     20  C   UNL     1      -8.491  -2.137 125.204  0.00  0.00    +0.000 C 
BRANCH  20  22
ATOM     21  F   UNL     1      -8.138  -4.368 124.512  0.00  0.00    +0.000 F 
ATOM     22  C   UNL     1      -8.604  -3.168 124.089  0.00  0.00    +0.000 C 
ATOM     23  F   UNL     1      -7.870  -2.817 123.009  0.00  0.00    +0.000 F 
ATOM     24  F   UNL     1      -9.881  -3.349 123.692  0.00  0.00    +0.000 F 
ENDBRANCH  20  22
ENDBRANCH  19  20
ENDBRANCH   1  19
BRANCH   4  25
ATOM     25  O   UNL     1      -8.579   3.578 122.409  0.00  0.00    +0.000 OA
BRANCH  25  26
ATOM     26  C   UNL     1      -7.911   3.550 121.145  0.00  0.00    +0.000 C 
BRANCH  26  27
ATOM     27  C   UNL     1      -6.419   3.748 121.355  0.00  0.00    +0.000 C 
ATOM     28  F   UNL     1      -5.933   4.694 120.518  0.00  0.00    +0.000 F 
ATOM     29  F   UNL     1      -6.142   4.130 122.620  0.00  0.00    +0.000 F 
ATOM     30  F   UNL     1      -5.746   2.602 121.116  0.00  0.00    +0.000 F 
ENDBRANCH  26  27
ENDBRANCH  25  26
ENDBRANCH   4  25
TORSDOF 9
ENDMDL
MODEL 3
REMARK VINA RESULT:      -7.1      2.975      4.633
REMARK  Name = Flecainide
REMARK  9 active torsions:
REMARK  status: ('A' for Active; 'I' for Inactive)
REMARK    1  A    between atoms: C_2  and  C_5
REMARK    2  A    between atoms: C_5  and  O_6
REMARK    3  A    between atoms: O_6  and  C_7
REMARK    4  A    between atoms: C_9  and  C_10
REMARK    5  A    between atoms: N_12  and  C_13
REMARK    6  A    between atoms: C_13  and  C_14
REMARK    7  A    between atoms: C_20  and  O_21
REMARK    8  A    between atoms: O_21  and  C_22
REMARK    9  A    between atoms: C_22  and  C_23
REMARK                            x       y       z     vdW  Elec       q    Type
REMARK                         _______ _______ _______ _____ _____    ______ ____
ROOT
ATOM      1  C   UNL     1      -7.758  -1.468 126.702  0.00  0.00    +0.000 A 
ATOM      2  C   UNL     1      -8.291  -0.296 126.156  0.00  0.00    +0.000 A 
ATOM      3  C   UNL     1      -7.531   0.891 126.108  0.00  0.00    +0.000 A 
ATOM      4  C   UNL     1      -6.271   0.921 126.739  0.00  0.00    +0.000 A 
ATOM      5  C   UNL     1      -5.743  -0.260 127.268  0.00  0.00    +0.000 A 
ATOM      6  C   UNL     1      -6.474  -1.450 127.233  0.00  0.00    +0.000 A 
ENDROOT
BRANCH   3   7
ATOM      7  C   UNL     1      -8.067   2.032 125.280  0.00  0.00    +0.000 C 
ATOM      8  O   UNL     1      -8.697   2.944 125.813  0.00  0.00    +0.000 OA
ATOM      9  N   UNL     1      -7.875   1.969 123.919  0.00  0.00    +0.000 N 
ATOM     10  H   UNL     1      -7.344   1.191 123.548  0.00  0.00    +0.000 HD
BRANCH   9  11
ATOM     11  C   UNL     1      -8.356   2.980 122.994  0.00  0.00    +0.000 C 
BRANCH  11  12
ATOM     12  C   UNL     1      -7.427   3.148 121.769  0.00  0.00    +0.000 C 
ATOM     13  C   UNL     1      -6.071   3.717 122.218  0.00  0.00    +0.000 C 
ATOM     14  C   UNL     1      -5.128   3.924 121.038  0.00  0.00    +0.000 C 
ATOM     15  C   UNL     1      -5.809   4.748 119.952  0.00  0.00    +0.000 C 
ATOM     16  C   UNL     1      -7.167   4.154 119.583  0.00  0.00    +0.000 C 
ATOM     17  N   UNL     1      -8.029   4.038 120.761  0.00  0.00    +0.000 NA
ATOM     18  H   UNL     1      -8.939   3.674 120.480  0.00  0.00    +0.000 HD
ENDBRANCH  11  12
ENDBRANCH   9  11
ENDBRANCH   3   7
BRANCH   1  19
ATOM     19  O   UNL     1      -8.504  -2.604 126.547  0.00  0.00    +0.000 OA
BRANCH  19  20
ATOM     20  C   UNL     1      -9.462  -2.605 125.478  0.00  0.00    +0.000 C 
BRANCH  20  22
ATOM     21  F   UNL     1      -8.120  -2.600 123.534  0.00  0.00    +0.000 F 
ATOM     22  C   UNL     1      -8.927  -3.387 124.286  0.00  0.00    +0.000 C 
ATOM     23  F   UNL     1      -9.926  -3.814 123.481  0.00  0.00    +0.000 F 
ATOM     24  F   UNL     1      -8.202  -4.460 124.667  0.00  0.00    +0.000 F 
ENDBRANCH  20  22
ENDBRANCH  19  20
ENDBRANCH   1  19
BRANCH   4  25
ATOM     25  O   UNL     1      -5.620   2.124 126.798  0.00  0.00    +0.000 OA
BRANCH  25  26
ATOM     26  C   UNL     1      -4.233   2.175 126.454  0.00  0.00    +0.000 C 
BRANCH  26  27
ATOM     27  C   UNL     1      -3.834   3.613 126.168  0.00  0.00    +0.000 C 
ATOM     28  F   UNL     1      -4.218   4.432 127.174  0.00  0.00    +0.000 F 
ATOM     29  F   UNL     1      -2.498   3.737 126.018  0.00  0.00    +0.000 F 
ATOM     30  F   UNL     1      -4.417   4.054 125.033  0.00  0.00    +0.000 F 
ENDBRANCH  26  27
ENDBRANCH  25  26
ENDBRANCH   4  25
TORSDOF 9
ENDMDL
MODEL 4
REMARK VINA RESULT:      -7.1      3.547      5.942
REMARK  Name = Flecainide
REMARK  9 active torsions:
REMARK  status: ('A' for Active; 'I' for Inactive)
REMARK    1  A    between atoms: C_2  and  C_5
REMARK    2  A    between atoms: C_5  and  O_6
REMARK    3  A    between atoms: O_6  and  C_7
REMARK    4  A    between atoms: C_9  and  C_10
REMARK    5  A    between atoms: N_12  and  C_13
REMARK    6  A    between atoms: C_13  and  C_14
REMARK    7  A    between atoms: C_20  and  O_21
REMARK    8  A    between atoms: O_21  and  C_22
REMARK    9  A    between atoms: C_22  and  C_23
REMARK                            x       y       z     vdW  Elec       q    Type
REMARK                         _______ _______ _______ _____ _____    ______ ____
ROOT
ATOM      1  C   UNL     1      -9.368  -0.180 124.397  0.00  0.00    +0.000 A 
ATOM      2  C   UNL     1      -8.782   0.872 125.110  0.00  0.00    +0.000 A 
ATOM      3  C   UNL     1      -8.621   2.143 124.523  0.00  0.00    +0.000 A 
ATOM      4  C   UNL     1      -8.936   2.310 123.159  0.00  0.00    +0.000 A 
ATOM      5  C   UNL     1      -9.535   1.258 122.462  0.00  0.00    +0.000 A 
ATOM      6  C   UNL     1      -9.766   0.027 123.081  0.00  0.00    +0.000 A 
ENDROOT
BRANCH   3   7
ATOM      7  C   UNL     1      -8.225   3.285 125.425  0.00  0.00    +0.000 C 
ATOM      8  O   UNL     1      -8.795   4.372 125.338  0.00  0.00    +0.000 OA
ATOM      9  N   UNL     1      -7.175   3.074 126.287  0.00  0.00    +0.000 N 
ATOM     10  H   UNL     1      -6.754   2.153 126.309  0.00  0.00    +0.000 HD
BRANCH   9  11
ATOM     11  C   UNL     1      -6.667   4.087 127.196  0.00  0.00    +0.000 C 
BRANCH  11  12
ATOM     12  C   UNL     1      -7.427   4.104 128.543  0.00  0.00    +0.000 C 
ATOM     13  C   UNL     1      -7.877   2.679 128.905  0.00  0.00    +0.000 C 
ATOM     14  C   UNL     1      -8.654   2.650 130.216  0.00  0.00    +0.000 C 
ATOM     15  C   UNL     1      -9.793   3.662 130.182  0.00  0.00    +0.000 C 
ATOM     16  C   UNL     1      -9.286   5.044 129.776  0.00  0.00    +0.000 C 
ATOM     17  N   UNL     1      -8.599   4.994 128.483  0.00  0.00    +0.000 NA
ATOM     18  H   UNL     1      -8.305   5.934 128.220  0.00  0.00    +0.000 HD
ENDBRANCH  11  12
ENDBRANCH   9  11
ENDBRANCH   3   7
BRANCH   1  19
ATOM     19  O   UNL     1      -9.637  -1.318 125.105  0.00  0.00    +0.000 OA
BRANCH  19  20
ATOM     20  C   UNL     1      -8.555  -2.249 125.263  0.00  0.00    +0.000 C 
BRANCH  20  22
ATOM     21  F   UNL     1      -8.099  -4.473 124.608  0.00  0.00    +0.000 F 
ATOM     22  C   UNL     1      -8.584  -3.292 124.154  0.00  0.00    +0.000 C 
ATOM     23  F   UNL     1      -7.815  -2.924 123.105  0.00  0.00    +0.000 F 
ATOM     24  F   UNL     1      -9.836  -3.517 123.703  0.00  0.00    +0.000 F 
ENDBRANCH  20  22
ENDBRANCH  19  20
ENDBRANCH   1  19
BRANCH   4  25
ATOM     25  O   UNL     1      -8.637   3.515 122.582  0.00  0.00    +0.000 OA
BRANCH  25  26
ATOM     26  C   UNL     1      -7.986   3.528 121.308  0.00  0.00    +0.000 C 
BRANCH  26  27
ATOM     27  C   UNL     1      -6.487   3.685 121.506  0.00  0.00    +0.000 C 
ATOM     28  F   UNL     1      -5.859   2.489 121.417  0.00  0.00    +0.000 F 
ATOM     29  F   UNL     1      -5.948   4.507 120.581  0.00  0.00    +0.000 F 
ATOM     30  F   UNL     1      -6.217   4.202 122.723  0.00  0.00    +0.000 F 
ENDBRANCH  26  27
ENDBRANCH  25  26
ENDBRANCH   4  25
TORSDOF 9
ENDMDL
MODEL 5
REMARK VINA RESULT:      -6.9      1.119      1.820
REMARK  Name = Flecainide
REMARK  9 active torsions:
REMARK  status: ('A' for Active; 'I' for Inactive)
REMARK    1  A    between atoms: C_2  and  C_5
REMARK    2  A    between atoms: C_5  and  O_6
REMARK    3  A    between atoms: O_6  and  C_7
REMARK    4  A    between atoms: C_9  and  C_10
REMARK    5  A    between atoms: N_12  and  C_13
REMARK    6  A    between atoms: C_13  and  C_14
REMARK    7  A    between atoms: C_20  and  O_21
REMARK    8  A    between atoms: O_21  and  C_22
REMARK    9  A    between atoms: C_22  and  C_23
REMARK                            x       y       z     vdW  Elec       q    Type
REMARK                         _______ _______ _______ _____ _____    ______ ____
ROOT
ATOM      1  C   UNL     1      -8.069  -3.127 128.354  0.00  0.00    +0.000 A 
ATOM      2  C   UNL     1      -7.497  -1.871 128.127  0.00  0.00    +0.000 A 
ATOM      3  C   UNL     1      -7.786  -1.146 126.953  0.00  0.00    +0.000 A 
ATOM      4  C   UNL     1      -8.555  -1.759 125.944  0.00  0.00    +0.000 A 
ATOM      5  C   UNL     1      -9.134  -3.007 126.188  0.00  0.00    +0.000 A 
ATOM      6  C   UNL     1      -8.907  -3.679 127.392  0.00  0.00    +0.000 A 
ENDROOT
BRANCH   3   7
ATOM      7  C   UNL     1      -7.346   0.295 126.896  0.00  0.00    +0.000 C 
ATOM      8  O   UNL     1      -6.165   0.592 127.069  0.00  0.00    +0.000 OA
ATOM      9  N   UNL     1      -8.322   1.246 126.706  0.00  0.00    +0.000 N 
ATOM     10  H   UNL     1      -9.274   0.931 126.566  0.00  0.00    +0.000 HD
BRANCH   9  11
ATOM     11  C   UNL     1      -8.052   2.672 126.654  0.00  0.00    +0.000 C 
BRANCH  11  12
ATOM     12  C   UNL     1      -7.806   3.173 125.212  0.00  0.00    +0.000 C 
ATOM     13  C   UNL     1      -8.728   2.423 124.236  0.00  0.00    +0.000 C 
ATOM     14  C   UNL     1      -8.503   2.866 122.795  0.00  0.00    +0.000 C 
ATOM     15  C   UNL     1      -7.025   2.774 122.435  0.00  0.00    +0.000 C 
ATOM     16  C   UNL     1      -6.163   3.501 123.464  0.00  0.00    +0.000 C 
ATOM     17  N   UNL     1      -6.401   2.981 124.812  0.00  0.00    +0.000 NA
ATOM     18  H   UNL     1      -5.787   3.458 125.473  0.00  0.00    +0.000 HD
ENDBRANCH  11  12
ENDBRANCH   9  11
ENDBRANCH   3   7
BRANCH   1  19
ATOM     19  O   UNL     1      -7.866  -3.673 129.592  0.00  0.00    +0.000 OA
BRANCH  19  20
ATOM     20  C   UNL     1      -6.799  -3.116 130.374  0.00  0.00    +0.000 C 
BRANCH  20  22
ATOM     21  F   UNL     1      -6.038  -5.353 130.356  0.00  0.00    +0.000 F 
ATOM     22  C   UNL     1      -5.610  -4.068 130.406  0.00  0.00    +0.000 C 
ATOM     23  F   UNL     1      -4.894  -3.933 131.544  0.00  0.00    +0.000 F 
ATOM     24  F   UNL     1      -4.781  -3.878 129.359  0.00  0.00    +0.000 F 
ENDBRANCH  20  22
ENDBRANCH  19  20
ENDBRANCH   1  19
BRANCH   4  25
ATOM     25  O   UNL     1      -8.700  -1.086 124.760  0.00  0.00    +0.000 OA
BRANCH  25  26
ATOM     26  C   UNL     1      -8.194  -1.682 123.562  0.00  0.00    +0.000 C 
BRANCH  26  27
ATOM     27  C   UNL     1      -6.708  -1.390 123.439  0.00  0.00    +0.000 C 
ATOM     28  F   UNL     1      -6.292  -1.523 122.158  0.00  0.00    +0.000 F 
ATOM     29  F   UNL     1      -6.412  -0.137 123.844  0.00  0.00    +0.000 F 
ATOM     30  F   UNL     1      -5.988  -2.247 124.195  0.00  0.00    +0.000 F 
ENDBRANCH  26  27
ENDBRANCH  25  26
ENDBRANCH   4  25
TORSDOF 9
ENDMDL
MODEL 6
REMARK VINA RESULT:      -6.9      8.218     10.764
REMARK  Name = Flecainide
REMARK  9 active torsions:
REMARK  status: ('A' for Active; 'I' for Inactive)
REMARK    1  A    between atoms: C_2  and  C_5
REMARK    2  A    between atoms: C_5  and  O_6
REMARK    3  A    between atoms: O_6  and  C_7
REMARK    4  A    between atoms: C_9  and  C_10
REMARK    5  A    between atoms: N_12  and  C_13
REMARK    6  A    between atoms: C_13  and  C_14
REMARK    7  A    between atoms: C_20  and  O_21
REMARK    8  A    between atoms: O_21  and  C_22
REMARK    9  A    between atoms: C_22  and  C_23
REMARK                            x       y       z     vdW  Elec       q    Type
REMARK                         _______ _______ _______ _____ _____    ______ ____
ROOT
ATOM      1  C   UNL     1     -11.494   6.406 130.412  0.00  0.00    +0.000 A 
ATOM      2  C   UNL     1     -10.491   5.752 129.689  0.00  0.00    +0.000 A 
ATOM      3  C   UNL     1      -9.396   5.156 130.348  0.00  0.00    +0.000 A 
ATOM      4  C   UNL     1      -9.251   5.342 131.737  0.00  0.00    +0.000 A 
ATOM      5  C   UNL     1     -10.266   5.984 132.451  0.00  0.00    +0.000 A 
ATOM      6  C   UNL     1     -11.389   6.497 131.795  0.00  0.00    +0.000 A 
ENDROOT
BRANCH   3   7
ATOM      7  C   UNL     1      -8.499   4.254 129.537  0.00  0.00    +0.000 C 
ATOM      8  O   UNL     1      -8.956   3.248 128.995  0.00  0.00    +0.000 OA
ATOM      9  N   UNL     1      -7.161   4.571 129.489  0.00  0.00    +0.000 N 
ATOM     10  H   UNL     1      -6.855   5.416 129.955  0.00  0.00    +0.000 HD
BRANCH   9  11
ATOM     11  C   UNL     1      -6.176   3.782 128.771  0.00  0.00    +0.000 C 
BRANCH  11  12
ATOM     12  C   UNL     1      -5.015   4.645 128.225  0.00  0.00    +0.000 C 
ATOM     13  C   UNL     1      -3.715   3.824 128.218  0.00  0.00    +0.000 C 
ATOM     14  C   UNL     1      -2.534   4.643 127.709  0.00  0.00    +0.000 C 
ATOM     15  C   UNL     1      -2.426   5.954 128.479  0.00  0.00    +0.000 C 
ATOM     16  C   UNL     1      -3.759   6.699 128.484  0.00  0.00    +0.000 C 
ATOM     17  N   UNL     1      -4.828   5.862 129.034  0.00  0.00    +0.000 NA
ATOM     18  H   UNL     1      -5.697   6.396 129.059  0.00  0.00    +0.000 HD
ENDBRANCH  11  12
ENDBRANCH   9  11
ENDBRANCH   3   7
BRANCH   1  19
ATOM     19  O   UNL     1     -12.595   6.799 129.704  0.00  0.00    +0.000 OA
BRANCH  19  20
ATOM     20  C   UNL     1     -12.941   8.191 129.770  0.00  0.00    +0.000 C 
BRANCH  20  22
ATOM     21  F   UNL     1     -13.755   7.998 127.560  0.00  0.00    +0.000 F 
ATOM     22  C   UNL     1     -13.011   8.789 128.371  0.00  0.00    +0.000 C 
ATOM     23  F   UNL     1     -11.785   8.890 127.811  0.00  0.00    +0.000 F 
ATOM     24  F   UNL     1     -13.579  10.013 128.371  0.00  0.00    +0.000 F 
ENDBRANCH  20  22
ENDBRANCH  19  20
ENDBRANCH   1  19
BRANCH   4  25
ATOM     25  O   UNL     1      -8.106   4.873 132.324  0.00  0.00    +0.000 OA
BRANCH  25  26
ATOM     26  C   UNL     1      -7.649   5.485 133.533  0.00  0.00    +0.000 C 
BRANCH  26  27
ATOM     27  C   UNL     1      -7.877   4.537 134.699  0.00  0.00    +0.000 C 
ATOM     28  F   UNL     1      -7.969   5.217 135.865  0.00  0.00    +0.000 F 
ATOM     29  F   UNL     1      -9.011   3.822 134.544  0.00  0.00    +0.000 F 
ATOM     30  F   UNL     1      -6.853   3.664 134.812  0.00  0.00    +0.000 F 
ENDBRANCH  26  27
ENDBRANCH  25  26
ENDBRANCH   4  25
TORSDOF 9
ENDMDL
MODEL 7
REMARK VINA RESULT:      -6.8      8.232     10.353
REMARK  Name = Flecainide
REMARK  9 active torsions:
REMARK  status: ('A' for Active; 'I' for Inactive)
REMARK    1  A    between atoms: C_2  and  C_5
REMARK    2  A    between atoms: C_5  and  O_6
REMARK    3  A    between atoms: O_6  and  C_7
REMARK    4  A    between atoms: C_9  and  C_10
REMARK    5  A    between atoms: N_12  and  C_13
REMARK    6  A    between atoms: C_13  and  C_14
REMARK    7  A    between atoms: C_20  and  O_21
REMARK    8  A    between atoms: O_21  and  C_22
REMARK    9  A    between atoms: C_22  and  C_23
REMARK                            x       y       z     vdW  Elec       q    Type
REMARK                         _______ _______ _______ _____ _____    ______ ____
ROOT
ATOM      1  C   UNL     1     -11.577   6.402 130.844  0.00  0.00    +0.000 A 
ATOM      2  C   UNL     1     -10.733   5.900 129.848  0.00  0.00    +0.000 A 
ATOM      3  C   UNL     1      -9.480   5.343 130.175  0.00  0.00    +0.000 A 
ATOM      4  C   UNL     1      -9.025   5.418 131.507  0.00  0.00    +0.000 A 
ATOM      5  C   UNL     1      -9.883   5.908 132.495  0.00  0.00    +0.000 A 
ATOM      6  C   UNL     1     -11.157   6.381 132.169  0.00  0.00    +0.000 A 
ENDROOT
BRANCH   3   7
ATOM      7  C   UNL     1      -8.745   4.593 129.093  0.00  0.00    +0.000 C 
ATOM      8  O   UNL     1      -8.632   5.077 127.967  0.00  0.00    +0.000 OA
ATOM      9  N   UNL     1      -8.271   3.339 129.404  0.00  0.00    +0.000 N 
ATOM     10  H   UNL     1      -8.395   3.004 130.351  0.00  0.00    +0.000 HD
BRANCH   9  11
ATOM     11  C   UNL     1      -7.567   2.491 128.458  0.00  0.00    +0.000 C 
BRANCH  11  12
ATOM     12  C   UNL     1      -6.035   2.523 128.665  0.00  0.00    +0.000 C 
ATOM     13  C   UNL     1      -5.715   2.673 130.162  0.00  0.00    +0.000 C 
ATOM     14  C   UNL     1      -4.213   2.734 130.414  0.00  0.00    +0.000 C 
ATOM     15  C   UNL     1      -3.571   3.805 129.540  0.00  0.00    +0.000 C 
ATOM     16  C   UNL     1      -3.961   3.624 128.075  0.00  0.00    +0.000 C 
ATOM     17  N   UNL     1      -5.417   3.629 127.914  0.00  0.00    +0.000 NA
ATOM     18  H   UNL     1      -5.648   3.544 126.924  0.00  0.00    +0.000 HD
ENDBRANCH  11  12
ENDBRANCH   9  11
ENDBRANCH   3   7
BRANCH   1  19
ATOM     19  O   UNL     1     -12.836   6.762 130.449  0.00  0.00    +0.000 OA
BRANCH  19  20
ATOM     20  C   UNL     1     -12.972   7.272 129.114  0.00  0.00    +0.000 C 
BRANCH  20  22
ATOM     21  F   UNL     1     -13.631   9.372 128.256  0.00  0.00    +0.000 F 
ATOM     22  C   UNL     1     -12.748   8.778 129.094  0.00  0.00    +0.000 C 
ATOM     23  F   UNL     1     -11.509   9.092 128.653  0.00  0.00    +0.000 F 
ATOM     24  F   UNL     1     -12.916   9.331 130.314  0.00  0.00    +0.000 F 
ENDBRANCH  20  22
ENDBRANCH  19  20
ENDBRANCH   1  19
BRANCH   4  25
ATOM     25  O   UNL     1      -7.749   4.997 131.766  0.00  0.00    +0.000 OA
BRANCH  25  26
ATOM     26  C   UNL     1      -6.811   5.931 132.310  0.00  0.00    +0.000 C 
BRANCH  26  27
ATOM     27  C   UNL     1      -6.169   6.720 131.181  0.00  0.00    +0.000 C 
ATOM     28  F   UNL     1      -5.933   5.929 130.109  0.00  0.00    +0.000 F 
ATOM     29  F   UNL     1      -6.955   7.742 130.780  0.00  0.00    +0.000 F 
ATOM     30  F   UNL     1      -4.987   7.242 131.575  0.00  0.00    +0.000 F 
ENDBRANCH  26  27
ENDBRANCH  25  26
ENDBRANCH   4  25
TORSDOF 9
ENDMDL
MODEL 8
REMARK VINA RESULT:      -6.8      3.844      6.020
REMARK  Name = Flecainide
REMARK  9 active torsions:
REMARK  status: ('A' for Active; 'I' for Inactive)
REMARK    1  A    between atoms: C_2  and  C_5
REMARK    2  A    between atoms: C_5  and  O_6
REMARK    3  A    between atoms: O_6  and  C_7
REMARK    4  A    between atoms: C_9  and  C_10
REMARK    5  A    between atoms: N_12  and  C_13
REMARK    6  A    between atoms: C_13  and  C_14
REMARK    7  A    between atoms: C_20  and  O_21
REMARK    8  A    between atoms: O_21  and  C_22
REMARK    9  A    between atoms: C_22  and  C_23
REMARK                            x       y       z     vdW  Elec       q    Type
REMARK                         _______ _______ _______ _____ _____    ______ ____
ROOT
ATOM      1  C   UNL     1      -9.072   0.031 124.220  0.00  0.00    +0.000 A 
ATOM      2  C   UNL     1      -7.820   0.379 124.737  0.00  0.00    +0.000 A 
ATOM      3  C   UNL     1      -7.182   1.573 124.345  0.00  0.00    +0.000 A 
ATOM      4  C   UNL     1      -7.758   2.352 123.322  0.00  0.00    +0.000 A 
ATOM      5  C   UNL     1      -9.016   2.002 122.824  0.00  0.00    +0.000 A 
ATOM      6  C   UNL     1      -9.677   0.859 123.282  0.00  0.00    +0.000 A 
ENDROOT
BRANCH   3   7
ATOM      7  C   UNL     1      -5.969   2.008 125.130  0.00  0.00    +0.000 C 
ATOM      8  O   UNL     1      -5.391   1.215 125.871  0.00  0.00    +0.000 OA
ATOM      9  N   UNL     1      -5.589   3.326 125.025  0.00  0.00    +0.000 N 
ATOM     10  H   UNL     1      -6.108   3.923 124.393  0.00  0.00    +0.000 HD
BRANCH   9  11
ATOM     11  C   UNL     1      -4.459   3.894 125.739  0.00  0.00    +0.000 C 
BRANCH  11  12
ATOM     12  C   UNL     1      -4.881   4.577 127.061  0.00  0.00    +0.000 C 
ATOM     13  C   UNL     1      -3.707   5.398 127.620  0.00  0.00    +0.000 C 
ATOM     14  C   UNL     1      -4.068   6.072 128.939  0.00  0.00    +0.000 C 
ATOM     15  C   UNL     1      -4.624   5.050 129.923  0.00  0.00    +0.000 C 
ATOM     16  C   UNL     1      -5.756   4.241 129.293  0.00  0.00    +0.000 C 
ATOM     17  N   UNL     1      -5.312   3.586 128.061  0.00  0.00    +0.000 NA
ATOM     18  H   UNL     1      -6.076   3.025 127.682  0.00  0.00    +0.000 HD
ENDBRANCH  11  12
ENDBRANCH   9  11
ENDBRANCH   3   7
BRANCH   1  19
ATOM     19  O   UNL     1      -9.683  -1.053 124.787  0.00  0.00    +0.000 OA
BRANCH  19  20
ATOM     20  C   UNL     1      -8.828  -2.122 125.222  0.00  0.00    +0.000 C 
BRANCH  20  22
ATOM     21  F   UNL     1      -7.858  -2.871 123.202  0.00  0.00    +0.000 F 
ATOM     22  C   UNL     1      -8.755  -3.210 124.159  0.00  0.00    +0.000 C 
ATOM     23  F   UNL     1      -9.945  -3.384 123.542  0.00  0.00    +0.000 F 
ATOM     24  F   UNL     1      -8.368  -4.395 124.673  0.00  0.00    +0.000 F 
ENDBRANCH  20  22
ENDBRANCH  19  20
ENDBRANCH   1  19
BRANCH   4  25
ATOM     25  O   UNL     1      -7.046   3.428 122.866  0.00  0.00    +0.000 OA
BRANCH  25  26
ATOM     26  C   UNL     1      -6.906   3.615 121.454  0.00  0.00    +0.000 C 
BRANCH  26  27
ATOM     27  C   UNL     1      -5.511   4.136 121.148  0.00  0.00    +0.000 C 
ATOM     28  F   UNL     1      -4.684   3.127 120.792  0.00  0.00    +0.000 F 
ATOM     29  F   UNL     1      -5.528   5.035 120.141  0.00  0.00    +0.000 F 
ATOM     30  F   UNL     1      -4.979   4.742 122.230  0.00  0.00    +0.000 F 
ENDBRANCH  26  27
ENDBRANCH  25  26
ENDBRANCH   4  25
TORSDOF 9
ENDMDL
MODEL 9
REMARK VINA RESULT:      -6.8      7.788     10.066
REMARK  Name = Flecainide
REMARK  9 active torsions:
REMARK  status: ('A' for Active; 'I' for Inactive)
REMARK    1  A    between atoms: C_2  and  C_5
REMARK    2  A    between atoms: C_5  and  O_6
REMARK    3  A    between atoms: O_6  and  C_7
REMARK    4  A    between atoms: C_9  and  C_10
REMARK    5  A    between atoms: N_12  and  C_13
REMARK    6  A    between atoms: C_13  and  C_14
REMARK    7  A    between atoms: C_20  and  O_21
REMARK    8  A    between atoms: O_21  and  C_22
REMARK    9  A    between atoms: C_22  and  C_23
REMARK                            x       y       z     vdW  Elec       q    Type
REMARK                         _______ _______ _______ _____ _____    ______ ____
ROOT
ATOM      1  C   UNL     1     -11.457   6.530 130.640  0.00  0.00    +0.000 A 
ATOM      2  C   UNL     1     -10.564   6.014 129.694  0.00  0.00    +0.000 A 
ATOM      3  C   UNL     1      -9.365   5.390 130.095  0.00  0.00    +0.000 A 
ATOM      4  C   UNL     1      -9.008   5.411 131.458  0.00  0.00    +0.000 A 
ATOM      5  C   UNL     1      -9.913   5.915 132.395  0.00  0.00    +0.000 A 
ATOM      6  C   UNL     1     -11.137   6.455 131.991  0.00  0.00    +0.000 A 
ENDROOT
BRANCH   3   7
ATOM      7  C   UNL     1      -8.586   4.634 129.048  0.00  0.00    +0.000 C 
ATOM      8  O   UNL     1      -8.543   5.044 127.889  0.00  0.00    +0.000 OA
ATOM      9  N   UNL     1      -7.992   3.454 129.433  0.00  0.00    +0.000 N 
ATOM     10  H   UNL     1      -8.065   3.179 130.404  0.00  0.00    +0.000 HD
BRANCH   9  11
ATOM     11  C   UNL     1      -7.232   2.608 128.530  0.00  0.00    +0.000 C 
BRANCH  11  12
ATOM     12  C   UNL     1      -8.104   1.509 127.879  0.00  0.00    +0.000 C 
ATOM     13  C   UNL     1      -7.275   0.226 127.698  0.00  0.00    +0.000 C 
ATOM     14  C   UNL     1      -8.087  -0.881 127.036  0.00  0.00    +0.000 C 
ATOM     15  C   UNL     1      -8.722  -0.375 125.746  0.00  0.00    +0.000 C 
ATOM     16  C   UNL     1      -9.494   0.921 125.986  0.00  0.00    +0.000 C 
ATOM     17  N   UNL     1      -8.630   1.947 126.575  0.00  0.00    +0.000 NA
ATOM     18  H   UNL     1      -9.160   2.811 126.690  0.00  0.00    +0.000 HD
ENDBRANCH  11  12
ENDBRANCH   9  11
ENDBRANCH   3   7
BRANCH   1  19
ATOM     19  O   UNL     1     -12.665   6.958 130.165  0.00  0.00    +0.000 OA
BRANCH  19  20
ATOM     20  C   UNL     1     -12.821   8.373 129.982  0.00  0.00    +0.000 C 
BRANCH  20  22
ATOM     21  F   UNL     1     -11.875   8.819 127.863  0.00  0.00    +0.000 F 
ATOM     22  C   UNL     1     -13.058   8.696 128.512  0.00  0.00    +0.000 C 
ATOM     23  F   UNL     1     -13.718   9.866 128.359  0.00  0.00    +0.000 F 
ATOM     24  F   UNL     1     -13.761   7.728 127.888  0.00  0.00    +0.000 F 
ENDBRANCH  20  22
ENDBRANCH  19  20
ENDBRANCH   1  19
BRANCH   4  25
ATOM     25  O   UNL     1      -7.774   4.923 131.797  0.00  0.00    +0.000 OA
BRANCH  25  26
ATOM     26  C   UNL     1      -6.825   5.808 132.400  0.00  0.00    +0.000 C 
BRANCH  26  27
ATOM     27  C   UNL     1      -6.089   6.578 131.316  0.00  0.00    +0.000 C 
ATOM     28  F   UNL     1      -4.928   7.089 131.788  0.00  0.00    +0.000 F 
ATOM     29  F   UNL     1      -5.799   5.792 130.258  0.00  0.00    +0.000 F 
ATOM     30  F   UNL     1      -6.840   7.608 130.869  0.00  0.00    +0.000 F 
ENDBRANCH  26  27
ENDBRANCH  25  26
ENDBRANCH   4  25
TORSDOF 9
ENDMDL
