MODEL 1
REMARK VINA RESULT:      -9.8      0.000      0.000
REMARK  Name = Flibanserin
REMARK  5 active torsions:
REMARK  status: ('A' for Active; 'I' for Inactive)
REMARK    1  A    between atoms: C_2  and  C_5
REMARK    2  A    between atoms: C_7  and  N_11
REMARK    3  A    between atoms: N_14  and  C_15
REMARK    4  A    between atoms: C_15  and  C_16
REMARK    5  A    between atoms: C_16  and  N_17
REMARK                            x       y       z     vdW  Elec       q    Type
REMARK                         _______ _______ _______ _____ _____    ______ ____
ROOT
ATOM      1  N   UNL     1      -7.860  -0.115 127.054  0.00  0.00    +0.000 N 
ATOM      2  C   UNL     1      -7.449  -0.308 128.444  0.00  0.00    +0.000 C 
ATOM      3  C   UNL     1      -6.753   1.005 128.908  0.00  0.00    +0.000 C 
ATOM      4  N   UNL     1      -7.603   2.281 128.755  0.00  0.00    +0.000 NA
ATOM      5  C   UNL     1      -7.905   2.331 127.300  0.00  0.00    +0.000 C 
ATOM      6  C   UNL     1      -8.684   1.086 126.818  0.00  0.00    +0.000 C 
ENDROOT
BRANCH   1   9
ATOM      7  C   UNL     1      -6.810  -2.563 124.466  0.00  0.00    +0.000 A 
ATOM      8  C   UNL     1      -6.826  -1.410 125.272  0.00  0.00    +0.000 A 
ATOM      9  C   UNL     1      -7.883  -1.150 126.145  0.00  0.00    +0.000 A 
ATOM     10  C   UNL     1      -9.003  -1.988 126.078  0.00  0.00    +0.000 A 
ATOM     11  C   UNL     1      -9.026  -3.116 125.255  0.00  0.00    +0.000 A 
ATOM     12  C   UNL     1      -7.917  -3.423 124.475  0.00  0.00    +0.000 A 
BRANCH   7  14
ATOM     13  F   UNL     1      -4.461  -2.267 124.159  0.00  0.00    +0.000 F 
ATOM     14  C   UNL     1      -5.573  -2.881 123.670  0.00  0.00    +0.000 C 
ATOM     15  F   UNL     1      -5.656  -2.521 122.360  0.00  0.00    +0.000 F 
ATOM     16  F   UNL     1      -5.293  -4.215 123.672  0.00  0.00    +0.000 F 
ENDBRANCH   7  14
ENDBRANCH   1   9
BRANCH   4  17
ATOM     17  C   UNL     1      -8.928   2.397 129.604  0.00  0.00    +0.000 C 
BRANCH  17  18
ATOM     18  C   UNL     1      -9.215   3.926 130.595  0.00  0.00    +0.000 C 
BRANCH  18  19
ATOM     19  N   UNL     1     -10.436   5.056 130.443  0.00  0.00    +0.000 N 
ATOM     20  C   UNL     1     -10.338   5.739 131.642  0.00  0.00    +0.000 A 
ATOM     21  O   UNL     1      -9.328   6.396 131.893  0.00  0.00    +0.000 OA
ATOM     22  N   UNL     1     -11.632   6.079 131.859  0.00  0.00    +0.000 N 
ATOM     23  C   UNL     1     -11.863   6.847 130.712  0.00  0.00    +0.000 A 
ATOM     24  C   UNL     1     -12.845   7.876 131.138  0.00  0.00    +0.000 A 
ATOM     25  C   UNL     1     -13.116   8.968 130.397  0.00  0.00    +0.000 A 
ATOM     26  C   UNL     1     -12.336   8.940 129.282  0.00  0.00    +0.000 A 
ATOM     27  C   UNL     1     -11.373   7.698 128.942  0.00  0.00    +0.000 A 
ATOM     28  C   UNL     1     -10.906   6.460 129.568  0.00  0.00    +0.000 A 
ATOM     29  H   UNL     1     -12.173   5.240 131.673  0.00  0.00    +0.000 HD
ENDBRANCH  18  19
ENDBRANCH  17  18
ENDBRANCH   4  17
TORSDOF 5
ENDMDL
MODEL 2
REMARK VINA RESULT:      -9.7      3.850      4.518
REMARK  Name = Flibanserin
REMARK  5 active torsions:
REMARK  status: ('A' for Active; 'I' for Inactive)
REMARK    1  A    between atoms: C_2  and  C_5
REMARK    2  A    between atoms: C_7  and  N_11
REMARK    3  A    between atoms: N_14  and  C_15
REMARK    4  A    between atoms: C_15  and  C_16
REMARK    5  A    between atoms: C_16  and  N_17
REMARK                            x       y       z     vdW  Elec       q    Type
REMARK                         _______ _______ _______ _____ _____    ______ ____
ROOT
ATOM      1  N   UNL     1      -6.771   3.459 125.856  0.00  0.00    +0.000 N 
ATOM      2  C   UNL     1      -7.856   3.176 126.795  0.00  0.00    +0.000 C 
ATOM      3  C   UNL     1      -7.239   2.400 127.995  0.00  0.00    +0.000 C 
ATOM      4  N   UNL     1      -6.071   3.114 128.701  0.00  0.00    +0.000 NA
ATOM      5  C   UNL     1      -5.065   3.296 127.621  0.00  0.00    +0.000 C 
ATOM      6  C   UNL     1      -5.609   4.148 126.450  0.00  0.00    +0.000 C 
ENDROOT
BRANCH   1   9
ATOM      7  C   UNL     1      -6.178   3.870 122.213  0.00  0.00    +0.000 A 
ATOM      8  C   UNL     1      -6.006   3.979 123.605  0.00  0.00    +0.000 A 
ATOM      9  C   UNL     1      -6.972   3.506 124.495  0.00  0.00    +0.000 A 
ATOM     10  C   UNL     1      -8.190   3.068 123.958  0.00  0.00    +0.000 A 
ATOM     11  C   UNL     1      -8.399   2.990 122.580  0.00  0.00    +0.000 A 
ATOM     12  C   UNL     1      -7.381   3.359 121.708  0.00  0.00    +0.000 A 
BRANCH   7  14
ATOM     13  F   UNL     1      -4.507   3.162 120.662  0.00  0.00    +0.000 F 
ATOM     14  C   UNL     1      -5.037   4.239 121.305  0.00  0.00    +0.000 C 
ATOM     15  F   UNL     1      -3.998   4.841 121.946  0.00  0.00    +0.000 F 
ATOM     16  F   UNL     1      -5.421   5.105 120.325  0.00  0.00    +0.000 F 
ENDBRANCH   7  14
ENDBRANCH   1   9
BRANCH   4  17
ATOM     17  C   UNL     1      -6.367   4.484 129.425  0.00  0.00    +0.000 C 
BRANCH  17  18
ATOM     18  C   UNL     1      -7.850   4.609 130.515  0.00  0.00    +0.000 C 
BRANCH  18  19
ATOM     19  N   UNL     1      -9.307   5.371 130.217  0.00  0.00    +0.000 N 
ATOM     20  C   UNL     1      -9.708   5.720 131.493  0.00  0.00    +0.000 A 
ATOM     21  O   UNL     1      -9.052   6.535 132.142  0.00  0.00    +0.000 OA
ATOM     22  N   UNL     1     -11.056   5.634 131.378  0.00  0.00    +0.000 N 
ATOM     23  C   UNL     1     -11.261   6.583 130.370  0.00  0.00    +0.000 A 
ATOM     24  C   UNL     1     -12.595   7.165 130.666  0.00  0.00    +0.000 A 
ATOM     25  C   UNL     1     -13.035   8.299 130.086  0.00  0.00    +0.000 A 
ATOM     26  C   UNL     1     -12.059   8.771 129.261  0.00  0.00    +0.000 A 
ATOM     27  C   UNL     1     -10.693   7.963 129.002  0.00  0.00    +0.000 A 
ATOM     28  C   UNL     1     -10.001   6.776 129.507  0.00  0.00    +0.000 A 
ATOM     29  H   UNL     1     -11.236   4.759 130.896  0.00  0.00    +0.000 HD
ENDBRANCH  18  19
ENDBRANCH  17  18
ENDBRANCH   4  17
TORSDOF 5
ENDMDL
MODEL 3
REMARK VINA RESULT:      -9.5      1.714      2.152
REMARK  Name = Flibanserin
REMARK  5 active torsions:
REMARK  status: ('A' for Active; 'I' for Inactive)
REMARK    1  A    between atoms: C_2  and  C_5
REMARK    2  A    between atoms: C_7  and  N_11
REMARK    3  A    between atoms: N_14  and  C_15
REMARK    4  A    between atoms: C_15  and  C_16
REMARK    5  A    between atoms: C_16  and  N_17
REMARK                            x       y       z     vdW  Elec       q    Type
REMARK                         _______ _______ _______ _____ _____    ______ ____
ROOT
ATOM      1  N   UNL     1      -7.482   0.804 127.102  0.00  0.00    +0.000 N 
ATOM      2  C   UNL     1      -6.775   0.408 128.319  0.00  0.00    +0.000 C 
ATOM      3  C   UNL     1      -6.232   1.707 128.982  0.00  0.00    +0.000 C 
ATOM      4  N   UNL     1      -7.297   2.777 129.286  0.00  0.00    +0.000 NA
ATOM      5  C   UNL     1      -7.888   3.074 127.955  0.00  0.00    +0.000 C 
ATOM      6  C   UNL     1      -8.527   1.825 127.304  0.00  0.00    +0.000 C 
ENDROOT
BRANCH   1   9
ATOM      7  C   UNL     1      -8.302  -1.948 124.746  0.00  0.00    +0.000 A 
ATOM      8  C   UNL     1      -8.155  -1.230 125.947  0.00  0.00    +0.000 A 
ATOM      9  C   UNL     1      -7.511   0.008 125.978  0.00  0.00    +0.000 A 
ATOM     10  C   UNL     1      -6.873   0.437 124.807  0.00  0.00    +0.000 A 
ATOM     11  C   UNL     1      -6.972  -0.279 123.614  0.00  0.00    +0.000 A 
ATOM     12  C   UNL     1      -7.714  -1.454 123.574  0.00  0.00    +0.000 A 
BRANCH   7  14
ATOM     13  F   UNL     1      -8.421  -4.326 124.920  0.00  0.00    +0.000 F 
ATOM     14  C   UNL     1      -9.150  -3.191 124.738  0.00  0.00    +0.000 C 
ATOM     15  F   UNL     1      -9.845  -3.373 123.581  0.00  0.00    +0.000 F 
ATOM     16  F   UNL     1     -10.081  -3.182 125.733  0.00  0.00    +0.000 F 
ENDBRANCH   7  14
ENDBRANCH   1   9
BRANCH   4  17
ATOM     17  C   UNL     1      -8.426   2.425 130.332  0.00  0.00    +0.000 C 
BRANCH  17  18
ATOM     18  C   UNL     1      -9.213   3.797 131.281  0.00  0.00    +0.000 C 
BRANCH  18  19
ATOM     19  N   UNL     1     -10.327   4.927 130.757  0.00  0.00    +0.000 N 
ATOM     20  C   UNL     1     -10.413   5.767 131.853  0.00  0.00    +0.000 A 
ATOM     21  O   UNL     1      -9.432   6.426 132.199  0.00  0.00    +0.000 OA
ATOM     22  N   UNL     1     -11.706   6.167 131.777  0.00  0.00    +0.000 N 
ATOM     23  C   UNL     1     -11.684   6.775 130.516  0.00  0.00    +0.000 A 
ATOM     24  C   UNL     1     -12.673   7.878 130.613  0.00  0.00    +0.000 A 
ATOM     25  C   UNL     1     -12.749   8.863 129.697  0.00  0.00    +0.000 A 
ATOM     26  C   UNL     1     -11.782   8.661 128.760  0.00  0.00    +0.000 A 
ATOM     27  C   UNL     1     -10.839   7.359 128.772  0.00  0.00    +0.000 A 
ATOM     28  C   UNL     1     -10.558   6.208 129.632  0.00  0.00    +0.000 A 
ATOM     29  H   UNL     1     -12.246   5.325 131.606  0.00  0.00    +0.000 HD
ENDBRANCH  18  19
ENDBRANCH  17  18
ENDBRANCH   4  17
TORSDOF 5
ENDMDL
MODEL 4
REMARK VINA RESULT:      -9.5      6.019      8.540
REMARK  Name = Flibanserin
REMARK  5 active torsions:
REMARK  status: ('A' for Active; 'I' for Inactive)
REMARK    1  A    between atoms: C_2  and  C_5
REMARK    2  A    between atoms: C_7  and  N_11
REMARK    3  A    between atoms: N_14  and  C_15
REMARK    4  A    between atoms: C_15  and  C_16
REMARK    5  A    between atoms: C_16  and  N_17
REMARK                            x       y       z     vdW  Elec       q    Type
REMARK                         _______ _______ _______ _____ _____    ______ ____
ROOT
ATOM      1  N   UNL     1      -8.005   1.567 123.941  0.00  0.00    +0.000 N 
ATOM      2  C   UNL     1      -6.861   0.914 124.576  0.00  0.00    +0.000 C 
ATOM      3  C   UNL     1      -7.196   0.758 126.088  0.00  0.00    +0.000 C 
ATOM      4  N   UNL     1      -8.502  -0.001 126.390  0.00  0.00    +0.000 NA
ATOM      5  C   UNL     1      -9.545   0.804 125.701  0.00  0.00    +0.000 C 
ATOM      6  C   UNL     1      -9.300   0.900 124.177  0.00  0.00    +0.000 C 
ENDROOT
BRANCH   1   9
ATOM      7  C   UNL     1      -6.489   3.754 121.350  0.00  0.00    +0.000 A 
ATOM      8  C   UNL     1      -6.640   3.008 122.534  0.00  0.00    +0.000 A 
ATOM      9  C   UNL     1      -7.861   2.425 122.874  0.00  0.00    +0.000 A 
ATOM     10  C   UNL     1      -8.974   2.741 122.084  0.00  0.00    +0.000 A 
ATOM     11  C   UNL     1      -8.856   3.513 120.927  0.00  0.00    +0.000 A 
ATOM     12  C   UNL     1      -7.609   3.991 120.542  0.00  0.00    +0.000 A 
BRANCH   7  14
ATOM     13  F   UNL     1      -4.502   4.950 121.916  0.00  0.00    +0.000 F 
ATOM     14  C   UNL     1      -5.116   4.216 120.948  0.00  0.00    +0.000 C 
ATOM     15  F   UNL     1      -5.103   4.988 119.826  0.00  0.00    +0.000 F 
ATOM     16  F   UNL     1      -4.280   3.170 120.688  0.00  0.00    +0.000 F 
ENDBRANCH   7  14
ENDBRANCH   1   9
BRANCH   4  17
ATOM     17  C   UNL     1      -8.595  -1.518 125.965  0.00  0.00    +0.000 C 
BRANCH  17  18
ATOM     18  C   UNL     1      -7.549  -2.752 126.850  0.00  0.00    +0.000 C 
BRANCH  18  19
ATOM     19  N   UNL     1      -7.059  -2.754 128.448  0.00  0.00    +0.000 N 
ATOM     20  C   UNL     1      -8.270  -2.802 129.114  0.00  0.00    +0.000 A 
ATOM     21  O   UNL     1      -8.991  -3.794 129.004  0.00  0.00    +0.000 OA
ATOM     22  N   UNL     1      -7.982  -2.098 130.236  0.00  0.00    +0.000 N 
ATOM     23  C   UNL     1      -6.948  -2.892 130.746  0.00  0.00    +0.000 A 
ATOM     24  C   UNL     1      -7.064  -2.760 132.221  0.00  0.00    +0.000 A 
ATOM     25  C   UNL     1      -6.423  -3.583 133.073  0.00  0.00    +0.000 A 
ATOM     26  C   UNL     1      -5.728  -4.502 132.349  0.00  0.00    +0.000 A 
ATOM     27  C   UNL     1      -5.654  -4.449 130.743  0.00  0.00    +0.000 A 
ATOM     28  C   UNL     1      -6.254  -3.702 129.636  0.00  0.00    +0.000 A 
ATOM     29  H   UNL     1      -7.487  -1.269 129.922  0.00  0.00    +0.000 HD
ENDBRANCH  18  19
ENDBRANCH  17  18
ENDBRANCH   4  17
TORSDOF 5
ENDMDL
MODEL 5
REMARK VINA RESULT:      -9.4      5.188     10.557
REMARK  Name = Flibanserin
REMARK  5 active torsions:
REMARK  status: ('A' for Active; 'I' for Inactive)
REMARK    1  A    between atoms: C_2  and  C_5
REMARK    2  A    between atoms: C_7  and  N_11
REMARK    3  A    between atoms: N_14  and  C_15
REMARK    4  A    between atoms: C_15  and  C_16
REMARK    5  A    between atoms: C_16  and  N_17
REMARK                            x       y       z     vdW  Elec       q    Type
REMARK                         _______ _______ _______ _____ _____    ______ ____
ROOT
ATOM      1  N   UNL     1      -9.979   4.794 130.164  0.00  0.00    +0.000 N 
ATOM      2  C   UNL     1      -8.738   4.906 129.398  0.00  0.00    +0.000 C 
ATOM      3  C   UNL     1      -7.693   3.970 130.071  0.00  0.00    +0.000 C 
ATOM      4  N   UNL     1      -8.128   2.498 130.205  0.00  0.00    +0.000 NA
ATOM      5  C   UNL     1      -9.369   2.570 131.020  0.00  0.00    +0.000 C 
ATOM      6  C   UNL     1     -10.471   3.414 130.337  0.00  0.00    +0.000 C 
ENDROOT
BRANCH   1   9
ATOM      7  C   UNL     1     -12.204   7.671 129.409  0.00  0.00    +0.000 A 
ATOM      8  C   UNL     1     -11.200   6.696 129.261  0.00  0.00    +0.000 A 
ATOM      9  C   UNL     1     -10.845   5.853 130.316  0.00  0.00    +0.000 A 
ATOM     10  C   UNL     1     -11.405   6.116 131.573  0.00  0.00    +0.000 A 
ATOM     11  C   UNL     1     -12.373   7.105 131.753  0.00  0.00    +0.000 A 
ATOM     12  C   UNL     1     -12.798   7.859 130.664  0.00  0.00    +0.000 A 
BRANCH   7  14
ATOM     13  F   UNL     1     -13.145   9.670 128.507  0.00  0.00    +0.000 F 
ATOM     14  C   UNL     1     -12.664   8.434 128.198  0.00  0.00    +0.000 C 
ATOM     15  F   UNL     1     -13.652   7.810 127.499  0.00  0.00    +0.000 F 
ATOM     16  F   UNL     1     -11.653   8.640 127.308  0.00  0.00    +0.000 F 
ENDBRANCH   7  14
ENDBRANCH   1   9
BRANCH   4  17
ATOM     17  C   UNL     1      -8.375   1.673 128.883  0.00  0.00    +0.000 C 
BRANCH  17  18
ATOM     18  C   UNL     1      -7.430   0.110 128.624  0.00  0.00    +0.000 C 
BRANCH  18  19
ATOM     19  N   UNL     1      -6.697  -0.451 127.231  0.00  0.00    +0.000 N 
ATOM     20  C   UNL     1      -6.893  -1.816 127.340  0.00  0.00    +0.000 A 
ATOM     21  O   UNL     1      -8.034  -2.277 127.304  0.00  0.00    +0.000 OA
ATOM     22  N   UNL     1      -5.780  -2.291 126.731  0.00  0.00    +0.000 N 
ATOM     23  C   UNL     1      -5.954  -1.727 125.461  0.00  0.00    +0.000 A 
ATOM     24  C   UNL     1      -5.346  -2.707 124.526  0.00  0.00    +0.000 A 
ATOM     25  C   UNL     1      -5.550  -2.660 123.195  0.00  0.00    +0.000 A 
ATOM     26  C   UNL     1      -6.390  -1.624 122.921  0.00  0.00    +0.000 A 
ATOM     27  C   UNL     1      -6.897  -0.610 124.061  0.00  0.00    +0.000 A 
ATOM     28  C   UNL     1      -6.838  -0.467 125.517  0.00  0.00    +0.000 A 
ATOM     29  H   UNL     1      -5.007  -1.750 127.106  0.00  0.00    +0.000 HD
ENDBRANCH  18  19
ENDBRANCH  17  18
ENDBRANCH   4  17
TORSDOF 5
ENDMDL
MODEL 6
REMARK VINA RESULT:      -9.4      7.171     10.266
REMARK  Name = Flibanserin
REMARK  5 active torsions:
REMARK  status: ('A' for Active; 'I' for Inactive)
REMARK    1  A    between atoms: C_2  and  C_5
REMARK    2  A    between atoms: C_7  and  N_11
REMARK    3  A    between atoms: N_14  and  C_15
REMARK    4  A    between atoms: C_15  and  C_16
REMARK    5  A    between atoms: C_16  and  N_17
REMARK                            x       y       z     vdW  Elec       q    Type
REMARK                         _______ _______ _______ _____ _____    ______ ____
ROOT
ATOM      1  N   UNL     1      -8.857   6.042 130.991  0.00  0.00    +0.000 N 
ATOM      2  C   UNL     1      -7.652   6.854 131.156  0.00  0.00    +0.000 C 
ATOM      3  C   UNL     1      -6.699   6.078 132.112  0.00  0.00    +0.000 C 
ATOM      4  N   UNL     1      -6.345   4.649 131.659  0.00  0.00    +0.000 NA
ATOM      5  C   UNL     1      -7.665   3.970 131.569  0.00  0.00    +0.000 C 
ATOM      6  C   UNL     1      -8.608   4.656 130.553  0.00  0.00    +0.000 C 
ENDROOT
BRANCH   1   9
ATOM      7  C   UNL     1     -11.763   7.753 129.435  0.00  0.00    +0.000 A 
ATOM      8  C   UNL     1     -10.443   7.325 129.663  0.00  0.00    +0.000 A 
ATOM      9  C   UNL     1     -10.101   6.605 130.808  0.00  0.00    +0.000 A 
ATOM     10  C   UNL     1     -11.079   6.462 131.801  0.00  0.00    +0.000 A 
ATOM     11  C   UNL     1     -12.386   6.915 131.614  0.00  0.00    +0.000 A 
ATOM     12  C   UNL     1     -12.737   7.530 130.417  0.00  0.00    +0.000 A 
BRANCH   7  14
ATOM     13  F   UNL     1     -12.859   7.553 127.323  0.00  0.00    +0.000 F 
ATOM     14  C   UNL     1     -12.111   8.375 128.110  0.00  0.00    +0.000 C 
ATOM     15  F   UNL     1     -11.025   8.721 127.364  0.00  0.00    +0.000 F 
ATOM     16  F   UNL     1     -12.841   9.517 128.256  0.00  0.00    +0.000 F 
ENDBRANCH   7  14
ENDBRANCH   1   9
BRANCH   4  17
ATOM     17  C   UNL     1      -5.534   4.475 130.317  0.00  0.00    +0.000 C 
BRANCH  17  18
ATOM     18  C   UNL     1      -3.976   5.435 130.092  0.00  0.00    +0.000 C 
BRANCH  18  19
ATOM     19  N   UNL     1      -3.045   6.205 131.247  0.00  0.00    +0.000 N 
ATOM     20  C   UNL     1      -1.777   6.098 130.704  0.00  0.00    +0.000 A 
ATOM     21  O   UNL     1      -1.511   6.673 129.648  0.00  0.00    +0.000 OA
ATOM     22  N   UNL     1      -1.018   6.010 131.823  0.00  0.00    +0.000 N 
ATOM     23  C   UNL     1      -1.348   7.232 132.420  0.00  0.00    +0.000 A 
ATOM     24  C   UNL     1      -0.120   7.639 133.150  0.00  0.00    +0.000 A 
ATOM     25  C   UNL     1       0.057   8.886 133.629  0.00  0.00    +0.000 A 
ATOM     26  C   UNL     1      -1.030   9.636 133.299  0.00  0.00    +0.000 A 
ATOM     27  C   UNL     1      -2.314   9.006 132.564  0.00  0.00    +0.000 A 
ATOM     28  C   UNL     1      -2.723   7.742 131.949  0.00  0.00    +0.000 A 
ATOM     29  H   UNL     1      -1.487   5.339 132.423  0.00  0.00    +0.000 HD
ENDBRANCH  18  19
ENDBRANCH  17  18
ENDBRANCH   4  17
TORSDOF 5
ENDMDL
MODEL 7
REMARK VINA RESULT:      -9.3      5.065      9.802
REMARK  Name = Flibanserin
REMARK  5 active torsions:
REMARK  status: ('A' for Active; 'I' for Inactive)
REMARK    1  A    between atoms: C_2  and  C_5
REMARK    2  A    between atoms: C_7  and  N_11
REMARK    3  A    between atoms: N_14  and  C_15
REMARK    4  A    between atoms: C_15  and  C_16
REMARK    5  A    between atoms: C_16  and  N_17
REMARK                            x       y       z     vdW  Elec       q    Type
REMARK                         _______ _______ _______ _____ _____    ______ ____
ROOT
ATOM      1  N   UNL     1      -9.198   4.875 130.155  0.00  0.00    +0.000 N 
ATOM      2  C   UNL     1      -9.475   3.440 130.196  0.00  0.00    +0.000 C 
ATOM      3  C   UNL     1      -8.452   2.743 129.252  0.00  0.00    +0.000 C 
ATOM      4  N   UNL     1      -6.972   3.029 129.572  0.00  0.00    +0.000 NA
ATOM      5  C   UNL     1      -6.867   4.508 129.461  0.00  0.00    +0.000 C 
ATOM      6  C   UNL     1      -7.799   5.239 130.455  0.00  0.00    +0.000 C 
ENDROOT
BRANCH   1   9
ATOM      7  C   UNL     1     -11.663   7.535 129.354  0.00  0.00    +0.000 A 
ATOM      8  C   UNL     1     -10.543   6.690 129.250  0.00  0.00    +0.000 A 
ATOM      9  C   UNL     1     -10.193   5.819 130.283  0.00  0.00    +0.000 A 
ATOM     10  C   UNL     1     -10.895   5.926 131.490  0.00  0.00    +0.000 A 
ATOM     11  C   UNL     1     -11.985   6.787 131.630  0.00  0.00    +0.000 A 
ATOM     12  C   UNL     1     -12.391   7.566 130.551  0.00  0.00    +0.000 A 
BRANCH   7  14
ATOM     13  F   UNL     1     -12.895   7.616 127.311  0.00  0.00    +0.000 F 
ATOM     14  C   UNL     1     -12.094   8.328 128.151  0.00  0.00    +0.000 C 
ATOM     15  F   UNL     1     -11.058   8.777 127.390  0.00  0.00    +0.000 F 
ATOM     16  F   UNL     1     -12.809   9.436 128.498  0.00  0.00    +0.000 F 
ENDBRANCH   7  14
ENDBRANCH   1   9
BRANCH   4  17
ATOM     17  C   UNL     1      -6.402   2.530 130.956  0.00  0.00    +0.000 C 
BRANCH  17  18
ATOM     18  C   UNL     1      -6.052   0.733 131.175  0.00  0.00    +0.000 C 
BRANCH  18  19
ATOM     19  N   UNL     1      -6.518  -0.549 130.209  0.00  0.00    +0.000 N 
ATOM     20  C   UNL     1      -7.637  -1.013 130.878  0.00  0.00    +0.000 A 
ATOM     21  O   UNL     1      -8.638  -0.303 130.965  0.00  0.00    +0.000 OA
ATOM     22  N   UNL     1      -7.573  -2.340 130.608  0.00  0.00    +0.000 N 
ATOM     23  C   UNL     1      -7.646  -2.294 129.211  0.00  0.00    +0.000 A 
ATOM     24  C   UNL     1      -8.356  -3.541 128.829  0.00  0.00    +0.000 A 
ATOM     25  C   UNL     1      -8.860  -3.737 127.595  0.00  0.00    +0.000 A 
ATOM     26  C   UNL     1      -8.625  -2.624 126.848  0.00  0.00    +0.000 A 
ATOM     27  C   UNL     1      -7.767  -1.384 127.406  0.00  0.00    +0.000 A 
ATOM     28  C   UNL     1      -7.158  -0.940 128.661  0.00  0.00    +0.000 A 
ATOM     29  H   UNL     1      -6.607  -2.608 130.768  0.00  0.00    +0.000 HD
ENDBRANCH  18  19
ENDBRANCH  17  18
ENDBRANCH   4  17
TORSDOF 5
ENDMDL
MODEL 8
REMARK VINA RESULT:      -9.2      5.207      9.848
REMARK  Name = Flibanserin
REMARK  5 active torsions:
REMARK  status: ('A' for Active; 'I' for Inactive)
REMARK    1  A    between atoms: C_2  and  C_5
REMARK    2  A    between atoms: C_7  and  N_11
REMARK    3  A    between atoms: N_14  and  C_15
REMARK    4  A    between atoms: C_15  and  C_16
REMARK    5  A    between atoms: C_16  and  N_17
REMARK                            x       y       z     vdW  Elec       q    Type
REMARK                         _______ _______ _______ _____ _____    ______ ____
ROOT
ATOM      1  N   UNL     1      -9.463   5.400 130.820  0.00  0.00    +0.000 N 
ATOM      2  C   UNL     1      -9.636   3.949 130.769  0.00  0.00    +0.000 C 
ATOM      3  C   UNL     1      -8.366   3.354 130.094  0.00  0.00    +0.000 C 
ATOM      4  N   UNL     1      -7.034   3.727 130.772  0.00  0.00    +0.000 NA
ATOM      5  C   UNL     1      -7.013   5.213 130.714  0.00  0.00    +0.000 C 
ATOM      6  C   UNL     1      -8.210   5.846 131.460  0.00  0.00    +0.000 C 
ENDROOT
BRANCH   1   9
ATOM      7  C   UNL     1     -11.975   7.748 129.418  0.00  0.00    +0.000 A 
ATOM      8  C   UNL     1     -10.798   6.989 129.550  0.00  0.00    +0.000 A 
ATOM      9  C   UNL     1     -10.525   6.270 130.714  0.00  0.00    +0.000 A 
ATOM     10  C   UNL     1     -11.379   6.457 131.808  0.00  0.00    +0.000 A 
ATOM     11  C   UNL     1     -12.532   7.239 131.714  0.00  0.00    +0.000 A 
ATOM     12  C   UNL     1     -12.848   7.856 130.509  0.00  0.00    +0.000 A 
BRANCH   7  14
ATOM     13  F   UNL     1     -13.040   9.502 128.198  0.00  0.00    +0.000 F 
ATOM     14  C   UNL     1     -12.302   8.364 128.085  0.00  0.00    +0.000 C 
ATOM     15  F   UNL     1     -13.004   7.541 127.257  0.00  0.00    +0.000 F 
ATOM     16  F   UNL     1     -11.180   8.715 127.395  0.00  0.00    +0.000 F 
ENDBRANCH   7  14
ENDBRANCH   1   9
BRANCH   4  17
ATOM     17  C   UNL     1      -6.783   3.222 132.246  0.00  0.00    +0.000 C 
BRANCH  17  18
ATOM     18  C   UNL     1      -7.088   1.446 132.638  0.00  0.00    +0.000 C 
BRANCH  18  19
ATOM     19  N   UNL     1      -7.073   0.130 131.609  0.00  0.00    +0.000 N 
ATOM     20  C   UNL     1      -8.190  -0.569 132.029  0.00  0.00    +0.000 A 
ATOM     21  O   UNL     1      -9.309  -0.075 131.894  0.00  0.00    +0.000 OA
ATOM     22  N   UNL     1      -7.806  -1.847 131.793  0.00  0.00    +0.000 N 
ATOM     23  C   UNL     1      -7.591  -1.770 130.412  0.00  0.00    +0.000 A 
ATOM     24  C   UNL     1      -7.939  -3.121 129.901  0.00  0.00    +0.000 A 
ATOM     25  C   UNL     1      -8.123  -3.373 128.590  0.00  0.00    +0.000 A 
ATOM     26  C   UNL     1      -7.964  -2.211 127.898  0.00  0.00    +0.000 A 
ATOM     27  C   UNL     1      -7.510  -0.844 128.613  0.00  0.00    +0.000 A 
ATOM     28  C   UNL     1      -7.281  -0.330 129.965  0.00  0.00    +0.000 A 
ATOM     29  H   UNL     1      -6.862  -1.923 132.158  0.00  0.00    +0.000 HD
ENDBRANCH  18  19
ENDBRANCH  17  18
ENDBRANCH   4  17
TORSDOF 5
ENDMDL
MODEL 9
REMARK VINA RESULT:      -9.2      1.677      2.006
REMARK  Name = Flibanserin
REMARK  5 active torsions:
REMARK  status: ('A' for Active; 'I' for Inactive)
REMARK    1  A    between atoms: C_2  and  C_5
REMARK    2  A    between atoms: C_7  and  N_11
REMARK    3  A    between atoms: N_14  and  C_15
REMARK    4  A    between atoms: C_15  and  C_16
REMARK    5  A    between atoms: C_16  and  N_17
REMARK                            x       y       z     vdW  Elec       q    Type
REMARK                         _______ _______ _______ _____ _____    ______ ____
ROOT
ATOM      1  N   UNL     1      -7.618   0.217 127.239  0.00  0.00    +0.000 N 
ATOM      2  C   UNL     1      -7.891   0.643 128.611  0.00  0.00    +0.000 C 
ATOM      3  C   UNL     1      -6.661   1.467 129.094  0.00  0.00    +0.000 C 
ATOM      4  N   UNL     1      -6.295   2.670 128.204  0.00  0.00    +0.000 NA
ATOM      5  C   UNL     1      -6.028   2.058 126.876  0.00  0.00    +0.000 C 
ATOM      6  C   UNL     1      -7.261   1.311 126.316  0.00  0.00    +0.000 C 
ENDROOT
BRANCH   1   9
ATOM      7  C   UNL     1      -8.839  -2.390 124.892  0.00  0.00    +0.000 A 
ATOM      8  C   UNL     1      -8.521  -1.125 125.421  0.00  0.00    +0.000 A 
ATOM      9  C   UNL     1      -8.079  -0.980 126.737  0.00  0.00    +0.000 A 
ATOM     10  C   UNL     1      -8.116  -2.110 127.563  0.00  0.00    +0.000 A 
ATOM     11  C   UNL     1      -8.467  -3.368 127.070  0.00  0.00    +0.000 A 
ATOM     12  C   UNL     1      -8.795  -3.514 125.727  0.00  0.00    +0.000 A 
BRANCH   7  14
ATOM     13  F   UNL     1      -8.035  -2.741 122.672  0.00  0.00    +0.000 F 
ATOM     14  C   UNL     1      -9.146  -2.511 123.424  0.00  0.00    +0.000 C 
ATOM     15  F   UNL     1      -9.737  -1.404 122.894  0.00  0.00    +0.000 F 
ATOM     16  F   UNL     1      -9.993  -3.546 123.163  0.00  0.00    +0.000 F 
ENDBRANCH   7  14
ENDBRANCH   1   9
BRANCH   4  17
ATOM     17  C   UNL     1      -7.339   3.846 128.078  0.00  0.00    +0.000 C 
BRANCH  17  18
ATOM     18  C   UNL     1      -8.038   4.580 129.619  0.00  0.00    +0.000 C 
BRANCH  18  19
ATOM     19  N   UNL     1      -9.521   5.314 129.850  0.00  0.00    +0.000 N 
ATOM     20  C   UNL     1      -9.446   5.690 131.179  0.00  0.00    +0.000 A 
ATOM     21  O   UNL     1      -8.619   6.530 131.534  0.00  0.00    +0.000 OA
ATOM     22  N   UNL     1     -10.743   5.581 131.557  0.00  0.00    +0.000 N 
ATOM     23  C   UNL     1     -11.317   6.501 130.673  0.00  0.00    +0.000 A 
ATOM     24  C   UNL     1     -12.469   7.072 131.417  0.00  0.00    +0.000 A 
ATOM     25  C   UNL     1     -13.113   8.184 131.012  0.00  0.00    +0.000 A 
ATOM     26  C   UNL     1     -12.509   8.648 129.884  0.00  0.00    +0.000 A 
ATOM     27  C   UNL     1     -11.309   7.854 129.166  0.00  0.00    +0.000 A 
ATOM     28  C   UNL     1     -10.455   6.690 129.411  0.00  0.00    +0.000 A 
ATOM     29  H   UNL     1     -11.065   4.692 131.188  0.00  0.00    +0.000 HD
ENDBRANCH  18  19
ENDBRANCH  17  18
ENDBRANCH   4  17
TORSDOF 5
ENDMDL
