MODEL 1
REMARK VINA RESULT:      -7.9      0.000      0.000
REMARK  Name = Flortaucipir F-18
REMARK  1 active torsions:
REMARK  status: ('A' for Active; 'I' for Inactive)
REMARK    1  A    between atoms: C_5  and  C_8
REMARK                            x       y       z     vdW  Elec       q    Type
REMARK                         _______ _______ _______ _____ _____    ______ ____
ROOT
ATOM      1  C   UNL     1      -7.581   2.536 123.482  0.00  0.00    +0.000 A 
ATOM      2  C   UNL     1      -6.677   2.935 124.427  0.00  0.00    +0.000 A 
ATOM      3  C   UNL     1      -6.171   1.854 125.172  0.00  0.00    +0.000 A 
ATOM      4  C   UNL     1      -6.680   0.476 124.970  0.00  0.00    +0.000 A 
ATOM      5  C   UNL     1      -8.047   0.795 125.096  0.00  0.00    +0.000 A 
ATOM      6  N   UNL     1      -8.227  -0.332 125.910  0.00  0.00    +0.000 N 
ATOM      7  C   UNL     1      -8.144  -1.356 125.018  0.00  0.00    +0.000 A 
ATOM      8  C   UNL     1      -7.137  -0.889 124.161  0.00  0.00    +0.000 A 
ATOM      9  C   UNL     1      -7.188  -1.622 122.918  0.00  0.00    +0.000 A 
ATOM     10  N   UNL     1      -8.277  -2.515 122.673  0.00  0.00    +0.000 NA
ATOM     11  C   UNL     1      -9.158  -2.869 123.636  0.00  0.00    +0.000 A 
ATOM     12  C   UNL     1      -9.049  -2.403 124.907  0.00  0.00    +0.000 A 
ATOM     13  C   UNL     1      -8.402   1.420 123.850  0.00  0.00    +0.000 A 
ATOM     14  H   UNL     1      -7.642  -0.463 126.730  0.00  0.00    +0.000 HD
ENDROOT
BRANCH   1  19
ATOM     15  F   UNL     1      -7.178   4.667 118.407  0.00  0.00    +0.000 F 
ATOM     16  C   UNL     1      -7.297   4.233 119.658  0.00  0.00    +0.000 A 
ATOM     17  C   UNL     1      -6.151   4.022 120.401  0.00  0.00    +0.000 A 
ATOM     18  C   UNL     1      -6.247   3.431 121.633  0.00  0.00    +0.000 A 
ATOM     19  C   UNL     1      -7.504   3.127 122.163  0.00  0.00    +0.000 A 
ATOM     20  C   UNL     1      -8.616   3.483 121.373  0.00  0.00    +0.000 A 
ATOM     21  N   UNL     1      -8.550   3.989 120.129  0.00  0.00    +0.000 NA
ENDBRANCH   1  19
TORSDOF 1
ENDMDL
MODEL 2
REMARK VINA RESULT:      -7.7      5.369      8.272
REMARK  Name = Flortaucipir F-18
REMARK  1 active torsions:
REMARK  status: ('A' for Active; 'I' for Inactive)
REMARK    1  A    between atoms: C_5  and  C_8
REMARK                            x       y       z     vdW  Elec       q    Type
REMARK                         _______ _______ _______ _____ _____    ______ ____
ROOT
ATOM      1  C   UNL     1      -7.446  -2.753 128.269  0.00  0.00    +0.000 A 
ATOM      2  C   UNL     1      -8.612  -3.420 128.521  0.00  0.00    +0.000 A 
ATOM      3  C   UNL     1      -9.243  -3.856 127.341  0.00  0.00    +0.000 A 
ATOM      4  C   UNL     1      -8.702  -3.507 126.005  0.00  0.00    +0.000 A 
ATOM      5  C   UNL     1      -8.597  -2.120 126.237  0.00  0.00    +0.000 A 
ATOM      6  N   UNL     1      -9.145  -1.875 124.971  0.00  0.00    +0.000 N 
ATOM      7  C   UNL     1      -8.123  -2.212 124.138  0.00  0.00    +0.000 A 
ATOM      8  C   UNL     1      -7.588  -3.326 124.800  0.00  0.00    +0.000 A 
ATOM      9  C   UNL     1      -6.252  -3.576 124.312  0.00  0.00    +0.000 A 
ATOM     10  N   UNL     1      -5.634  -2.630 123.437  0.00  0.00    +0.000 NA
ATOM     11  C   UNL     1      -6.317  -1.609 122.871  0.00  0.00    +0.000 A 
ATOM     12  C   UNL     1      -7.645  -1.432 123.093  0.00  0.00    +0.000 A 
ATOM     13  C   UNL     1      -7.434  -1.967 127.071  0.00  0.00    +0.000 A 
ATOM     14  H   UNL     1     -10.032  -2.298 124.712  0.00  0.00    +0.000 HD
ENDROOT
BRANCH   1  19
ATOM     15  F   UNL     1      -3.086  -4.009 131.412  0.00  0.00    +0.000 F 
ATOM     16  C   UNL     1      -4.144  -3.632 130.700  0.00  0.00    +0.000 A 
ATOM     17  C   UNL     1      -5.369  -4.210 130.973  0.00  0.00    +0.000 A 
ATOM     18  C   UNL     1      -6.435  -3.950 130.151  0.00  0.00    +0.000 A 
ATOM     19  C   UNL     1      -6.297  -3.038 129.101  0.00  0.00    +0.000 A 
ATOM     20  C   UNL     1      -5.036  -2.420 128.975  0.00  0.00    +0.000 A 
ATOM     21  N   UNL     1      -3.953  -2.715 129.714  0.00  0.00    +0.000 NA
ENDBRANCH   1  19
TORSDOF 1
ENDMDL
MODEL 3
REMARK VINA RESULT:      -7.5      2.573      4.015
REMARK  Name = Flortaucipir F-18
REMARK  1 active torsions:
REMARK  status: ('A' for Active; 'I' for Inactive)
REMARK    1  A    between atoms: C_5  and  C_8
REMARK                            x       y       z     vdW  Elec       q    Type
REMARK                         _______ _______ _______ _____ _____    ______ ____
ROOT
ATOM      1  C   UNL     1      -7.325   2.829 122.230  0.00  0.00    +0.000 A 
ATOM      2  C   UNL     1      -8.650   2.744 122.557  0.00  0.00    +0.000 A 
ATOM      3  C   UNL     1      -8.862   2.814 123.947  0.00  0.00    +0.000 A 
ATOM      4  C   UNL     1      -7.725   2.871 124.897  0.00  0.00    +0.000 A 
ATOM      5  C   UNL     1      -7.033   1.756 124.379  0.00  0.00    +0.000 A 
ATOM      6  N   UNL     1      -6.800   1.304 125.685  0.00  0.00    +0.000 N 
ATOM      7  C   UNL     1      -5.857   2.177 126.134  0.00  0.00    +0.000 A 
ATOM      8  C   UNL     1      -6.295   3.374 125.551  0.00  0.00    +0.000 A 
ATOM      9  C   UNL     1      -5.213   4.331 125.554  0.00  0.00    +0.000 A 
ATOM     10  N   UNL     1      -3.903   3.910 125.941  0.00  0.00    +0.000 NA
ATOM     11  C   UNL     1      -3.664   2.707 126.509  0.00  0.00    +0.000 A 
ATOM     12  C   UNL     1      -4.668   1.826 126.759  0.00  0.00    +0.000 A 
ATOM     13  C   UNL     1      -6.421   2.226 123.165  0.00  0.00    +0.000 A 
ATOM     14  H   UNL     1      -7.579   1.187 126.328  0.00  0.00    +0.000 HD
ENDROOT
BRANCH   1  19
ATOM     15  F   UNL     1      -5.742   5.899 117.926  0.00  0.00    +0.000 F 
ATOM     16  C   UNL     1      -6.168   5.228 118.991  0.00  0.00    +0.000 A 
ATOM     17  C   UNL     1      -5.299   5.038 120.048  0.00  0.00    +0.000 A 
ATOM     18  C   UNL     1      -5.667   4.221 121.085  0.00  0.00    +0.000 A 
ATOM     19  C   UNL     1      -6.947   3.660 121.107  0.00  0.00    +0.000 A 
ATOM     20  C   UNL     1      -7.797   4.004 120.037  0.00  0.00    +0.000 A 
ATOM     21  N   UNL     1      -7.437   4.737 118.968  0.00  0.00    +0.000 NA
ENDBRANCH   1  19
TORSDOF 1
ENDMDL
MODEL 4
REMARK VINA RESULT:      -7.4      8.559     10.147
REMARK  Name = Flortaucipir F-18
REMARK  1 active torsions:
REMARK  status: ('A' for Active; 'I' for Inactive)
REMARK    1  A    between atoms: C_5  and  C_8
REMARK                            x       y       z     vdW  Elec       q    Type
REMARK                         _______ _______ _______ _____ _____    ______ ____
ROOT
ATOM      1  C   UNL     1      -8.041   5.568 131.374  0.00  0.00    +0.000 A 
ATOM      2  C   UNL     1      -8.320   4.268 131.695  0.00  0.00    +0.000 A 
ATOM      3  C   UNL     1      -9.638   3.907 131.358  0.00  0.00    +0.000 A 
ATOM      4  C   UNL     1     -10.594   4.902 130.814  0.00  0.00    +0.000 A 
ATOM      5  C   UNL     1     -10.400   5.871 131.821  0.00  0.00    +0.000 A 
ATOM      6  N   UNL     1     -11.786   6.065 131.890  0.00  0.00    +0.000 N 
ATOM      7  C   UNL     1     -12.046   6.742 130.739  0.00  0.00    +0.000 A 
ATOM      8  C   UNL     1     -11.166   6.113 129.848  0.00  0.00    +0.000 A 
ATOM      9  C   UNL     1     -10.980   6.951 128.687  0.00  0.00    +0.000 A 
ATOM     10  N   UNL     1     -11.517   8.275 128.682  0.00  0.00    +0.000 NA
ATOM     11  C   UNL     1     -12.375   8.715 129.630  0.00  0.00    +0.000 A 
ATOM     12  C   UNL     1     -12.791   7.910 130.642  0.00  0.00    +0.000 A 
ATOM     13  C   UNL     1      -9.135   6.484 131.512  0.00  0.00    +0.000 A 
ATOM     14  H   UNL     1     -12.403   5.270 132.038  0.00  0.00    +0.000 HD
ENDROOT
BRANCH   1  19
ATOM     15  F   UNL     1      -3.107   6.715 129.185  0.00  0.00    +0.000 F 
ATOM     16  C   UNL     1      -4.331   6.469 129.639  0.00  0.00    +0.000 A 
ATOM     17  C   UNL     1      -4.884   7.335 130.563  0.00  0.00    +0.000 A 
ATOM     18  C   UNL     1      -6.078   7.016 131.156  0.00  0.00    +0.000 A 
ATOM     19  C   UNL     1      -6.765   5.866 130.759  0.00  0.00    +0.000 A 
ATOM     20  C   UNL     1      -6.170   5.107 129.731  0.00  0.00    +0.000 A 
ATOM     21  N   UNL     1      -4.964   5.352 129.188  0.00  0.00    +0.000 NA
ENDBRANCH   1  19
TORSDOF 1
ENDMDL
MODEL 5
REMARK VINA RESULT:      -7.4      5.307      7.702
REMARK  Name = Flortaucipir F-18
REMARK  1 active torsions:
REMARK  status: ('A' for Active; 'I' for Inactive)
REMARK    1  A    between atoms: C_5  and  C_8
REMARK                            x       y       z     vdW  Elec       q    Type
REMARK                         _______ _______ _______ _____ _____    ______ ____
ROOT
ATOM      1  C   UNL     1      -7.567  -2.383 128.252  0.00  0.00    +0.000 A 
ATOM      2  C   UNL     1      -8.444  -3.319 128.725  0.00  0.00    +0.000 A 
ATOM      3  C   UNL     1      -8.998  -4.101 127.695  0.00  0.00    +0.000 A 
ATOM      4  C   UNL     1      -8.698  -3.819 126.270  0.00  0.00    +0.000 A 
ATOM      5  C   UNL     1      -9.012  -2.445 126.313  0.00  0.00    +0.000 A 
ATOM      6  N   UNL     1      -9.706  -2.574 125.102  0.00  0.00    +0.000 N 
ATOM      7  C   UNL     1      -8.699  -2.718 124.199  0.00  0.00    +0.000 A 
ATOM      8  C   UNL     1      -7.794  -3.506 124.924  0.00  0.00    +0.000 A 
ATOM      9  C   UNL     1      -6.489  -3.422 124.312  0.00  0.00    +0.000 A 
ATOM     10  N   UNL     1      -6.266  -2.484 123.257  0.00  0.00    +0.000 NA
ATOM     11  C   UNL     1      -7.274  -1.812 122.656  0.00  0.00    +0.000 A 
ATOM     12  C   UNL     1      -8.570  -2.004 123.015  0.00  0.00    +0.000 A 
ATOM     13  C   UNL     1      -7.893  -1.826 126.973  0.00  0.00    +0.000 A 
ATOM     14  H   UNL     1     -10.435  -3.276 125.008  0.00  0.00    +0.000 HD
ENDROOT
BRANCH   1  19
ATOM     15  F   UNL     1      -2.754  -1.730 130.873  0.00  0.00    +0.000 F 
ATOM     16  C   UNL     1      -3.953  -1.861 130.315  0.00  0.00    +0.000 A 
ATOM     17  C   UNL     1      -4.494  -3.126 130.190  0.00  0.00    +0.000 A 
ATOM     18  C   UNL     1      -5.654  -3.296 129.481  0.00  0.00    +0.000 A 
ATOM     19  C   UNL     1      -6.324  -2.182 128.967  0.00  0.00    +0.000 A 
ATOM     20  C   UNL     1      -5.748  -0.926 129.243  0.00  0.00    +0.000 A 
ATOM     21  N   UNL     1      -4.571  -0.735 129.865  0.00  0.00    +0.000 NA
ENDBRANCH   1  19
TORSDOF 1
ENDMDL
MODEL 6
REMARK VINA RESULT:      -7.3      9.155     10.176
REMARK  Name = Flortaucipir F-18
REMARK  1 active torsions:
REMARK  status: ('A' for Active; 'I' for Inactive)
REMARK    1  A    between atoms: C_5  and  C_8
REMARK                            x       y       z     vdW  Elec       q    Type
REMARK                         _______ _______ _______ _____ _____    ______ ____
ROOT
ATOM      1  C   UNL     1      -9.679   5.976 131.255  0.00  0.00    +0.000 A 
ATOM      2  C   UNL     1      -9.913   5.856 132.597  0.00  0.00    +0.000 A 
ATOM      3  C   UNL     1      -8.724   5.850 133.348  0.00  0.00    +0.000 A 
ATOM      4  C   UNL     1      -7.396   5.873 132.687  0.00  0.00    +0.000 A 
ATOM      5  C   UNL     1      -7.641   4.797 131.810  0.00  0.00    +0.000 A 
ATOM      6  N   UNL     1      -6.370   4.281 132.102  0.00  0.00    +0.000 N 
ATOM      7  C   UNL     1      -5.545   5.141 131.447  0.00  0.00    +0.000 A 
ATOM      8  C   UNL     1      -6.203   6.361 131.655  0.00  0.00    +0.000 A 
ATOM      9  C   UNL     1      -5.727   7.331 130.697  0.00  0.00    +0.000 A 
ATOM     10  N   UNL     1      -4.866   6.909 129.638  0.00  0.00    +0.000 NA
ATOM     11  C   UNL     1      -4.301   5.681 129.605  0.00  0.00    +0.000 A 
ATOM     12  C   UNL     1      -4.512   4.775 130.595  0.00  0.00    +0.000 A 
ATOM     13  C   UNL     1      -8.487   5.338 130.780  0.00  0.00    +0.000 A 
ATOM     14  H   UNL     1      -6.099   4.119 133.068  0.00  0.00    +0.000 HD
ENDROOT
BRANCH   1  19
ATOM     15  F   UNL     1     -12.840   9.300 128.185  0.00  0.00    +0.000 F 
ATOM     16  C   UNL     1     -12.074   8.563 128.984  0.00  0.00    +0.000 A 
ATOM     17  C   UNL     1     -10.733   8.429 128.682  0.00  0.00    +0.000 A 
ATOM     18  C   UNL     1      -9.964   7.553 129.402  0.00  0.00    +0.000 A 
ATOM     19  C   UNL     1     -10.520   6.870 130.487  0.00  0.00    +0.000 A 
ATOM     20  C   UNL     1     -11.868   7.159 130.781  0.00  0.00    +0.000 A 
ATOM     21  N   UNL     1     -12.667   7.951 130.045  0.00  0.00    +0.000 NA
ENDBRANCH   1  19
TORSDOF 1
ENDMDL
MODEL 7
REMARK VINA RESULT:      -7.3      4.166      7.472
REMARK  Name = Flortaucipir F-18
REMARK  1 active torsions:
REMARK  status: ('A' for Active; 'I' for Inactive)
REMARK    1  A    between atoms: C_5  and  C_8
REMARK                            x       y       z     vdW  Elec       q    Type
REMARK                         _______ _______ _______ _____ _____    ______ ____
ROOT
ATOM      1  C   UNL     1      -8.346  -2.394 125.735  0.00  0.00    +0.000 A 
ATOM      2  C   UNL     1      -8.092  -3.264 124.711  0.00  0.00    +0.000 A 
ATOM      3  C   UNL     1      -7.715  -2.601 123.528  0.00  0.00    +0.000 A 
ATOM      4  C   UNL     1      -7.713  -1.120 123.443  0.00  0.00    +0.000 A 
ATOM      5  C   UNL     1      -9.025  -0.935 123.928  0.00  0.00    +0.000 A 
ATOM      6  N   UNL     1      -9.257   0.007 122.916  0.00  0.00    +0.000 N 
ATOM      7  C   UNL     1      -8.529   1.076 123.337  0.00  0.00    +0.000 A 
ATOM      8  C   UNL     1      -7.400   0.442 123.877  0.00  0.00    +0.000 A 
ATOM      9  C   UNL     1      -6.705   1.361 124.747  0.00  0.00    +0.000 A 
ATOM     10  N   UNL     1      -7.305   2.618 125.065  0.00  0.00    +0.000 NA
ATOM     11  C   UNL     1      -8.401   3.084 124.425  0.00  0.00    +0.000 A 
ATOM     12  C   UNL     1      -8.991   2.383 123.422  0.00  0.00    +0.000 A 
ATOM     13  C   UNL     1      -8.932  -1.144 125.348  0.00  0.00    +0.000 A 
ATOM     14  H   UNL     1      -9.086  -0.240 121.945  0.00  0.00    +0.000 HD
ENDROOT
BRANCH   1  19
ATOM     15  F   UNL     1      -6.459  -3.789 130.730  0.00  0.00    +0.000 F 
ATOM     16  C   UNL     1      -6.928  -3.373 129.558  0.00  0.00    +0.000 A 
ATOM     17  C   UNL     1      -8.211  -3.729 129.191  0.00  0.00    +0.000 A 
ATOM     18  C   UNL     1      -8.655  -3.442 127.927  0.00  0.00    +0.000 A 
ATOM     19  C   UNL     1      -7.841  -2.716 127.052  0.00  0.00    +0.000 A 
ATOM     20  C   UNL     1      -6.593  -2.304 127.560  0.00  0.00    +0.000 A 
ATOM     21  N   UNL     1      -6.100  -2.639 128.766  0.00  0.00    +0.000 NA
ENDBRANCH   1  19
TORSDOF 1
ENDMDL
MODEL 8
REMARK VINA RESULT:      -7.3      4.283      6.729
REMARK  Name = Flortaucipir F-18
REMARK  1 active torsions:
REMARK  status: ('A' for Active; 'I' for Inactive)
REMARK    1  A    between atoms: C_5  and  C_8
REMARK                            x       y       z     vdW  Elec       q    Type
REMARK                         _______ _______ _______ _____ _____    ______ ____
ROOT
ATOM      1  C   UNL     1      -8.102  -2.937 126.790  0.00  0.00    +0.000 A 
ATOM      2  C   UNL     1      -8.858  -3.921 127.364  0.00  0.00    +0.000 A 
ATOM      3  C   UNL     1      -8.954  -3.775 128.760  0.00  0.00    +0.000 A 
ATOM      4  C   UNL     1      -8.210  -2.709 129.474  0.00  0.00    +0.000 A 
ATOM      5  C   UNL     1      -6.949  -2.998 128.915  0.00  0.00    +0.000 A 
ATOM      6  N   UNL     1      -6.365  -2.865 130.183  0.00  0.00    +0.000 N 
ATOM      7  C   UNL     1      -6.405  -1.521 130.386  0.00  0.00    +0.000 A 
ATOM      8  C   UNL     1      -7.643  -1.195 129.814  0.00  0.00    +0.000 A 
ATOM      9  C   UNL     1      -7.690   0.223 129.548  0.00  0.00    +0.000 A 
ATOM     10  N   UNL     1      -6.506   1.008 129.712  0.00  0.00    +0.000 NA
ATOM     11  C   UNL     1      -5.392   0.528 130.308  0.00  0.00    +0.000 A 
ATOM     12  C   UNL     1      -5.337  -0.736 130.801  0.00  0.00    +0.000 A 
ATOM     13  C   UNL     1      -7.001  -2.469 127.578  0.00  0.00    +0.000 A 
ATOM     14  H   UNL     1      -6.728  -3.403 130.966  0.00  0.00    +0.000 HD
ENDROOT
BRANCH   1  19
ATOM     15  F   UNL     1     -10.017  -0.772 122.088  0.00  0.00    +0.000 F 
ATOM     16  C   UNL     1      -9.481  -1.252 123.205  0.00  0.00    +0.000 A 
ATOM     17  C   UNL     1      -9.046  -2.564 123.224  0.00  0.00    +0.000 A 
ATOM     18  C   UNL     1      -8.635  -3.121 124.406  0.00  0.00    +0.000 A 
ATOM     19  C   UNL     1      -8.574  -2.336 125.561  0.00  0.00    +0.000 A 
ATOM     20  C   UNL     1      -8.934  -0.981 125.413  0.00  0.00    +0.000 A 
ATOM     21  N   UNL     1      -9.418  -0.428 124.286  0.00  0.00    +0.000 NA
ENDBRANCH   1  19
TORSDOF 1
ENDMDL
MODEL 9
REMARK VINA RESULT:      -6.7      5.142      7.280
REMARK  Name = Flortaucipir F-18
REMARK  1 active torsions:
REMARK  status: ('A' for Active; 'I' for Inactive)
REMARK    1  A    between atoms: C_5  and  C_8
REMARK                            x       y       z     vdW  Elec       q    Type
REMARK                         _______ _______ _______ _____ _____    ______ ____
ROOT
ATOM      1  C   UNL     1      -7.576  -2.570 127.785  0.00  0.00    +0.000 A 
ATOM      2  C   UNL     1      -7.995  -3.479 128.716  0.00  0.00    +0.000 A 
ATOM      3  C   UNL     1      -8.169  -2.900 129.986  0.00  0.00    +0.000 A 
ATOM      4  C   UNL     1      -7.821  -1.481 130.239  0.00  0.00    +0.000 A 
ATOM      5  C   UNL     1      -6.518  -1.543 129.702  0.00  0.00    +0.000 A 
ATOM      6  N   UNL     1      -6.040  -0.812 130.799  0.00  0.00    +0.000 N 
ATOM      7  C   UNL     1      -6.510   0.440 130.546  0.00  0.00    +0.000 A 
ATOM      8  C   UNL     1      -7.771   0.153 130.005  0.00  0.00    +0.000 A 
ATOM      9  C   UNL     1      -8.258   1.308 129.288  0.00  0.00    +0.000 A 
ATOM     10  N   UNL     1      -7.390   2.424 129.079  0.00  0.00    +0.000 NA
ATOM     11  C   UNL     1      -6.196   2.543 129.704  0.00  0.00    +0.000 A 
ATOM     12  C   UNL     1      -5.756   1.606 130.583  0.00  0.00    +0.000 A 
ATOM     13  C   UNL     1      -6.701  -1.547 128.275  0.00  0.00    +0.000 A 
ATOM     14  H   UNL     1      -6.234  -1.132 131.744  0.00  0.00    +0.000 HD
ENDROOT
BRANCH   1  19
ATOM     15  F   UNL     1      -9.972  -2.834 122.820  0.00  0.00    +0.000 F 
ATOM     16  C   UNL     1      -9.331  -2.725 123.979  0.00  0.00    +0.000 A 
ATOM     17  C   UNL     1      -8.623  -3.813 124.452  0.00  0.00    +0.000 A 
ATOM     18  C   UNL     1      -8.086  -3.772 125.712  0.00  0.00    +0.000 A 
ATOM     19  C   UNL     1      -8.182  -2.602 126.471  0.00  0.00    +0.000 A 
ATOM     20  C   UNL     1      -8.828  -1.511 125.855  0.00  0.00    +0.000 A 
ATOM     21  N   UNL     1      -9.434  -1.549 124.655  0.00  0.00    +0.000 NA
ENDBRANCH   1  19
TORSDOF 1
ENDMDL
