MODEL 1
REMARK VINA RESULT:      -6.7      0.000      0.000
REMARK  Name = Florbetapir (18F)
REMARK  13 active torsions:
REMARK  status: ('A' for Active; 'I' for Inactive)
REMARK    1  A    between atoms: N_2  and  C_3
REMARK    2  A    between atoms: N_2  and  C_48
REMARK    3  A    between atoms: C_8  and  C_9
REMARK    4  A    between atoms: C_11  and  C_13
REMARK    5  A    between atoms: C_17  and  O_18
REMARK    6  A    between atoms: O_18  and  C_19
REMARK    7  A    between atoms: C_19  and  C_22
REMARK    8  A    between atoms: C_22  and  O_25
REMARK    9  A    between atoms: O_25  and  C_26
REMARK   10  A    between atoms: C_26  and  C_29
REMARK   11  A    between atoms: C_29  and  O_32
REMARK   12  A    between atoms: O_32  and  C_33
REMARK   13  A    between atoms: C_33  and  C_36
REMARK                            x       y       z     vdW  Elec       q    Type
REMARK                         _______ _______ _______ _____ _____    ______ ____
ROOT
ATOM      1  C   UNL     1      -9.560   3.373 130.683  0.00  0.00    +0.000 A 
ATOM      2  C   UNL     1      -8.743   2.825 129.700  0.00  0.00    +0.000 A 
ATOM      3  N   UNL     1      -8.279   1.550 129.713  0.00  0.00    +0.000 NA
ATOM      4  C   UNL     1      -8.648   0.768 130.750  0.00  0.00    +0.000 A 
ATOM      5  C   UNL     1      -9.463   1.231 131.775  0.00  0.00    +0.000 A 
ATOM      6  C   UNL     1      -9.928   2.541 131.735  0.00  0.00    +0.000 A 
ENDROOT
BRANCH   1   8
ATOM      7  C   UNL     1     -11.339   4.997 130.118  0.00  0.00    +0.000 C 
ATOM      8  C   UNL     1     -10.102   4.726 130.558  0.00  0.00    +0.000 C 
BRANCH   7  12
ATOM      9  C   UNL     1     -12.732   9.008 129.360  0.00  0.00    +0.000 A 
ATOM     10  C   UNL     1     -12.206   8.205 128.342  0.00  0.00    +0.000 A 
ATOM     11  C   UNL     1     -11.809   6.885 128.585  0.00  0.00    +0.000 A 
ATOM     12  C   UNL     1     -11.867   6.353 129.877  0.00  0.00    +0.000 A 
ATOM     13  C   UNL     1     -12.379   7.162 130.898  0.00  0.00    +0.000 A 
ATOM     14  C   UNL     1     -12.802   8.473 130.645  0.00  0.00    +0.000 A 
BRANCH   9  16
ATOM     15  H   UNL     1     -12.667  10.791 128.377  0.00  0.00    +0.000 HD
ATOM     16  N   UNL     1     -13.193  10.298 129.093  0.00  0.00    +0.000 N 
ATOM     17  C   UNL     1     -13.525  11.124 130.247  0.00  0.00    +0.000 C 
ENDBRANCH   9  16
ENDBRANCH   7  12
ENDBRANCH   1   8
BRANCH   4  18
ATOM     18  O   UNL     1      -8.152  -0.505 130.674  0.00  0.00    +0.000 OA
BRANCH  18  19
ATOM     19  C   UNL     1      -7.840  -0.972 129.363  0.00  0.00    +0.000 C 
BRANCH  19  20
ATOM     20  C   UNL     1      -6.975  -2.217 129.461  0.00  0.00    +0.000 C 
BRANCH  20  21
ATOM     21  O   UNL     1      -7.342  -3.128 128.423  0.00  0.00    +0.000 OA
BRANCH  21  22
ATOM     22  C   UNL     1      -8.079  -2.458 127.402  0.00  0.00    +0.000 C 
BRANCH  22  23
ATOM     23  C   UNL     1      -9.094  -3.411 126.791  0.00  0.00    +0.000 C 
BRANCH  23  24
ATOM     24  O   UNL     1      -9.786  -2.745 125.734  0.00  0.00    +0.000 OA
BRANCH  24  25
ATOM     25  C   UNL     1      -8.869  -2.196 124.789  0.00  0.00    +0.000 C 
BRANCH  25  26
ATOM     26  C   UNL     1      -8.863  -3.043 123.531  0.00  0.00    +0.000 C 
ATOM     27  F   UNL     1     -10.068  -3.660 123.404  0.00  0.00    +0.000 F 
ENDBRANCH  25  26
ENDBRANCH  24  25
ENDBRANCH  23  24
ENDBRANCH  22  23
ENDBRANCH  21  22
ENDBRANCH  20  21
ENDBRANCH  19  20
ENDBRANCH  18  19
ENDBRANCH   4  18
TORSDOF 12
ENDMDL
MODEL 2
REMARK VINA RESULT:      -6.4      5.942      7.350
REMARK  Name = Florbetapir (18F)
REMARK  13 active torsions:
REMARK  status: ('A' for Active; 'I' for Inactive)
REMARK    1  A    between atoms: N_2  and  C_3
REMARK    2  A    between atoms: N_2  and  C_48
REMARK    3  A    between atoms: C_8  and  C_9
REMARK    4  A    between atoms: C_11  and  C_13
REMARK    5  A    between atoms: C_17  and  O_18
REMARK    6  A    between atoms: O_18  and  C_19
REMARK    7  A    between atoms: C_19  and  C_22
REMARK    8  A    between atoms: C_22  and  O_25
REMARK    9  A    between atoms: O_25  and  C_26
REMARK   10  A    between atoms: C_26  and  C_29
REMARK   11  A    between atoms: C_29  and  O_32
REMARK   12  A    between atoms: O_32  and  C_33
REMARK   13  A    between atoms: C_33  and  C_36
REMARK                            x       y       z     vdW  Elec       q    Type
REMARK                         _______ _______ _______ _____ _____    ______ ____
ROOT
ATOM      1  C   UNL     1      -6.825   1.215 125.920  0.00  0.00    +0.000 A 
ATOM      2  C   UNL     1      -5.959   0.177 126.246  0.00  0.00    +0.000 A 
ATOM      3  N   UNL     1      -6.114  -0.642 127.316  0.00  0.00    +0.000 NA
ATOM      4  C   UNL     1      -7.188  -0.430 128.107  0.00  0.00    +0.000 A 
ATOM      5  C   UNL     1      -8.104   0.583 127.857  0.00  0.00    +0.000 A 
ATOM      6  C   UNL     1      -7.925   1.406 126.750  0.00  0.00    +0.000 A 
ENDROOT
BRANCH   1   8
ATOM      7  C   UNL     1      -7.629   2.226 123.810  0.00  0.00    +0.000 C 
ATOM      8  C   UNL     1      -6.650   1.999 124.696  0.00  0.00    +0.000 C 
BRANCH   7  12
ATOM      9  C   UNL     1      -7.184   4.115 119.958  0.00  0.00    +0.000 A 
ATOM     10  C   UNL     1      -8.442   3.841 120.504  0.00  0.00    +0.000 A 
ATOM     11  C   UNL     1      -8.578   3.280 121.779  0.00  0.00    +0.000 A 
ATOM     12  C   UNL     1      -7.450   2.914 122.518  0.00  0.00    +0.000 A 
ATOM     13  C   UNL     1      -6.190   3.175 121.964  0.00  0.00    +0.000 A 
ATOM     14  C   UNL     1      -6.058   3.762 120.700  0.00  0.00    +0.000 A 
BRANCH   9  16
ATOM     15  H   UNL     1      -7.174   4.120 117.920  0.00  0.00    +0.000 HD
ATOM     16  N   UNL     1      -7.059   4.741 118.717  0.00  0.00    +0.000 N 
ATOM     17  C   UNL     1      -5.956   5.682 118.568  0.00  0.00    +0.000 C 
ENDBRANCH   9  16
ENDBRANCH   7  12
ENDBRANCH   1   8
BRANCH   4  18
ATOM     18  O   UNL     1      -7.277  -1.310 129.151  0.00  0.00    +0.000 OA
BRANCH  18  19
ATOM     19  C   UNL     1      -7.133  -2.688 128.813  0.00  0.00    +0.000 C 
BRANCH  19  20
ATOM     20  C   UNL     1      -8.479  -3.249 128.386  0.00  0.00    +0.000 C 
BRANCH  20  21
ATOM     21  O   UNL     1      -8.374  -3.763 127.056  0.00  0.00    +0.000 OA
BRANCH  21  22
ATOM     22  C   UNL     1      -9.041  -2.906 126.132  0.00  0.00    +0.000 C 
BRANCH  22  23
ATOM     23  C   UNL     1      -8.130  -2.620 124.947  0.00  0.00    +0.000 C 
BRANCH  23  24
ATOM     24  O   UNL     1      -8.554  -1.415 124.309  0.00  0.00    +0.000 OA
BRANCH  24  25
ATOM     25  C   UNL     1      -8.094  -1.362 122.960  0.00  0.00    +0.000 C 
BRANCH  25  26
ATOM     26  C   UNL     1      -6.578  -1.350 122.937  0.00  0.00    +0.000 C 
ATOM     27  F   UNL     1      -6.141  -2.132 121.914  0.00  0.00    +0.000 F 
ENDBRANCH  25  26
ENDBRANCH  24  25
ENDBRANCH  23  24
ENDBRANCH  22  23
ENDBRANCH  21  22
ENDBRANCH  20  21
ENDBRANCH  19  20
ENDBRANCH  18  19
ENDBRANCH   4  18
TORSDOF 12
ENDMDL
MODEL 3
REMARK VINA RESULT:      -6.4      7.793     10.313
REMARK  Name = Florbetapir (18F)
REMARK  13 active torsions:
REMARK  status: ('A' for Active; 'I' for Inactive)
REMARK    1  A    between atoms: N_2  and  C_3
REMARK    2  A    between atoms: N_2  and  C_48
REMARK    3  A    between atoms: C_8  and  C_9
REMARK    4  A    between atoms: C_11  and  C_13
REMARK    5  A    between atoms: C_17  and  O_18
REMARK    6  A    between atoms: O_18  and  C_19
REMARK    7  A    between atoms: C_19  and  C_22
REMARK    8  A    between atoms: C_22  and  O_25
REMARK    9  A    between atoms: O_25  and  C_26
REMARK   10  A    between atoms: C_26  and  C_29
REMARK   11  A    between atoms: C_29  and  O_32
REMARK   12  A    between atoms: O_32  and  C_33
REMARK   13  A    between atoms: C_33  and  C_36
REMARK                            x       y       z     vdW  Elec       q    Type
REMARK                         _______ _______ _______ _____ _____    ______ ____
ROOT
ATOM      1  C   UNL     1      -7.654  -3.166 128.607  0.00  0.00    +0.000 A 
ATOM      2  C   UNL     1      -7.281  -2.105 127.790  0.00  0.00    +0.000 A 
ATOM      3  N   UNL     1      -7.896  -1.784 126.624  0.00  0.00    +0.000 NA
ATOM      4  C   UNL     1      -8.943  -2.549 126.246  0.00  0.00    +0.000 A 
ATOM      5  C   UNL     1      -9.384  -3.627 127.001  0.00  0.00    +0.000 A 
ATOM      6  C   UNL     1      -8.739  -3.932 128.195  0.00  0.00    +0.000 A 
ENDROOT
BRANCH   1   8
ATOM      7  C   UNL     1      -5.699  -3.645 130.046  0.00  0.00    +0.000 C 
ATOM      8  C   UNL     1      -7.007  -3.397 129.900  0.00  0.00    +0.000 C 
BRANCH   7  12
ATOM      9  C   UNL     1      -3.934  -4.628 133.858  0.00  0.00    +0.000 A 
ATOM     10  C   UNL     1      -5.024  -5.339 133.344  0.00  0.00    +0.000 A 
ATOM     11  C   UNL     1      -5.554  -5.050 132.081  0.00  0.00    +0.000 A 
ATOM     12  C   UNL     1      -5.046  -3.991 131.323  0.00  0.00    +0.000 A 
ATOM     13  C   UNL     1      -3.966  -3.270 131.845  0.00  0.00    +0.000 A 
ATOM     14  C   UNL     1      -3.420  -3.580 133.096  0.00  0.00    +0.000 A 
BRANCH   9  16
ATOM     15  H   UNL     1      -3.881  -5.676 135.604  0.00  0.00    +0.000 HD
ATOM     16  N   UNL     1      -3.366  -4.970 135.086  0.00  0.00    +0.000 N 
ATOM     17  C   UNL     1      -2.892  -3.868 135.915  0.00  0.00    +0.000 C 
ENDBRANCH   9  16
ENDBRANCH   7  12
ENDBRANCH   1   8
BRANCH   4  18
ATOM     18  O   UNL     1      -9.515  -2.144 125.070  0.00  0.00    +0.000 OA
BRANCH  18  19
ATOM     19  C   UNL     1      -9.351  -3.030 123.964  0.00  0.00    +0.000 C 
BRANCH  19  20
ATOM     20  C   UNL     1      -8.661  -2.298 122.826  0.00  0.00    +0.000 C 
BRANCH  20  21
ATOM     21  O   UNL     1      -8.393  -0.952 123.225  0.00  0.00    +0.000 OA
BRANCH  21  22
ATOM     22  C   UNL     1      -6.988  -0.709 123.264  0.00  0.00    +0.000 C 
BRANCH  22  23
ATOM     23  C   UNL     1      -6.242  -1.920 122.725  0.00  0.00    +0.000 C 
BRANCH  23  24
ATOM     24  O   UNL     1      -5.252  -2.321 123.672  0.00  0.00    +0.000 OA
BRANCH  24  25
ATOM     25  C   UNL     1      -5.426  -3.687 124.046  0.00  0.00    +0.000 C 
BRANCH  25  26
ATOM     26  C   UNL     1      -4.143  -4.454 123.792  0.00  0.00    +0.000 C 
ATOM     27  F   UNL     1      -4.362  -5.378 122.819  0.00  0.00    +0.000 F 
ENDBRANCH  25  26
ENDBRANCH  24  25
ENDBRANCH  23  24
ENDBRANCH  22  23
ENDBRANCH  21  22
ENDBRANCH  20  21
ENDBRANCH  19  20
ENDBRANCH  18  19
ENDBRANCH   4  18
TORSDOF 12
ENDMDL
MODEL 4
REMARK VINA RESULT:      -6.2      6.811     10.491
REMARK  Name = Florbetapir (18F)
REMARK  13 active torsions:
REMARK  status: ('A' for Active; 'I' for Inactive)
REMARK    1  A    between atoms: N_2  and  C_3
REMARK    2  A    between atoms: N_2  and  C_48
REMARK    3  A    between atoms: C_8  and  C_9
REMARK    4  A    between atoms: C_11  and  C_13
REMARK    5  A    between atoms: C_17  and  O_18
REMARK    6  A    between atoms: O_18  and  C_19
REMARK    7  A    between atoms: C_19  and  C_22
REMARK    8  A    between atoms: C_22  and  O_25
REMARK    9  A    between atoms: O_25  and  C_26
REMARK   10  A    between atoms: C_26  and  C_29
REMARK   11  A    between atoms: C_29  and  O_32
REMARK   12  A    between atoms: O_32  and  C_33
REMARK   13  A    between atoms: C_33  and  C_36
REMARK                            x       y       z     vdW  Elec       q    Type
REMARK                         _______ _______ _______ _____ _____    ______ ____
ROOT
ATOM      1  C   UNL     1      -8.227  -2.925 128.030  0.00  0.00    +0.000 A 
ATOM      2  C   UNL     1      -7.892  -1.620 127.685  0.00  0.00    +0.000 A 
ATOM      3  N   UNL     1      -8.266  -1.014 126.530  0.00  0.00    +0.000 NA
ATOM      4  C   UNL     1      -9.019  -1.732 125.670  0.00  0.00    +0.000 A 
ATOM      5  C   UNL     1      -9.401  -3.041 125.934  0.00  0.00    +0.000 A 
ATOM      6  C   UNL     1      -9.008  -3.638 127.127  0.00  0.00    +0.000 A 
ENDROOT
BRANCH   1   8
ATOM      7  C   UNL     1      -6.806  -3.093 130.049  0.00  0.00    +0.000 C 
ATOM      8  C   UNL     1      -7.870  -3.484 129.335  0.00  0.00    +0.000 C 
BRANCH   7  12
ATOM      9  C   UNL     1      -5.470  -4.771 133.792  0.00  0.00    +0.000 A 
ATOM     10  C   UNL     1      -6.497  -3.823 133.733  0.00  0.00    +0.000 A 
ATOM     11  C   UNL     1      -6.963  -3.326 132.510  0.00  0.00    +0.000 A 
ATOM     12  C   UNL     1      -6.364  -3.718 131.310  0.00  0.00    +0.000 A 
ATOM     13  C   UNL     1      -5.325  -4.656 131.370  0.00  0.00    +0.000 A 
ATOM     14  C   UNL     1      -4.881  -5.171 132.594  0.00  0.00    +0.000 A 
BRANCH   9  16
ATOM     15  H   UNL     1      -4.706  -4.634 135.675  0.00  0.00    +0.000 HD
ATOM     16  N   UNL     1      -5.062  -5.315 135.010  0.00  0.00    +0.000 N 
ATOM     17  C   UNL     1      -4.271  -6.537 134.947  0.00  0.00    +0.000 C 
ENDBRANCH   9  16
ENDBRANCH   7  12
ENDBRANCH   1   8
BRANCH   4  18
ATOM     18  O   UNL     1      -9.367  -1.040 124.542  0.00  0.00    +0.000 OA
BRANCH  18  19
ATOM     19  C   UNL     1      -8.416  -1.068 123.480  0.00  0.00    +0.000 C 
BRANCH  19  20
ATOM     20  C   UNL     1      -7.901   0.339 123.223  0.00  0.00    +0.000 C 
BRANCH  20  21
ATOM     21  O   UNL     1      -8.833   1.285 123.751  0.00  0.00    +0.000 OA
BRANCH  21  22
ATOM     22  C   UNL     1      -8.281   2.600 123.730  0.00  0.00    +0.000 C 
BRANCH  22  23
ATOM     23  C   UNL     1      -6.762   2.520 123.718  0.00  0.00    +0.000 C 
BRANCH  23  24
ATOM     24  O   UNL     1      -6.244   3.554 122.880  0.00  0.00    +0.000 OA
BRANCH  24  25
ATOM     25  C   UNL     1      -6.787   3.465 121.563  0.00  0.00    +0.000 C 
BRANCH  25  26
ATOM     26  C   UNL     1      -5.741   3.882 120.549  0.00  0.00    +0.000 C 
ATOM     27  F   UNL     1      -4.518   3.466 120.974  0.00  0.00    +0.000 F 
ENDBRANCH  25  26
ENDBRANCH  24  25
ENDBRANCH  23  24
ENDBRANCH  22  23
ENDBRANCH  21  22
ENDBRANCH  20  21
ENDBRANCH  19  20
ENDBRANCH  18  19
ENDBRANCH   4  18
TORSDOF 12
ENDMDL
MODEL 5
REMARK VINA RESULT:      -6.2      1.940      2.504
REMARK  Name = Florbetapir (18F)
REMARK  13 active torsions:
REMARK  status: ('A' for Active; 'I' for Inactive)
REMARK    1  A    between atoms: N_2  and  C_3
REMARK    2  A    between atoms: N_2  and  C_48
REMARK    3  A    between atoms: C_8  and  C_9
REMARK    4  A    between atoms: C_11  and  C_13
REMARK    5  A    between atoms: C_17  and  O_18
REMARK    6  A    between atoms: O_18  and  C_19
REMARK    7  A    between atoms: C_19  and  C_22
REMARK    8  A    between atoms: C_22  and  O_25
REMARK    9  A    between atoms: O_25  and  C_26
REMARK   10  A    between atoms: C_26  and  C_29
REMARK   11  A    between atoms: C_29  and  O_32
REMARK   12  A    between atoms: O_32  and  C_33
REMARK   13  A    between atoms: C_33  and  C_36
REMARK                            x       y       z     vdW  Elec       q    Type
REMARK                         _______ _______ _______ _____ _____    ______ ____
ROOT
ATOM      1  C   UNL     1      -9.706   3.188 131.262  0.00  0.00    +0.000 A 
ATOM      2  C   UNL     1      -9.457   2.940 132.608  0.00  0.00    +0.000 A 
ATOM      3  N   UNL     1      -8.607   1.988 133.067  0.00  0.00    +0.000 NA
ATOM      4  C   UNL     1      -7.959   1.242 132.146  0.00  0.00    +0.000 A 
ATOM      5  C   UNL     1      -8.145   1.421 130.782  0.00  0.00    +0.000 A 
ATOM      6  C   UNL     1      -9.019   2.408 130.338  0.00  0.00    +0.000 A 
ENDROOT
BRANCH   1   8
ATOM      7  C   UNL     1     -10.116   5.372 130.174  0.00  0.00    +0.000 C 
ATOM      8  C   UNL     1     -10.562   4.296 130.836  0.00  0.00    +0.000 C 
BRANCH   7  12
ATOM      9  C   UNL     1     -12.383   8.911 129.201  0.00  0.00    +0.000 A 
ATOM     10  C   UNL     1     -11.281   8.508 128.439  0.00  0.00    +0.000 A 
ATOM     11  C   UNL     1     -10.586   7.328 128.728  0.00  0.00    +0.000 A 
ATOM     12  C   UNL     1     -10.937   6.549 129.834  0.00  0.00    +0.000 A 
ATOM     13  C   UNL     1     -12.031   6.961 130.606  0.00  0.00    +0.000 A 
ATOM     14  C   UNL     1     -12.741   8.127 130.297  0.00  0.00    +0.000 A 
BRANCH   9  16
ATOM     15  H   UNL     1     -12.775  10.535 128.036  0.00  0.00    +0.000 HD
ATOM     16  N   UNL     1     -13.114  10.050 128.862  0.00  0.00    +0.000 N 
ATOM     17  C   UNL     1     -13.477  10.942 129.956  0.00  0.00    +0.000 C 
ENDBRANCH   9  16
ENDBRANCH   7  12
ENDBRANCH   1   8
BRANCH   4  18
ATOM     18  O   UNL     1      -7.109   0.320 132.694  0.00  0.00    +0.000 OA
BRANCH  18  19
ATOM     19  C   UNL     1      -7.599  -1.018 132.753  0.00  0.00    +0.000 C 
BRANCH  19  20
ATOM     20  C   UNL     1      -6.521  -1.975 132.272  0.00  0.00    +0.000 C 
BRANCH  20  21
ATOM     21  O   UNL     1      -6.132  -1.616 130.944  0.00  0.00    +0.000 OA
BRANCH  21  22
ATOM     22  C   UNL     1      -5.704  -2.767 130.217  0.00  0.00    +0.000 C 
BRANCH  22  23
ATOM     23  C   UNL     1      -6.896  -3.669 129.936  0.00  0.00    +0.000 C 
BRANCH  23  24
ATOM     24  O   UNL     1      -7.917  -2.909 129.288  0.00  0.00    +0.000 OA
BRANCH  24  25
ATOM     25  C   UNL     1      -7.737  -2.914 127.873  0.00  0.00    +0.000 C 
BRANCH  25  26
ATOM     26  C   UNL     1      -8.980  -3.467 127.202  0.00  0.00    +0.000 C 
ATOM     27  F   UNL     1      -9.555  -4.388 128.020  0.00  0.00    +0.000 F 
ENDBRANCH  25  26
ENDBRANCH  24  25
ENDBRANCH  23  24
ENDBRANCH  22  23
ENDBRANCH  21  22
ENDBRANCH  20  21
ENDBRANCH  19  20
ENDBRANCH  18  19
ENDBRANCH   4  18
TORSDOF 12
ENDMDL
MODEL 6
REMARK VINA RESULT:      -6.1      3.392      4.026
REMARK  Name = Florbetapir (18F)
REMARK  13 active torsions:
REMARK  status: ('A' for Active; 'I' for Inactive)
REMARK    1  A    between atoms: N_2  and  C_3
REMARK    2  A    between atoms: N_2  and  C_48
REMARK    3  A    between atoms: C_8  and  C_9
REMARK    4  A    between atoms: C_11  and  C_13
REMARK    5  A    between atoms: C_17  and  O_18
REMARK    6  A    between atoms: O_18  and  C_19
REMARK    7  A    between atoms: C_19  and  C_22
REMARK    8  A    between atoms: C_22  and  O_25
REMARK    9  A    between atoms: O_25  and  C_26
REMARK   10  A    between atoms: C_26  and  C_29
REMARK   11  A    between atoms: C_29  and  O_32
REMARK   12  A    between atoms: O_32  and  C_33
REMARK   13  A    between atoms: C_33  and  C_36
REMARK                            x       y       z     vdW  Elec       q    Type
REMARK                         _______ _______ _______ _____ _____    ______ ____
ROOT
ATOM      1  C   UNL     1      -9.506   3.341 130.556  0.00  0.00    +0.000 A 
ATOM      2  C   UNL     1      -8.718   2.667 129.629  0.00  0.00    +0.000 A 
ATOM      3  N   UNL     1      -8.309   1.380 129.765  0.00  0.00    +0.000 NA
ATOM      4  C   UNL     1      -8.705   0.718 130.873  0.00  0.00    +0.000 A 
ATOM      5  C   UNL     1      -9.493   1.313 131.849  0.00  0.00    +0.000 A 
ATOM      6  C   UNL     1      -9.903   2.632 131.684  0.00  0.00    +0.000 A 
ENDROOT
BRANCH   1   8
ATOM      7  C   UNL     1     -11.271   5.070 130.431  0.00  0.00    +0.000 C 
ATOM      8  C   UNL     1      -9.991   4.698 130.300  0.00  0.00    +0.000 C 
BRANCH   7  12
ATOM      9  C   UNL     1     -12.667   9.009 129.363  0.00  0.00    +0.000 A 
ATOM     10  C   UNL     1     -11.891   8.240 128.490  0.00  0.00    +0.000 A 
ATOM     11  C   UNL     1     -11.490   6.940 128.822  0.00  0.00    +0.000 A 
ATOM     12  C   UNL     1     -11.802   6.398 130.072  0.00  0.00    +0.000 A 
ATOM     13  C   UNL     1     -12.566   7.175 130.952  0.00  0.00    +0.000 A 
ATOM     14  C   UNL     1     -12.989   8.464 130.605  0.00  0.00    +0.000 A 
BRANCH   9  16
ATOM     15  H   UNL     1     -12.561  10.733 128.282  0.00  0.00    +0.000 HD
ATOM     16  N   UNL     1     -13.123  10.276 128.994  0.00  0.00    +0.000 N 
ATOM     17  C   UNL     1     -13.528  11.164 130.076  0.00  0.00    +0.000 C 
ENDBRANCH   9  16
ENDBRANCH   7  12
ENDBRANCH   1   8
BRANCH   4  18
ATOM     18  O   UNL     1      -8.264  -0.576 130.920  0.00  0.00    +0.000 OA
BRANCH  18  19
ATOM     19  C   UNL     1      -7.933  -1.072 132.216  0.00  0.00    +0.000 C 
BRANCH  19  20
ATOM     20  C   UNL     1      -6.536  -1.671 132.188  0.00  0.00    +0.000 C 
BRANCH  20  21
ATOM     21  O   UNL     1      -5.585  -0.664 132.539  0.00  0.00    +0.000 OA
BRANCH  21  22
ATOM     22  C   UNL     1      -4.478  -0.681 131.640  0.00  0.00    +0.000 C 
BRANCH  22  23
ATOM     23  C   UNL     1      -3.286  -1.352 132.305  0.00  0.00    +0.000 C 
BRANCH  23  24
ATOM     24  O   UNL     1      -2.715  -2.297 131.399  0.00  0.00    +0.000 OA
BRANCH  24  25
ATOM     25  C   UNL     1      -3.391  -2.274 130.143  0.00  0.00    +0.000 C 
BRANCH  25  26
ATOM     26  C   UNL     1      -3.826  -3.678 129.771  0.00  0.00    +0.000 C 
ATOM     27  F   UNL     1      -3.416  -3.950 128.503  0.00  0.00    +0.000 F 
ENDBRANCH  25  26
ENDBRANCH  24  25
ENDBRANCH  23  24
ENDBRANCH  22  23
ENDBRANCH  21  22
ENDBRANCH  20  21
ENDBRANCH  19  20
ENDBRANCH  18  19
ENDBRANCH   4  18
TORSDOF 12
ENDMDL
MODEL 7
REMARK VINA RESULT:      -6.1      6.900     10.437
REMARK  Name = Florbetapir (18F)
REMARK  13 active torsions:
REMARK  status: ('A' for Active; 'I' for Inactive)
REMARK    1  A    between atoms: N_2  and  C_3
REMARK    2  A    between atoms: N_2  and  C_48
REMARK    3  A    between atoms: C_8  and  C_9
REMARK    4  A    between atoms: C_11  and  C_13
REMARK    5  A    between atoms: C_17  and  O_18
REMARK    6  A    between atoms: O_18  and  C_19
REMARK    7  A    between atoms: C_19  and  C_22
REMARK    8  A    between atoms: C_22  and  O_25
REMARK    9  A    between atoms: O_25  and  C_26
REMARK   10  A    between atoms: C_26  and  C_29
REMARK   11  A    between atoms: C_29  and  O_32
REMARK   12  A    between atoms: O_32  and  C_33
REMARK   13  A    between atoms: C_33  and  C_36
REMARK                            x       y       z     vdW  Elec       q    Type
REMARK                         _______ _______ _______ _____ _____    ______ ____
ROOT
ATOM      1  C   UNL     1      -7.877  -3.053 128.558  0.00  0.00    +0.000 A 
ATOM      2  C   UNL     1      -8.782  -3.849 127.863  0.00  0.00    +0.000 A 
ATOM      3  N   UNL     1      -9.371  -3.495 126.693  0.00  0.00    +0.000 NA
ATOM      4  C   UNL     1      -9.045  -2.291 126.176  0.00  0.00    +0.000 A 
ATOM      5  C   UNL     1      -8.151  -1.433 126.801  0.00  0.00    +0.000 A 
ATOM      6  C   UNL     1      -7.557  -1.821 127.997  0.00  0.00    +0.000 A 
ENDROOT
BRANCH   1   8
ATOM      7  C   UNL     1      -6.035  -3.061 130.209  0.00  0.00    +0.000 C 
ATOM      8  C   UNL     1      -7.206  -3.537 129.765  0.00  0.00    +0.000 C 
BRANCH   7  12
ATOM      9  C   UNL     1      -3.706  -4.655 133.472  0.00  0.00    +0.000 A 
ATOM     10  C   UNL     1      -3.449  -3.391 132.930  0.00  0.00    +0.000 A 
ATOM     11  C   UNL     1      -4.245  -2.858 131.910  0.00  0.00    +0.000 A 
ATOM     12  C   UNL     1      -5.286  -3.608 131.356  0.00  0.00    +0.000 A 
ATOM     13  C   UNL     1      -5.533  -4.880 131.888  0.00  0.00    +0.000 A 
ATOM     14  C   UNL     1      -4.752  -5.398 132.927  0.00  0.00    +0.000 A 
BRANCH   9  16
ATOM     15  H   UNL     1      -3.430  -5.845 135.102  0.00  0.00    +0.000 HD
ATOM     16  N   UNL     1      -2.952  -5.148 134.538  0.00  0.00    +0.000 N 
ATOM     17  C   UNL     1      -2.213  -4.167 135.323  0.00  0.00    +0.000 C 
ENDBRANCH   9  16
ENDBRANCH   7  12
ENDBRANCH   1   8
BRANCH   4  18
ATOM     18  O   UNL     1      -9.670  -2.023 124.988  0.00  0.00    +0.000 OA
BRANCH  18  19
ATOM     19  C   UNL     1      -8.992  -2.470 123.816  0.00  0.00    +0.000 C 
BRANCH  19  20
ATOM     20  C   UNL     1      -8.952  -1.347 122.794  0.00  0.00    +0.000 C 
BRANCH  20  21
ATOM     21  O   UNL     1     -10.243  -0.739 122.711  0.00  0.00    +0.000 OA
BRANCH  21  22
ATOM     22  C   UNL     1     -10.124   0.669 122.516  0.00  0.00    +0.000 C 
BRANCH  22  23
ATOM     23  C   UNL     1     -10.150   1.379 123.861  0.00  0.00    +0.000 C 
BRANCH  23  24
ATOM     24  O   UNL     1      -9.148   2.396 123.874  0.00  0.00    +0.000 OA
BRANCH  24  25
ATOM     25  C   UNL     1      -8.743   2.731 122.547  0.00  0.00    +0.000 C 
BRANCH  25  26
ATOM     26  C   UNL     1      -7.264   3.064 122.533  0.00  0.00    +0.000 C 
ATOM     27  F   UNL     1      -6.633   2.330 123.488  0.00  0.00    +0.000 F 
ENDBRANCH  25  26
ENDBRANCH  24  25
ENDBRANCH  23  24
ENDBRANCH  22  23
ENDBRANCH  21  22
ENDBRANCH  20  21
ENDBRANCH  19  20
ENDBRANCH  18  19
ENDBRANCH   4  18
TORSDOF 12
ENDMDL
MODEL 8
REMARK VINA RESULT:      -6.0      6.062      7.934
REMARK  Name = Florbetapir (18F)
REMARK  13 active torsions:
REMARK  status: ('A' for Active; 'I' for Inactive)
REMARK    1  A    between atoms: N_2  and  C_3
REMARK    2  A    between atoms: N_2  and  C_48
REMARK    3  A    between atoms: C_8  and  C_9
REMARK    4  A    between atoms: C_11  and  C_13
REMARK    5  A    between atoms: C_17  and  O_18
REMARK    6  A    between atoms: O_18  and  C_19
REMARK    7  A    between atoms: C_19  and  C_22
REMARK    8  A    between atoms: C_22  and  O_25
REMARK    9  A    between atoms: O_25  and  C_26
REMARK   10  A    between atoms: C_26  and  C_29
REMARK   11  A    between atoms: C_29  and  O_32
REMARK   12  A    between atoms: O_32  and  C_33
REMARK   13  A    between atoms: C_33  and  C_36
REMARK                            x       y       z     vdW  Elec       q    Type
REMARK                         _______ _______ _______ _____ _____    ______ ____
ROOT
ATOM      1  C   UNL     1      -6.087   4.507 125.381  0.00  0.00    +0.000 A 
ATOM      2  C   UNL     1      -7.429   4.332 125.700  0.00  0.00    +0.000 A 
ATOM      3  N   UNL     1      -8.334   3.721 124.894  0.00  0.00    +0.000 NA
ATOM      4  C   UNL     1      -7.889   3.250 123.710  0.00  0.00    +0.000 A 
ATOM      5  C   UNL     1      -6.566   3.379 123.310  0.00  0.00    +0.000 A 
ATOM      6  C   UNL     1      -5.657   4.006 124.157  0.00  0.00    +0.000 A 
ENDROOT
BRANCH   1   8
ATOM      7  C   UNL     1      -4.433   4.370 127.216  0.00  0.00    +0.000 C 
ATOM      8  C   UNL     1      -5.145   5.090 126.338  0.00  0.00    +0.000 C 
BRANCH   7  12
ATOM      9  C   UNL     1      -2.031   6.069 130.370  0.00  0.00    +0.000 A 
ATOM     10  C   UNL     1      -2.826   4.938 130.577  0.00  0.00    +0.000 A 
ATOM     11  C   UNL     1      -3.558   4.359 129.534  0.00  0.00    +0.000 A 
ATOM     12  C   UNL     1      -3.566   4.942 128.263  0.00  0.00    +0.000 A 
ATOM     13  C   UNL     1      -2.781   6.084 128.060  0.00  0.00    +0.000 A 
ATOM     14  C   UNL     1      -2.028   6.643 129.099  0.00  0.00    +0.000 A 
BRANCH   9  16
ATOM     15  H   UNL     1      -0.525   5.968 131.739  0.00  0.00    +0.000 HD
ATOM     16  N   UNL     1      -1.247   6.596 131.398  0.00  0.00    +0.000 N 
ATOM     17  C   UNL     1      -1.953   7.305 132.458  0.00  0.00    +0.000 C 
ENDBRANCH   9  16
ENDBRANCH   7  12
ENDBRANCH   1   8
BRANCH   4  18
ATOM     18  O   UNL     1      -8.861   2.634 122.970  0.00  0.00    +0.000 OA
BRANCH  18  19
ATOM     19  C   UNL     1      -8.917   1.213 123.079  0.00  0.00    +0.000 C 
BRANCH  19  20
ATOM     20  C   UNL     1     -10.298   0.727 122.672  0.00  0.00    +0.000 C 
BRANCH  20  21
ATOM     21  O   UNL     1     -10.264  -0.691 122.493  0.00  0.00    +0.000 OA
BRANCH  21  22
ATOM     22  C   UNL     1      -8.962  -1.202 122.770  0.00  0.00    +0.000 C 
BRANCH  22  23
ATOM     23  C   UNL     1      -9.070  -2.429 123.662  0.00  0.00    +0.000 C 
BRANCH  23  24
ATOM     24  O   UNL     1      -7.997  -2.420 124.605  0.00  0.00    +0.000 OA
BRANCH  24  25
ATOM     25  C   UNL     1      -6.962  -3.319 124.209  0.00  0.00    +0.000 C 
BRANCH  25  26
ATOM     26  C   UNL     1      -5.611  -2.652 124.382  0.00  0.00    +0.000 C 
ATOM     27  F   UNL     1      -4.818  -2.971 123.325  0.00  0.00    +0.000 F 
ENDBRANCH  25  26
ENDBRANCH  24  25
ENDBRANCH  23  24
ENDBRANCH  22  23
ENDBRANCH  21  22
ENDBRANCH  20  21
ENDBRANCH  19  20
ENDBRANCH  18  19
ENDBRANCH   4  18
TORSDOF 12
ENDMDL
MODEL 9
REMARK VINA RESULT:      -6.0      8.178      9.473
REMARK  Name = Florbetapir (18F)
REMARK  13 active torsions:
REMARK  status: ('A' for Active; 'I' for Inactive)
REMARK    1  A    between atoms: N_2  and  C_3
REMARK    2  A    between atoms: N_2  and  C_48
REMARK    3  A    between atoms: C_8  and  C_9
REMARK    4  A    between atoms: C_11  and  C_13
REMARK    5  A    between atoms: C_17  and  O_18
REMARK    6  A    between atoms: O_18  and  C_19
REMARK    7  A    between atoms: C_19  and  C_22
REMARK    8  A    between atoms: C_22  and  O_25
REMARK    9  A    between atoms: O_25  and  C_26
REMARK   10  A    between atoms: C_26  and  C_29
REMARK   11  A    between atoms: C_29  and  O_32
REMARK   12  A    between atoms: O_32  and  C_33
REMARK   13  A    between atoms: C_33  and  C_36
REMARK                            x       y       z     vdW  Elec       q    Type
REMARK                         _______ _______ _______ _____ _____    ______ ____
ROOT
ATOM      1  C   UNL     1      -2.882   5.384 128.099  0.00  0.00    +0.000 A 
ATOM      2  C   UNL     1      -4.120   5.801 127.622  0.00  0.00    +0.000 A 
ATOM      3  N   UNL     1      -4.856   5.120 126.707  0.00  0.00    +0.000 NA
ATOM      4  C   UNL     1      -4.346   3.960 126.242  0.00  0.00    +0.000 A 
ATOM      5  C   UNL     1      -3.119   3.468 126.663  0.00  0.00    +0.000 A 
ATOM      6  C   UNL     1      -2.386   4.182 127.605  0.00  0.00    +0.000 A 
ENDROOT
BRANCH   1   8
ATOM      7  C   UNL     1      -2.628   6.204 130.419  0.00  0.00    +0.000 C 
ATOM      8  C   UNL     1      -2.186   6.117 129.157  0.00  0.00    +0.000 C 
BRANCH   7  12
ATOM      9  C   UNL     1      -0.797   8.480 133.594  0.00  0.00    +0.000 A 
ATOM     10  C   UNL     1      -0.142   7.405 132.984  0.00  0.00    +0.000 A 
ATOM     11  C   UNL     1      -0.720   6.708 131.917  0.00  0.00    +0.000 A 
ATOM     12  C   UNL     1      -2.006   7.029 131.472  0.00  0.00    +0.000 A 
ATOM     13  C   UNL     1      -2.667   8.095 132.093  0.00  0.00    +0.000 A 
ATOM     14  C   UNL     1      -2.074   8.808 133.142  0.00  0.00    +0.000 A 
BRANCH   9  16
ATOM     15  H   UNL     1      -0.639   9.141 135.514  0.00  0.00    +0.000 HD
ATOM     16  N   UNL     1      -0.183   9.215 134.609  0.00  0.00    +0.000 N 
ATOM     17  C   UNL     1       0.233  10.571 134.273  0.00  0.00    +0.000 C 
ENDBRANCH   9  16
ENDBRANCH   7  12
ENDBRANCH   1   8
BRANCH   4  18
ATOM     18  O   UNL     1      -5.161   3.332 125.339  0.00  0.00    +0.000 OA
BRANCH  18  19
ATOM     19  C   UNL     1      -6.368   2.788 125.867  0.00  0.00    +0.000 C 
BRANCH  19  20
ATOM     20  C   UNL     1      -7.558   3.523 125.274  0.00  0.00    +0.000 C 
BRANCH  20  21
ATOM     21  O   UNL     1      -7.237   3.946 123.947  0.00  0.00    +0.000 OA
BRANCH  21  22
ATOM     22  C   UNL     1      -7.465   2.892 123.014  0.00  0.00    +0.000 C 
BRANCH  22  23
ATOM     23  C   UNL     1      -6.487   3.011 121.855  0.00  0.00    +0.000 C 
BRANCH  23  24
ATOM     24  O   UNL     1      -5.967   4.340 121.814  0.00  0.00    +0.000 OA
BRANCH  24  25
ATOM     25  C   UNL     1      -4.939   4.457 120.832  0.00  0.00    +0.000 C 
BRANCH  25  26
ATOM     26  C   UNL     1      -5.374   5.423 119.748  0.00  0.00    +0.000 C 
ATOM     27  F   UNL     1      -6.375   4.857 119.022  0.00  0.00    +0.000 F 
ENDBRANCH  25  26
ENDBRANCH  24  25
ENDBRANCH  23  24
ENDBRANCH  22  23
ENDBRANCH  21  22
ENDBRANCH  20  21
ENDBRANCH  19  20
ENDBRANCH  18  19
ENDBRANCH   4  18
TORSDOF 12
ENDMDL
