MODEL 1
REMARK VINA RESULT:      -6.5      0.000      0.000
REMARK  Name = Florbetaben (18F)
REMARK  13 active torsions:
REMARK  status: ('A' for Active; 'I' for Inactive)
REMARK    1  A    between atoms: C_1  and  N_2
REMARK    2  A    between atoms: N_2  and  C_3
REMARK    3  A    between atoms: C_6  and  C_7
REMARK    4  A    between atoms: C_8  and  C_9
REMARK    5  A    between atoms: C_12  and  O_13
REMARK    6  A    between atoms: O_13  and  C_14
REMARK    7  A    between atoms: C_14  and  C_15
REMARK    8  A    between atoms: C_15  and  O_16
REMARK    9  A    between atoms: O_16  and  C_17
REMARK   10  A    between atoms: C_17  and  C_18
REMARK   11  A    between atoms: C_18  and  O_19
REMARK   12  A    between atoms: O_19  and  C_20
REMARK   13  A    between atoms: C_20  and  C_21
REMARK                            x       y       z     vdW  Elec       q    Type
REMARK                         _______ _______ _______ _____ _____    ______ ____
ROOT
ATOM      1  C   UNL     1      -8.235  -2.885 127.667  0.00  0.00    +0.000 A 
ATOM      2  C   UNL     1      -7.901  -1.545 127.446  0.00  0.00    +0.000 A 
ATOM      3  C   UNL     1      -8.335  -0.895 126.288  0.00  0.00    +0.000 A 
ATOM      4  C   UNL     1      -9.061  -1.589 125.318  0.00  0.00    +0.000 A 
ATOM      5  C   UNL     1      -9.418  -2.917 125.553  0.00  0.00    +0.000 A 
ATOM      6  C   UNL     1      -9.016  -3.557 126.726  0.00  0.00    +0.000 A 
ENDROOT
BRANCH   1   8
ATOM      7  C   UNL     1      -6.999  -2.973 129.813  0.00  0.00    +0.000 C 
ATOM      8  C   UNL     1      -7.850  -3.522 128.924  0.00  0.00    +0.000 C 
BRANCH   7  12
ATOM      9  C   UNL     1      -5.588  -4.765 133.471  0.00  0.00    +0.000 A 
ATOM     10  C   UNL     1      -6.553  -3.753 133.478  0.00  0.00    +0.000 A 
ATOM     11  C   UNL     1      -7.047  -3.209 132.284  0.00  0.00    +0.000 A 
ATOM     12  C   UNL     1      -6.549  -3.638 131.047  0.00  0.00    +0.000 A 
ATOM     13  C   UNL     1      -5.596  -4.660 131.046  0.00  0.00    +0.000 A 
ATOM     14  C   UNL     1      -5.115  -5.204 132.237  0.00  0.00    +0.000 A 
BRANCH   9  16
ATOM     15  C   UNL     1      -3.800  -4.922 135.170  0.00  0.00    +0.000 C 
ATOM     16  N   UNL     1      -5.112  -5.254 134.671  0.00  0.00    +0.000 N 
ATOM     17  H   UNL     1      -5.618  -6.023 135.095  0.00  0.00    +0.000 HD
ENDBRANCH   9  16
ENDBRANCH   7  12
ENDBRANCH   1   8
BRANCH   4  18
ATOM     18  O   UNL     1      -9.357  -0.883 124.183  0.00  0.00    +0.000 OA
BRANCH  18  19
ATOM     19  C   UNL     1      -9.354   0.541 124.315  0.00  0.00    +0.000 C 
BRANCH  19  20
ATOM     20  C   UNL     1     -10.077   1.154 123.125  0.00  0.00    +0.000 C 
BRANCH  20  21
ATOM     21  O   UNL     1      -9.341   2.281 122.646  0.00  0.00    +0.000 OA
BRANCH  21  22
ATOM     22  C   UNL     1      -8.113   2.422 123.359  0.00  0.00    +0.000 C 
BRANCH  22  23
ATOM     23  C   UNL     1      -7.157   3.298 122.562  0.00  0.00    +0.000 C 
BRANCH  23  24
ATOM     24  O   UNL     1      -7.738   3.595 121.292  0.00  0.00    +0.000 OA
BRANCH  24  25
ATOM     25  C   UNL     1      -6.729   3.832 120.312  0.00  0.00    +0.000 C 
BRANCH  25  26
ATOM     26  C   UNL     1      -5.450   4.280 120.993  0.00  0.00    +0.000 C 
ATOM     27  F   UNL     1      -4.470   3.372 120.741  0.00  0.00    +0.000 F 
ENDBRANCH  25  26
ENDBRANCH  24  25
ENDBRANCH  23  24
ENDBRANCH  22  23
ENDBRANCH  21  22
ENDBRANCH  20  21
ENDBRANCH  19  20
ENDBRANCH  18  19
ENDBRANCH   4  18
TORSDOF 12
ENDMDL
MODEL 2
REMARK VINA RESULT:      -6.5      7.340     10.472
REMARK  Name = Florbetaben (18F)
REMARK  13 active torsions:
REMARK  status: ('A' for Active; 'I' for Inactive)
REMARK    1  A    between atoms: C_1  and  N_2
REMARK    2  A    between atoms: N_2  and  C_3
REMARK    3  A    between atoms: C_6  and  C_7
REMARK    4  A    between atoms: C_8  and  C_9
REMARK    5  A    between atoms: C_12  and  O_13
REMARK    6  A    between atoms: O_13  and  C_14
REMARK    7  A    between atoms: C_14  and  C_15
REMARK    8  A    between atoms: C_15  and  O_16
REMARK    9  A    between atoms: O_16  and  C_17
REMARK   10  A    between atoms: C_17  and  C_18
REMARK   11  A    between atoms: C_18  and  O_19
REMARK   12  A    between atoms: O_19  and  C_20
REMARK   13  A    between atoms: C_20  and  C_21
REMARK                            x       y       z     vdW  Elec       q    Type
REMARK                         _______ _______ _______ _____ _____    ______ ____
ROOT
ATOM      1  C   UNL     1      -9.877   2.974 130.558  0.00  0.00    +0.000 A 
ATOM      2  C   UNL     1      -9.000   2.504 129.575  0.00  0.00    +0.000 A 
ATOM      3  C   UNL     1      -8.337   1.287 129.749  0.00  0.00    +0.000 A 
ATOM      4  C   UNL     1      -8.502   0.554 130.927  0.00  0.00    +0.000 A 
ATOM      5  C   UNL     1      -9.399   1.009 131.893  0.00  0.00    +0.000 A 
ATOM      6  C   UNL     1     -10.090   2.207 131.705  0.00  0.00    +0.000 A 
ENDROOT
BRANCH   1   8
ATOM      7  C   UNL     1     -10.084   5.335 129.836  0.00  0.00    +0.000 C 
ATOM      8  C   UNL     1     -10.630   4.203 130.320  0.00  0.00    +0.000 C 
BRANCH   7  12
ATOM      9  C   UNL     1     -12.381   8.938 129.267  0.00  0.00    +0.000 A 
ATOM     10  C   UNL     1     -12.646   8.061 130.324  0.00  0.00    +0.000 A 
ATOM     11  C   UNL     1     -11.864   6.918 130.536  0.00  0.00    +0.000 A 
ATOM     12  C   UNL     1     -10.818   6.599 129.661  0.00  0.00    +0.000 A 
ATOM     13  C   UNL     1     -10.548   7.486 128.615  0.00  0.00    +0.000 A 
ATOM     14  C   UNL     1     -11.324   8.629 128.416  0.00  0.00    +0.000 A 
BRANCH   9  16
ATOM     15  C   UNL     1     -13.424  11.008 130.125  0.00  0.00    +0.000 C 
ATOM     16  N   UNL     1     -13.193  10.039 129.082  0.00  0.00    +0.000 N 
ATOM     17  H   UNL     1     -13.796  10.041 128.267  0.00  0.00    +0.000 HD
ENDBRANCH   9  16
ENDBRANCH   7  12
ENDBRANCH   1   8
BRANCH   4  18
ATOM     18  O   UNL     1      -7.737  -0.576 131.032  0.00  0.00    +0.000 OA
BRANCH  18  19
ATOM     19  C   UNL     1      -6.498  -0.560 130.318  0.00  0.00    +0.000 C 
BRANCH  19  20
ATOM     20  C   UNL     1      -6.523  -1.643 129.249  0.00  0.00    +0.000 C 
BRANCH  20  21
ATOM     21  O   UNL     1      -7.413  -2.686 129.645  0.00  0.00    +0.000 OA
BRANCH  21  22
ATOM     22  C   UNL     1      -8.290  -3.037 128.574  0.00  0.00    +0.000 C 
BRANCH  22  23
ATOM     23  C   UNL     1      -7.937  -2.223 127.338  0.00  0.00    +0.000 C 
BRANCH  23  24
ATOM     24  O   UNL     1      -8.954  -2.400 126.352  0.00  0.00    +0.000 OA
BRANCH  24  25
ATOM     25  C   UNL     1      -8.639  -3.487 125.484  0.00  0.00    +0.000 C 
BRANCH  25  26
ATOM     26  C   UNL     1      -8.847  -3.068 124.042  0.00  0.00    +0.000 C 
ATOM     27  F   UNL     1      -9.915  -3.738 123.532  0.00  0.00    +0.000 F 
ENDBRANCH  25  26
ENDBRANCH  24  25
ENDBRANCH  23  24
ENDBRANCH  22  23
ENDBRANCH  21  22
ENDBRANCH  20  21
ENDBRANCH  19  20
ENDBRANCH  18  19
ENDBRANCH   4  18
TORSDOF 12
ENDMDL
MODEL 3
REMARK VINA RESULT:      -6.4      3.255      4.093
REMARK  Name = Florbetaben (18F)
REMARK  13 active torsions:
REMARK  status: ('A' for Active; 'I' for Inactive)
REMARK    1  A    between atoms: C_1  and  N_2
REMARK    2  A    between atoms: N_2  and  C_3
REMARK    3  A    between atoms: C_6  and  C_7
REMARK    4  A    between atoms: C_8  and  C_9
REMARK    5  A    between atoms: C_12  and  O_13
REMARK    6  A    between atoms: O_13  and  C_14
REMARK    7  A    between atoms: C_14  and  C_15
REMARK    8  A    between atoms: C_15  and  O_16
REMARK    9  A    between atoms: O_16  and  C_17
REMARK   10  A    between atoms: C_17  and  C_18
REMARK   11  A    between atoms: C_18  and  O_19
REMARK   12  A    between atoms: O_19  and  C_20
REMARK   13  A    between atoms: C_20  and  C_21
REMARK                            x       y       z     vdW  Elec       q    Type
REMARK                         _______ _______ _______ _____ _____    ______ ____
ROOT
ATOM      1  C   UNL     1      -7.513  -2.798 128.990  0.00  0.00    +0.000 A 
ATOM      2  C   UNL     1      -8.326  -3.831 128.512  0.00  0.00    +0.000 A 
ATOM      3  C   UNL     1      -8.984  -3.696 127.287  0.00  0.00    +0.000 A 
ATOM      4  C   UNL     1      -8.878  -2.512 126.554  0.00  0.00    +0.000 A 
ATOM      5  C   UNL     1      -8.043  -1.495 127.018  0.00  0.00    +0.000 A 
ATOM      6  C   UNL     1      -7.357  -1.642 128.224  0.00  0.00    +0.000 A 
ENDROOT
BRANCH   1   8
ATOM      7  C   UNL     1      -6.085  -4.119 130.526  0.00  0.00    +0.000 C 
ATOM      8  C   UNL     1      -6.761  -2.992 130.228  0.00  0.00    +0.000 C 
BRANCH   7  12
ATOM      9  C   UNL     1      -3.919  -4.914 134.167  0.00  0.00    +0.000 A 
ATOM     10  C   UNL     1      -3.371  -4.129 133.147  0.00  0.00    +0.000 A 
ATOM     11  C   UNL     1      -4.099  -3.830 131.987  0.00  0.00    +0.000 A 
ATOM     12  C   UNL     1      -5.385  -4.352 131.799  0.00  0.00    +0.000 A 
ATOM     13  C   UNL     1      -5.933  -5.123 132.828  0.00  0.00    +0.000 A 
ATOM     14  C   UNL     1      -5.207  -5.409 133.985  0.00  0.00    +0.000 A 
BRANCH   9  16
ATOM     15  C   UNL     1      -1.747  -5.499 135.191  0.00  0.00    +0.000 C 
ATOM     16  N   UNL     1      -3.157  -5.204 135.280  0.00  0.00    +0.000 N 
ATOM     17  H   UNL     1      -3.649  -5.417 136.140  0.00  0.00    +0.000 HD
ENDBRANCH   9  16
ENDBRANCH   7  12
ENDBRANCH   1   8
BRANCH   4  18
ATOM     18  O   UNL     1      -9.635  -2.451 125.415  0.00  0.00    +0.000 OA
BRANCH  18  19
ATOM     19  C   UNL     1      -9.317  -3.410 124.403  0.00  0.00    +0.000 C 
BRANCH  19  20
ATOM     20  C   UNL     1      -9.262  -2.711 123.052  0.00  0.00    +0.000 C 
BRANCH  20  21
ATOM     21  O   UNL     1      -8.438  -1.548 123.148  0.00  0.00    +0.000 OA
BRANCH  21  22
ATOM     22  C   UNL     1      -7.075  -1.871 122.875  0.00  0.00    +0.000 C 
BRANCH  22  23
ATOM     23  C   UNL     1      -6.180  -1.254 123.941  0.00  0.00    +0.000 C 
BRANCH  23  24
ATOM     24  O   UNL     1      -5.304  -2.256 124.457  0.00  0.00    +0.000 OA
BRANCH  24  25
ATOM     25  C   UNL     1      -5.689  -3.553 124.005  0.00  0.00    +0.000 C 
BRANCH  25  26
ATOM     26  C   UNL     1      -4.454  -4.400 123.769  0.00  0.00    +0.000 C 
ATOM     27  F   UNL     1      -3.467  -3.617 123.258  0.00  0.00    +0.000 F 
ENDBRANCH  25  26
ENDBRANCH  24  25
ENDBRANCH  23  24
ENDBRANCH  22  23
ENDBRANCH  21  22
ENDBRANCH  20  21
ENDBRANCH  19  20
ENDBRANCH  18  19
ENDBRANCH   4  18
TORSDOF 12
ENDMDL
MODEL 4
REMARK VINA RESULT:      -6.3      1.505      2.239
REMARK  Name = Florbetaben (18F)
REMARK  13 active torsions:
REMARK  status: ('A' for Active; 'I' for Inactive)
REMARK    1  A    between atoms: C_1  and  N_2
REMARK    2  A    between atoms: N_2  and  C_3
REMARK    3  A    between atoms: C_6  and  C_7
REMARK    4  A    between atoms: C_8  and  C_9
REMARK    5  A    between atoms: C_12  and  O_13
REMARK    6  A    between atoms: O_13  and  C_14
REMARK    7  A    between atoms: C_14  and  C_15
REMARK    8  A    between atoms: C_15  and  O_16
REMARK    9  A    between atoms: O_16  and  C_17
REMARK   10  A    between atoms: C_17  and  C_18
REMARK   11  A    between atoms: C_18  and  O_19
REMARK   12  A    between atoms: O_19  and  C_20
REMARK   13  A    between atoms: C_20  and  C_21
REMARK                            x       y       z     vdW  Elec       q    Type
REMARK                         _______ _______ _______ _____ _____    ______ ____
ROOT
ATOM      1  C   UNL     1      -7.789  -2.949 128.648  0.00  0.00    +0.000 A 
ATOM      2  C   UNL     1      -8.744  -3.849 128.163  0.00  0.00    +0.000 A 
ATOM      3  C   UNL     1      -9.340  -3.637 126.918  0.00  0.00    +0.000 A 
ATOM      4  C   UNL     1      -9.028  -2.501 126.169  0.00  0.00    +0.000 A 
ATOM      5  C   UNL     1      -8.054  -1.620 126.640  0.00  0.00    +0.000 A 
ATOM      6  C   UNL     1      -7.431  -1.849 127.867  0.00  0.00    +0.000 A 
ENDROOT
BRANCH   1   8
ATOM      7  C   UNL     1      -5.812  -3.586 130.000  0.00  0.00    +0.000 C 
ATOM      8  C   UNL     1      -7.110  -3.233 129.910  0.00  0.00    +0.000 C 
BRANCH   7  12
ATOM      9  C   UNL     1      -3.680  -4.662 133.588  0.00  0.00    +0.000 A 
ATOM     10  C   UNL     1      -3.454  -3.442 132.941  0.00  0.00    +0.000 A 
ATOM     11  C   UNL     1      -4.186  -3.074 131.804  0.00  0.00    +0.000 A 
ATOM     12  C   UNL     1      -5.138  -3.945 131.258  0.00  0.00    +0.000 A 
ATOM     13  C   UNL     1      -5.370  -5.155 131.916  0.00  0.00    +0.000 A 
ATOM     14  C   UNL     1      -4.645  -5.512 133.054  0.00  0.00    +0.000 A 
BRANCH   9  16
ATOM     15  C   UNL     1      -1.730  -4.260 135.052  0.00  0.00    +0.000 C 
ATOM     16  N   UNL     1      -2.918  -4.994 134.690  0.00  0.00    +0.000 N 
ATOM     17  H   UNL     1      -3.087  -5.896 135.119  0.00  0.00    +0.000 HD
ENDBRANCH   9  16
ENDBRANCH   7  12
ENDBRANCH   1   8
BRANCH   4  18
ATOM     18  O   UNL     1      -9.736  -2.345 125.007  0.00  0.00    +0.000 OA
BRANCH  18  19
ATOM     19  C   UNL     1      -9.045  -2.693 123.804  0.00  0.00    +0.000 C 
BRANCH  19  20
ATOM     20  C   UNL     1      -8.998  -1.479 122.887  0.00  0.00    +0.000 C 
BRANCH  20  21
ATOM     21  O   UNL     1      -9.768  -0.419 123.455  0.00  0.00    +0.000 OA
BRANCH  21  22
ATOM     22  C   UNL     1      -9.139   0.842 123.226  0.00  0.00    +0.000 C 
BRANCH  22  23
ATOM     23  C   UNL     1      -7.730   0.823 123.801  0.00  0.00    +0.000 C 
BRANCH  23  24
ATOM     24  O   UNL     1      -6.840   1.465 122.889  0.00  0.00    +0.000 OA
BRANCH  24  25
ATOM     25  C   UNL     1      -6.974   2.884 122.959  0.00  0.00    +0.000 C 
BRANCH  25  26
ATOM     26  C   UNL     1      -6.346   3.519 121.734  0.00  0.00    +0.000 C 
ATOM     27  F   UNL     1      -5.614   2.583 121.072  0.00  0.00    +0.000 F 
ENDBRANCH  25  26
ENDBRANCH  24  25
ENDBRANCH  23  24
ENDBRANCH  22  23
ENDBRANCH  21  22
ENDBRANCH  20  21
ENDBRANCH  19  20
ENDBRANCH  18  19
ENDBRANCH   4  18
TORSDOF 12
ENDMDL
MODEL 5
REMARK VINA RESULT:      -6.1      7.988     11.151
REMARK  Name = Florbetaben (18F)
REMARK  13 active torsions:
REMARK  status: ('A' for Active; 'I' for Inactive)
REMARK    1  A    between atoms: C_1  and  N_2
REMARK    2  A    between atoms: N_2  and  C_3
REMARK    3  A    between atoms: C_6  and  C_7
REMARK    4  A    between atoms: C_8  and  C_9
REMARK    5  A    between atoms: C_12  and  O_13
REMARK    6  A    between atoms: O_13  and  C_14
REMARK    7  A    between atoms: C_14  and  C_15
REMARK    8  A    between atoms: C_15  and  O_16
REMARK    9  A    between atoms: O_16  and  C_17
REMARK   10  A    between atoms: C_17  and  C_18
REMARK   11  A    between atoms: C_18  and  O_19
REMARK   12  A    between atoms: O_19  and  C_20
REMARK   13  A    between atoms: C_20  and  C_21
REMARK                            x       y       z     vdW  Elec       q    Type
REMARK                         _______ _______ _______ _____ _____    ______ ____
ROOT
ATOM      1  C   UNL     1      -9.467   4.089 131.936  0.00  0.00    +0.000 A 
ATOM      2  C   UNL     1      -9.718   2.964 131.143  0.00  0.00    +0.000 A 
ATOM      3  C   UNL     1      -9.184   1.723 131.497  0.00  0.00    +0.000 A 
ATOM      4  C   UNL     1      -8.353   1.604 132.614  0.00  0.00    +0.000 A 
ATOM      5  C   UNL     1      -8.128   2.720 133.419  0.00  0.00    +0.000 A 
ATOM      6  C   UNL     1      -8.690   3.953 133.087  0.00  0.00    +0.000 A 
ENDROOT
BRANCH   1   8
ATOM      7  C   UNL     1     -10.856   5.554 130.498  0.00  0.00    +0.000 C 
ATOM      8  C   UNL     1     -10.108   5.359 131.602  0.00  0.00    +0.000 C 
BRANCH   7  12
ATOM      9  C   UNL     1     -12.741   9.255 129.344  0.00  0.00    +0.000 A 
ATOM     10  C   UNL     1     -13.057   8.618 130.549  0.00  0.00    +0.000 A 
ATOM     11  C   UNL     1     -12.404   7.442 130.944  0.00  0.00    +0.000 A 
ATOM     12  C   UNL     1     -11.445   6.848 130.115  0.00  0.00    +0.000 A 
ATOM     13  C   UNL     1     -11.123   7.496 128.920  0.00  0.00    +0.000 A 
ATOM     14  C   UNL     1     -11.769   8.672 128.536  0.00  0.00    +0.000 A 
BRANCH   9  16
ATOM     15  C   UNL     1     -13.686  11.466 129.917  0.00  0.00    +0.000 C 
ATOM     16  N   UNL     1     -13.427  10.397 128.983  0.00  0.00    +0.000 N 
ATOM     17  H   UNL     1     -13.933  10.379 128.106  0.00  0.00    +0.000 HD
ENDBRANCH   9  16
ENDBRANCH   7  12
ENDBRANCH   1   8
BRANCH   4  18
ATOM     18  O   UNL     1      -7.811   0.363 132.817  0.00  0.00    +0.000 OA
BRANCH  18  19
ATOM     19  C   UNL     1      -8.439  -0.715 132.119  0.00  0.00    +0.000 C 
BRANCH  19  20
ATOM     20  C   UNL     1      -7.390  -1.466 131.311  0.00  0.00    +0.000 C 
BRANCH  20  21
ATOM     21  O   UNL     1      -8.020  -2.159 130.234  0.00  0.00    +0.000 OA
BRANCH  21  22
ATOM     22  C   UNL     1      -7.073  -2.475 129.213  0.00  0.00    +0.000 C 
BRANCH  22  23
ATOM     23  C   UNL     1      -7.727  -2.329 127.847  0.00  0.00    +0.000 C 
BRANCH  23  24
ATOM     24  O   UNL     1      -6.712  -2.200 126.851  0.00  0.00    +0.000 OA
BRANCH  24  25
ATOM     25  C   UNL     1      -7.214  -2.553 125.563  0.00  0.00    +0.000 C 
BRANCH  25  26
ATOM     26  C   UNL     1      -8.388  -3.501 125.713  0.00  0.00    +0.000 C 
ATOM     27  F   UNL     1      -8.495  -4.259 124.590  0.00  0.00    +0.000 F 
ENDBRANCH  25  26
ENDBRANCH  24  25
ENDBRANCH  23  24
ENDBRANCH  22  23
ENDBRANCH  21  22
ENDBRANCH  20  21
ENDBRANCH  19  20
ENDBRANCH  18  19
ENDBRANCH   4  18
TORSDOF 12
ENDMDL
MODEL 6
REMARK VINA RESULT:      -6.1      1.419      2.266
REMARK  Name = Florbetaben (18F)
REMARK  13 active torsions:
REMARK  status: ('A' for Active; 'I' for Inactive)
REMARK    1  A    between atoms: C_1  and  N_2
REMARK    2  A    between atoms: N_2  and  C_3
REMARK    3  A    between atoms: C_6  and  C_7
REMARK    4  A    between atoms: C_8  and  C_9
REMARK    5  A    between atoms: C_12  and  O_13
REMARK    6  A    between atoms: O_13  and  C_14
REMARK    7  A    between atoms: C_14  and  C_15
REMARK    8  A    between atoms: C_15  and  O_16
REMARK    9  A    between atoms: O_16  and  C_17
REMARK   10  A    between atoms: C_17  and  C_18
REMARK   11  A    between atoms: C_18  and  O_19
REMARK   12  A    between atoms: O_19  and  C_20
REMARK   13  A    between atoms: C_20  and  C_21
REMARK                            x       y       z     vdW  Elec       q    Type
REMARK                         _______ _______ _______ _____ _____    ______ ____
ROOT
ATOM      1  C   UNL     1      -7.750  -2.942 127.724  0.00  0.00    +0.000 A 
ATOM      2  C   UNL     1      -8.949  -3.372 127.146  0.00  0.00    +0.000 A 
ATOM      3  C   UNL     1      -9.100  -3.370 125.758  0.00  0.00    +0.000 A 
ATOM      4  C   UNL     1      -8.077  -2.890 124.936  0.00  0.00    +0.000 A 
ATOM      5  C   UNL     1      -6.872  -2.489 125.512  0.00  0.00    +0.000 A 
ATOM      6  C   UNL     1      -6.706  -2.525 126.897  0.00  0.00    +0.000 A 
ENDROOT
BRANCH   1   8
ATOM      7  C   UNL     1      -6.554  -3.686 129.763  0.00  0.00    +0.000 C 
ATOM      8  C   UNL     1      -7.576  -3.037 129.171  0.00  0.00    +0.000 C 
BRANCH   7  12
ATOM      9  C   UNL     1      -6.211  -4.329 134.011  0.00  0.00    +0.000 A 
ATOM     10  C   UNL     1      -5.430  -5.045 133.098  0.00  0.00    +0.000 A 
ATOM     11  C   UNL     1      -5.507  -4.796 131.721  0.00  0.00    +0.000 A 
ATOM     12  C   UNL     1      -6.408  -3.849 131.218  0.00  0.00    +0.000 A 
ATOM     13  C   UNL     1      -7.176  -3.127 132.136  0.00  0.00    +0.000 A 
ATOM     14  C   UNL     1      -7.087  -3.372 133.507  0.00  0.00    +0.000 A 
BRANCH   9  16
ATOM     15  C   UNL     1      -7.279  -4.660 136.215  0.00  0.00    +0.000 C 
ATOM     16  N   UNL     1      -6.120  -4.625 135.356  0.00  0.00    +0.000 N 
ATOM     17  H   UNL     1      -5.198  -4.608 135.776  0.00  0.00    +0.000 HD
ENDBRANCH   9  16
ENDBRANCH   7  12
ENDBRANCH   1   8
BRANCH   4  18
ATOM     18  O   UNL     1      -8.365  -2.847 123.598  0.00  0.00    +0.000 OA
BRANCH  18  19
ATOM     19  C   UNL     1      -7.836  -1.729 122.882  0.00  0.00    +0.000 C 
BRANCH  19  20
ATOM     20  C   UNL     1      -8.413  -0.446 123.463  0.00  0.00    +0.000 C 
BRANCH  20  21
ATOM     21  O   UNL     1      -9.723  -0.229 122.938  0.00  0.00    +0.000 OA
BRANCH  21  22
ATOM     22  C   UNL     1      -9.986   1.166 122.793  0.00  0.00    +0.000 C 
BRANCH  22  23
ATOM     23  C   UNL     1      -9.517   1.907 124.037  0.00  0.00    +0.000 C 
BRANCH  23  24
ATOM     24  O   UNL     1      -8.890   3.129 123.650  0.00  0.00    +0.000 OA
BRANCH  24  25
ATOM     25  C   UNL     1      -8.225   2.985 122.395  0.00  0.00    +0.000 C 
BRANCH  25  26
ATOM     26  C   UNL     1      -6.730   3.149 122.586  0.00  0.00    +0.000 C 
ATOM     27  F   UNL     1      -6.082   2.597 121.526  0.00  0.00    +0.000 F 
ENDBRANCH  25  26
ENDBRANCH  24  25
ENDBRANCH  23  24
ENDBRANCH  22  23
ENDBRANCH  21  22
ENDBRANCH  20  21
ENDBRANCH  19  20
ENDBRANCH  18  19
ENDBRANCH   4  18
TORSDOF 12
ENDMDL
MODEL 7
REMARK VINA RESULT:      -6.0     11.752     13.439
REMARK  Name = Florbetaben (18F)
REMARK  13 active torsions:
REMARK  status: ('A' for Active; 'I' for Inactive)
REMARK    1  A    between atoms: C_1  and  N_2
REMARK    2  A    between atoms: N_2  and  C_3
REMARK    3  A    between atoms: C_6  and  C_7
REMARK    4  A    between atoms: C_8  and  C_9
REMARK    5  A    between atoms: C_12  and  O_13
REMARK    6  A    between atoms: O_13  and  C_14
REMARK    7  A    between atoms: C_14  and  C_15
REMARK    8  A    between atoms: C_15  and  O_16
REMARK    9  A    between atoms: O_16  and  C_17
REMARK   10  A    between atoms: C_17  and  C_18
REMARK   11  A    between atoms: C_18  and  O_19
REMARK   12  A    between atoms: O_19  and  C_20
REMARK   13  A    between atoms: C_20  and  C_21
REMARK                            x       y       z     vdW  Elec       q    Type
REMARK                         _______ _______ _______ _____ _____    ______ ____
ROOT
ATOM      1  C   UNL     1      -5.546   6.658 131.612  0.00  0.00    +0.000 A 
ATOM      2  C   UNL     1      -4.445   6.938 130.795  0.00  0.00    +0.000 A 
ATOM      3  C   UNL     1      -3.161   6.561 131.195  0.00  0.00    +0.000 A 
ATOM      4  C   UNL     1      -2.957   5.950 132.434  0.00  0.00    +0.000 A 
ATOM      5  C   UNL     1      -4.058   5.646 133.234  0.00  0.00    +0.000 A 
ATOM      6  C   UNL     1      -5.346   5.989 132.821  0.00  0.00    +0.000 A 
ENDROOT
BRANCH   1   8
ATOM      7  C   UNL     1      -8.014   6.438 131.653  0.00  0.00    +0.000 C 
ATOM      8  C   UNL     1      -6.891   6.977 131.139  0.00  0.00    +0.000 C 
BRANCH   7  12
ATOM      9  C   UNL     1     -11.995   7.014 130.103  0.00  0.00    +0.000 A 
ATOM     10  C   UNL     1     -11.773   6.381 131.330  0.00  0.00    +0.000 A 
ATOM     11  C   UNL     1     -10.480   6.242 131.855  0.00  0.00    +0.000 A 
ATOM     12  C   UNL     1      -9.367   6.696 131.136  0.00  0.00    +0.000 A 
ATOM     13  C   UNL     1      -9.596   7.340 129.917  0.00  0.00    +0.000 A 
ATOM     14  C   UNL     1     -10.886   7.485 129.404  0.00  0.00    +0.000 A 
BRANCH   9  16
ATOM     15  C   UNL     1     -13.558   7.436 128.235  0.00  0.00    +0.000 C 
ATOM     16  N   UNL     1     -13.281   7.106 129.613  0.00  0.00    +0.000 N 
ATOM     17  H   UNL     1     -14.036   7.148 130.288  0.00  0.00    +0.000 HD
ENDBRANCH   9  16
ENDBRANCH   7  12
ENDBRANCH   1   8
BRANCH   4  18
ATOM     18  O   UNL     1      -1.651   5.706 132.765  0.00  0.00    +0.000 OA
BRANCH  18  19
ATOM     19  C   UNL     1      -1.085   6.573 133.751  0.00  0.00    +0.000 C 
BRANCH  19  20
ATOM     20  C   UNL     1      -0.057   7.479 133.089  0.00  0.00    +0.000 C 
BRANCH  20  21
ATOM     21  O   UNL     1      -0.543   8.822 133.072  0.00  0.00    +0.000 OA
BRANCH  21  22
ATOM     22  C   UNL     1       0.236   9.653 133.932  0.00  0.00    +0.000 C 
BRANCH  22  23
ATOM     23  C   UNL     1       0.918  10.739 133.112  0.00  0.00    +0.000 C 
BRANCH  23  24
ATOM     24  O   UNL     1       0.315  11.999 133.406  0.00  0.00    +0.000 OA
BRANCH  24  25
ATOM     25  C   UNL     1       0.480  12.910 132.320  0.00  0.00    +0.000 C 
BRANCH  25  26
ATOM     26  C   UNL     1      -0.877  13.300 131.768  0.00  0.00    +0.000 C 
ATOM     27  F   UNL     1      -1.277  12.365 130.865  0.00  0.00    +0.000 F 
ENDBRANCH  25  26
ENDBRANCH  24  25
ENDBRANCH  23  24
ENDBRANCH  22  23
ENDBRANCH  21  22
ENDBRANCH  20  21
ENDBRANCH  19  20
ENDBRANCH  18  19
ENDBRANCH   4  18
TORSDOF 12
ENDMDL
MODEL 8
REMARK VINA RESULT:      -6.0      2.445      3.106
REMARK  Name = Florbetaben (18F)
REMARK  13 active torsions:
REMARK  status: ('A' for Active; 'I' for Inactive)
REMARK    1  A    between atoms: C_1  and  N_2
REMARK    2  A    between atoms: N_2  and  C_3
REMARK    3  A    between atoms: C_6  and  C_7
REMARK    4  A    between atoms: C_8  and  C_9
REMARK    5  A    between atoms: C_12  and  O_13
REMARK    6  A    between atoms: O_13  and  C_14
REMARK    7  A    between atoms: C_14  and  C_15
REMARK    8  A    between atoms: C_15  and  O_16
REMARK    9  A    between atoms: O_16  and  C_17
REMARK   10  A    between atoms: C_17  and  C_18
REMARK   11  A    between atoms: C_18  and  O_19
REMARK   12  A    between atoms: O_19  and  C_20
REMARK   13  A    between atoms: C_20  and  C_21
REMARK                            x       y       z     vdW  Elec       q    Type
REMARK                         _______ _______ _______ _____ _____    ______ ____
ROOT
ATOM      1  C   UNL     1      -8.158  -2.918 127.863  0.00  0.00    +0.000 A 
ATOM      2  C   UNL     1      -7.775  -1.592 127.633  0.00  0.00    +0.000 A 
ATOM      3  C   UNL     1      -8.241  -0.912 126.506  0.00  0.00    +0.000 A 
ATOM      4  C   UNL     1      -9.049  -1.563 125.571  0.00  0.00    +0.000 A 
ATOM      5  C   UNL     1      -9.454  -2.876 125.817  0.00  0.00    +0.000 A 
ATOM      6  C   UNL     1      -9.019  -3.545 126.961  0.00  0.00    +0.000 A 
ENDROOT
BRANCH   1   8
ATOM      7  C   UNL     1      -7.046  -2.975 130.077  0.00  0.00    +0.000 C 
ATOM      8  C   UNL     1      -7.735  -3.585 129.092  0.00  0.00    +0.000 C 
BRANCH   7  12
ATOM      9  C   UNL     1      -5.510  -4.812 133.661  0.00  0.00    +0.000 A 
ATOM     10  C   UNL     1      -6.481  -3.807 133.713  0.00  0.00    +0.000 A 
ATOM     11  C   UNL     1      -7.016  -3.249 132.544  0.00  0.00    +0.000 A 
ATOM     12  C   UNL     1      -6.553  -3.655 131.286  0.00  0.00    +0.000 A 
ATOM     13  C   UNL     1      -5.593  -4.669 131.239  0.00  0.00    +0.000 A 
ATOM     14  C   UNL     1      -5.072  -5.228 132.407  0.00  0.00    +0.000 A 
BRANCH   9  16
ATOM     15  C   UNL     1      -4.356  -4.472 135.820  0.00  0.00    +0.000 C 
ATOM     16  N   UNL     1      -4.993  -5.315 134.838  0.00  0.00    +0.000 N 
ATOM     17  H   UNL     1      -4.878  -6.320 134.905  0.00  0.00    +0.000 HD
ENDBRANCH   9  16
ENDBRANCH   7  12
ENDBRANCH   1   8
BRANCH   4  18
ATOM     18  O   UNL     1      -9.374  -0.833 124.460  0.00  0.00    +0.000 OA
BRANCH  18  19
ATOM     19  C   UNL     1      -8.289  -0.511 123.586  0.00  0.00    +0.000 C 
BRANCH  19  20
ATOM     20  C   UNL     1      -8.361   0.965 123.222  0.00  0.00    +0.000 C 
BRANCH  20  21
ATOM     21  O   UNL     1      -7.822   1.747 124.288  0.00  0.00    +0.000 OA
BRANCH  21  22
ATOM     22  C   UNL     1      -8.799   2.658 124.792  0.00  0.00    +0.000 C 
BRANCH  22  23
ATOM     23  C   UNL     1      -8.107   3.886 125.364  0.00  0.00    +0.000 C 
BRANCH  23  24
ATOM     24  O   UNL     1      -8.316   3.931 126.775  0.00  0.00    +0.000 OA
BRANCH  24  25
ATOM     25  C   UNL     1      -7.294   3.214 127.465  0.00  0.00    +0.000 C 
BRANCH  25  26
ATOM     26  C   UNL     1      -7.918   2.325 128.524  0.00  0.00    +0.000 C 
ATOM     27  F   UNL     1      -9.097   1.834 128.056  0.00  0.00    +0.000 F 
ENDBRANCH  25  26
ENDBRANCH  24  25
ENDBRANCH  23  24
ENDBRANCH  22  23
ENDBRANCH  21  22
ENDBRANCH  20  21
ENDBRANCH  19  20
ENDBRANCH  18  19
ENDBRANCH   4  18
TORSDOF 12
ENDMDL
MODEL 9
REMARK VINA RESULT:      -6.0      8.577     12.279
REMARK  Name = Florbetaben (18F)
REMARK  13 active torsions:
REMARK  status: ('A' for Active; 'I' for Inactive)
REMARK    1  A    between atoms: C_1  and  N_2
REMARK    2  A    between atoms: N_2  and  C_3
REMARK    3  A    between atoms: C_6  and  C_7
REMARK    4  A    between atoms: C_8  and  C_9
REMARK    5  A    between atoms: C_12  and  O_13
REMARK    6  A    between atoms: O_13  and  C_14
REMARK    7  A    between atoms: C_14  and  C_15
REMARK    8  A    between atoms: C_15  and  O_16
REMARK    9  A    between atoms: O_16  and  C_17
REMARK   10  A    between atoms: C_17  and  C_18
REMARK   11  A    between atoms: C_18  and  O_19
REMARK   12  A    between atoms: O_19  and  C_20
REMARK   13  A    between atoms: C_20  and  C_21
REMARK                            x       y       z     vdW  Elec       q    Type
REMARK                         _______ _______ _______ _____ _____    ______ ____
ROOT
ATOM      1  C   UNL     1      -9.401   4.537 132.469  0.00  0.00    +0.000 A 
ATOM      2  C   UNL     1      -9.516   3.300 131.826  0.00  0.00    +0.000 A 
ATOM      3  C   UNL     1      -8.801   2.195 132.297  0.00  0.00    +0.000 A 
ATOM      4  C   UNL     1      -7.928   2.327 133.378  0.00  0.00    +0.000 A 
ATOM      5  C   UNL     1      -7.837   3.554 134.036  0.00  0.00    +0.000 A 
ATOM      6  C   UNL     1      -8.577   4.649 133.590  0.00  0.00    +0.000 A 
ENDROOT
BRANCH   1   8
ATOM      7  C   UNL     1     -10.661   5.807 130.754  0.00  0.00    +0.000 C 
ATOM      8  C   UNL     1     -10.224   5.658 132.020  0.00  0.00    +0.000 C 
BRANCH   7  12
ATOM      9  C   UNL     1     -12.758   9.313 129.380  0.00  0.00    +0.000 A 
ATOM     10  C   UNL     1     -11.748   8.720 128.616  0.00  0.00    +0.000 A 
ATOM     11  C   UNL     1     -11.103   7.550 129.043  0.00  0.00    +0.000 A 
ATOM     12  C   UNL     1     -11.428   6.968 130.275  0.00  0.00    +0.000 A 
ATOM     13  C   UNL     1     -12.449   7.556 131.026  0.00  0.00    +0.000 A 
ATOM     14  C   UNL     1     -13.093   8.715 130.591  0.00  0.00    +0.000 A 
BRANCH   9  16
ATOM     15  C   UNL     1     -13.766  11.523 129.836  0.00  0.00    +0.000 C 
ATOM     16  N   UNL     1     -13.348  10.478 128.933  0.00  0.00    +0.000 N 
ATOM     17  H   UNL     1     -13.678  10.497 127.975  0.00  0.00    +0.000 HD
ENDBRANCH   9  16
ENDBRANCH   7  12
ENDBRANCH   1   8
BRANCH   4  18
ATOM     18  O   UNL     1      -7.210   1.206 133.699  0.00  0.00    +0.000 OA
BRANCH  18  19
ATOM     19  C   UNL     1      -7.168   0.185 132.699  0.00  0.00    +0.000 C 
BRANCH  19  20
ATOM     20  C   UNL     1      -6.579  -1.082 133.303  0.00  0.00    +0.000 C 
BRANCH  20  21
ATOM     21  O   UNL     1      -7.422  -2.194 133.000  0.00  0.00    +0.000 OA
BRANCH  21  22
ATOM     22  C   UNL     1      -6.918  -2.920 131.879  0.00  0.00    +0.000 C 
BRANCH  22  23
ATOM     23  C   UNL     1      -5.953  -3.994 132.357  0.00  0.00    +0.000 C 
BRANCH  23  24
ATOM     24  O   UNL     1      -5.064  -4.336 131.294  0.00  0.00    +0.000 OA
BRANCH  24  25
ATOM     25  C   UNL     1      -3.886  -3.531 131.335  0.00  0.00    +0.000 C 
BRANCH  25  26
ATOM     26  C   UNL     1      -3.549  -3.046 129.938  0.00  0.00    +0.000 C 
ATOM     27  F   UNL     1      -4.208  -3.813 129.029  0.00  0.00    +0.000 F 
ENDBRANCH  25  26
ENDBRANCH  24  25
ENDBRANCH  23  24
ENDBRANCH  22  23
ENDBRANCH  21  22
ENDBRANCH  20  21
ENDBRANCH  19  20
ENDBRANCH  18  19
ENDBRANCH   4  18
TORSDOF 12
ENDMDL
