MODEL 1
REMARK VINA RESULT:      -6.6      0.000      0.000
REMARK  Name = Flosequinan
REMARK  3 active torsions:
REMARK  status: ('A' for Active; 'I' for Inactive)
REMARK    1  A    between atoms: C_1  and  N_2
REMARK    2  A    between atoms: C_4  and  S_14
REMARK    3  A    between atoms: S_14  and  C_15
REMARK                            x       y       z     vdW  Elec       q    Type
REMARK                         _______ _______ _______ _____ _____    ______ ____
ROOT
ATOM      1  C   UNL     1      -3.999   4.936 122.121  0.00  0.00    +0.000 C 
ATOM      2  N   UNL     1      -5.328   4.319 122.093  0.00  0.00    +0.000 N 
ATOM      3  C   UNL     1      -5.941   3.824 123.237  0.00  0.00    +0.000 A 
ATOM      4  C   UNL     1      -7.166   3.283 123.306  0.00  0.00    +0.000 A 
ATOM      5  C   UNL     1      -7.967   3.244 122.064  0.00  0.00    +0.000 A 
ATOM      6  O   UNL     1      -9.115   2.797 122.042  0.00  0.00    +0.000 OA
ATOM      7  C   UNL     1      -7.367   3.830 120.844  0.00  0.00    +0.000 A 
ATOM      8  C   UNL     1      -6.054   4.349 120.883  0.00  0.00    +0.000 A 
ATOM      9  C   UNL     1      -5.551   4.899 119.697  0.00  0.00    +0.000 A 
ATOM     10  C   UNL     1      -6.392   5.100 118.604  0.00  0.00    +0.000 A 
ATOM     11  F   UNL     1      -5.908   5.694 117.507  0.00  0.00    +0.000 F 
ATOM     12  C   UNL     1      -7.715   4.689 118.627  0.00  0.00    +0.000 A 
ATOM     13  C   UNL     1      -8.167   3.936 119.700  0.00  0.00    +0.000 A 
ENDROOT
BRANCH   4  14
ATOM     14  S   UNL     1      -7.865   2.764 124.850  0.00  0.00    +0.000 S 
ATOM     15  C   UNL     1      -6.436   3.018 125.931  0.00  0.00    +0.000 C 
ATOM     16  O   UNL     1      -8.915   3.770 125.222  0.00  0.00    +0.000 OA
ENDBRANCH   4  14
TORSDOF 1
ENDMDL
MODEL 2
REMARK VINA RESULT:      -6.0      8.395      9.529
REMARK  Name = Flosequinan
REMARK  3 active torsions:
REMARK  status: ('A' for Active; 'I' for Inactive)
REMARK    1  A    between atoms: C_1  and  N_2
REMARK    2  A    between atoms: C_4  and  S_14
REMARK    3  A    between atoms: S_14  and  C_15
REMARK                            x       y       z     vdW  Elec       q    Type
REMARK                         _______ _______ _______ _____ _____    ______ ____
ROOT
ATOM      1  C   UNL     1     -11.623   6.474 132.226  0.00  0.00    +0.000 C 
ATOM      2  N   UNL     1     -10.841   6.252 131.006  0.00  0.00    +0.000 N 
ATOM      3  C   UNL     1      -9.974   5.177 130.866  0.00  0.00    +0.000 A 
ATOM      4  C   UNL     1      -9.255   4.878 129.773  0.00  0.00    +0.000 A 
ATOM      5  C   UNL     1      -9.425   5.743 128.586  0.00  0.00    +0.000 A 
ATOM      6  O   UNL     1      -8.832   5.523 127.529  0.00  0.00    +0.000 OA
ATOM      7  C   UNL     1     -10.398   6.854 128.683  0.00  0.00    +0.000 A 
ATOM      8  C   UNL     1     -11.081   7.090 129.896  0.00  0.00    +0.000 A 
ATOM      9  C   UNL     1     -11.995   8.151 129.916  0.00  0.00    +0.000 A 
ATOM     10  C   UNL     1     -12.350   8.796 128.733  0.00  0.00    +0.000 A 
ATOM     11  F   UNL     1     -13.279   9.757 128.764  0.00  0.00    +0.000 F 
ATOM     12  C   UNL     1     -11.751   8.468 127.526  0.00  0.00    +0.000 A 
ATOM     13  C   UNL     1     -10.681   7.587 127.524  0.00  0.00    +0.000 A 
ENDROOT
BRANCH   4  14
ATOM     14  S   UNL     1      -8.245   3.424 129.696  0.00  0.00    +0.000 S 
ATOM     15  C   UNL     1      -8.344   2.893 131.423  0.00  0.00    +0.000 C 
ATOM     16  O   UNL     1      -8.978   2.418 128.858  0.00  0.00    +0.000 OA
ENDBRANCH   4  14
TORSDOF 1
ENDMDL
MODEL 3
REMARK VINA RESULT:      -5.9      7.299      8.251
REMARK  Name = Flosequinan
REMARK  3 active torsions:
REMARK  status: ('A' for Active; 'I' for Inactive)
REMARK    1  A    between atoms: C_1  and  N_2
REMARK    2  A    between atoms: C_4  and  S_14
REMARK    3  A    between atoms: S_14  and  C_15
REMARK                            x       y       z     vdW  Elec       q    Type
REMARK                         _______ _______ _______ _____ _____    ______ ____
ROOT
ATOM      1  C   UNL     1      -5.275  -0.885 125.736  0.00  0.00    +0.000 C 
ATOM      2  N   UNL     1      -6.340  -1.763 126.229  0.00  0.00    +0.000 N 
ATOM      3  C   UNL     1      -6.553  -1.983 127.584  0.00  0.00    +0.000 A 
ATOM      4  C   UNL     1      -7.525  -2.735 128.119  0.00  0.00    +0.000 A 
ATOM      5  C   UNL     1      -8.493  -3.360 127.193  0.00  0.00    +0.000 A 
ATOM      6  O   UNL     1      -9.439  -4.039 127.598  0.00  0.00    +0.000 OA
ATOM      7  C   UNL     1      -8.334  -3.084 125.748  0.00  0.00    +0.000 A 
ATOM      8  C   UNL     1      -7.253  -2.296 125.295  0.00  0.00    +0.000 A 
ATOM      9  C   UNL     1      -7.167  -2.065 123.916  0.00  0.00    +0.000 A 
ATOM     10  C   UNL     1      -8.217  -2.428 123.076  0.00  0.00    +0.000 A 
ATOM     11  F   UNL     1      -8.146  -2.132 121.773  0.00  0.00    +0.000 F 
ATOM     12  C   UNL     1      -9.329  -3.100 123.560  0.00  0.00    +0.000 A 
ATOM     13  C   UNL     1      -9.327  -3.543 124.874  0.00  0.00    +0.000 A 
ENDROOT
BRANCH   4  14
ATOM     14  S   UNL     1      -7.737  -2.866 129.874  0.00  0.00    +0.000 S 
ATOM     15  C   UNL     1      -6.367  -3.982 130.263  0.00  0.00    +0.000 C 
ATOM     16  O   UNL     1      -7.423  -1.521 130.461  0.00  0.00    +0.000 OA
ENDBRANCH   4  14
TORSDOF 1
ENDMDL
MODEL 4
REMARK VINA RESULT:      -5.8      2.391      3.515
REMARK  Name = Flosequinan
REMARK  3 active torsions:
REMARK  status: ('A' for Active; 'I' for Inactive)
REMARK    1  A    between atoms: C_1  and  N_2
REMARK    2  A    between atoms: C_4  and  S_14
REMARK    3  A    between atoms: S_14  and  C_15
REMARK                            x       y       z     vdW  Elec       q    Type
REMARK                         _______ _______ _______ _____ _____    ______ ____
ROOT
ATOM      1  C   UNL     1      -9.374   1.962 122.846  0.00  0.00    +0.000 C 
ATOM      2  N   UNL     1      -8.157   2.548 123.415  0.00  0.00    +0.000 N 
ATOM      3  C   UNL     1      -7.760   2.309 124.724  0.00  0.00    +0.000 A 
ATOM      4  C   UNL     1      -6.645   2.771 125.309  0.00  0.00    +0.000 A 
ATOM      5  C   UNL     1      -5.723   3.577 124.481  0.00  0.00    +0.000 A 
ATOM      6  O   UNL     1      -4.660   4.013 124.925  0.00  0.00    +0.000 OA
ATOM      7  C   UNL     1      -6.086   3.788 123.062  0.00  0.00    +0.000 A 
ATOM      8  C   UNL     1      -7.302   3.275 122.560  0.00  0.00    +0.000 A 
ATOM      9  C   UNL     1      -7.578   3.502 121.206  0.00  0.00    +0.000 A 
ATOM     10  C   UNL     1      -6.598   4.027 120.367  0.00  0.00    +0.000 A 
ATOM     11  F   UNL     1      -6.859   4.167 119.062  0.00  0.00    +0.000 F 
ATOM     12  C   UNL     1      -5.362   4.418 120.858  0.00  0.00    +0.000 A 
ATOM     13  C   UNL     1      -5.154   4.419 122.228  0.00  0.00    +0.000 A 
ENDROOT
BRANCH   4  14
ATOM     14  S   UNL     1      -6.212   2.320 126.968  0.00  0.00    +0.000 S 
ATOM     15  C   UNL     1      -7.763   1.547 127.487  0.00  0.00    +0.000 C 
ATOM     16  O   UNL     1      -5.165   1.248 126.877  0.00  0.00    +0.000 OA
ENDBRANCH   4  14
TORSDOF 1
ENDMDL
MODEL 5
REMARK VINA RESULT:      -5.7      5.225      6.732
REMARK  Name = Flosequinan
REMARK  3 active torsions:
REMARK  status: ('A' for Active; 'I' for Inactive)
REMARK    1  A    between atoms: C_1  and  N_2
REMARK    2  A    between atoms: C_4  and  S_14
REMARK    3  A    between atoms: S_14  and  C_15
REMARK                            x       y       z     vdW  Elec       q    Type
REMARK                         _______ _______ _______ _____ _____    ______ ____
ROOT
ATOM      1  C   UNL     1      -9.836   1.148 122.830  0.00  0.00    +0.000 C 
ATOM      2  N   UNL     1      -8.631   0.670 123.514  0.00  0.00    +0.000 N 
ATOM      3  C   UNL     1      -7.733   1.534 124.125  0.00  0.00    +0.000 A 
ATOM      4  C   UNL     1      -6.632   1.179 124.804  0.00  0.00    +0.000 A 
ATOM      5  C   UNL     1      -6.361  -0.266 124.959  0.00  0.00    +0.000 A 
ATOM      6  O   UNL     1      -5.392  -0.683 125.596  0.00  0.00    +0.000 OA
ATOM      7  C   UNL     1      -7.341  -1.211 124.379  0.00  0.00    +0.000 A 
ATOM      8  C   UNL     1      -8.453  -0.722 123.660  0.00  0.00    +0.000 A 
ATOM      9  C   UNL     1      -9.347  -1.671 123.147  0.00  0.00    +0.000 A 
ATOM     10  C   UNL     1      -9.238  -3.010 123.514  0.00  0.00    +0.000 A 
ATOM     11  F   UNL     1     -10.146  -3.887 123.070  0.00  0.00    +0.000 F 
ATOM     12  C   UNL     1      -8.201  -3.455 124.320  0.00  0.00    +0.000 A 
ATOM     13  C   UNL     1      -7.179  -2.577 124.645  0.00  0.00    +0.000 A 
ENDROOT
BRANCH   4  14
ATOM     14  S   UNL     1      -5.611   2.383 125.611  0.00  0.00    +0.000 S 
ATOM     15  C   UNL     1      -5.873   3.792 124.507  0.00  0.00    +0.000 C 
ATOM     16  O   UNL     1      -6.255   2.698 126.930  0.00  0.00    +0.000 OA
ENDBRANCH   4  14
TORSDOF 1
ENDMDL
MODEL 6
REMARK VINA RESULT:      -5.7      5.280      6.700
REMARK  Name = Flosequinan
REMARK  3 active torsions:
REMARK  status: ('A' for Active; 'I' for Inactive)
REMARK    1  A    between atoms: C_1  and  N_2
REMARK    2  A    between atoms: C_4  and  S_14
REMARK    3  A    between atoms: S_14  and  C_15
REMARK                            x       y       z     vdW  Elec       q    Type
REMARK                         _______ _______ _______ _____ _____    ______ ____
ROOT
ATOM      1  C   UNL     1      -5.572  -0.616 125.978  0.00  0.00    +0.000 C 
ATOM      2  N   UNL     1      -6.711  -0.238 125.137  0.00  0.00    +0.000 N 
ATOM      3  C   UNL     1      -6.885   1.055 124.661  0.00  0.00    +0.000 A 
ATOM      4  C   UNL     1      -7.872   1.474 123.855  0.00  0.00    +0.000 A 
ATOM      5  C   UNL     1      -8.849   0.467 123.390  0.00  0.00    +0.000 A 
ATOM      6  O   UNL     1      -9.767   0.756 122.621  0.00  0.00    +0.000 OA
ATOM      7  C   UNL     1      -8.646  -0.934 123.823  0.00  0.00    +0.000 A 
ATOM      8  C   UNL     1      -7.584  -1.256 124.696  0.00  0.00    +0.000 A 
ATOM      9  C   UNL     1      -7.443  -2.601 125.058  0.00  0.00    +0.000 A 
ATOM     10  C   UNL     1      -8.194  -3.584 124.418  0.00  0.00    +0.000 A 
ATOM     11  F   UNL     1      -7.991  -4.870 124.727  0.00  0.00    +0.000 F 
ATOM     12  C   UNL     1      -9.155  -3.257 123.473  0.00  0.00    +0.000 A 
ATOM     13  C   UNL     1      -9.471  -1.922 123.272  0.00  0.00    +0.000 A 
ENDROOT
BRANCH   4  14
ATOM     14  S   UNL     1      -7.932   3.139 123.251  0.00  0.00    +0.000 S 
ATOM     15  C   UNL     1      -6.672   3.892 124.309  0.00  0.00    +0.000 C 
ATOM     16  O   UNL     1      -7.407   3.120 121.845  0.00  0.00    +0.000 OA
ENDBRANCH   4  14
TORSDOF 1
ENDMDL
MODEL 7
REMARK VINA RESULT:      -5.6      7.080      9.218
REMARK  Name = Flosequinan
REMARK  3 active torsions:
REMARK  status: ('A' for Active; 'I' for Inactive)
REMARK    1  A    between atoms: C_1  and  N_2
REMARK    2  A    between atoms: C_4  and  S_14
REMARK    3  A    between atoms: S_14  and  C_15
REMARK                            x       y       z     vdW  Elec       q    Type
REMARK                         _______ _______ _______ _____ _____    ______ ____
ROOT
ATOM      1  C   UNL     1      -6.592   0.563 127.763  0.00  0.00    +0.000 C 
ATOM      2  N   UNL     1      -7.452  -0.341 126.995  0.00  0.00    +0.000 N 
ATOM      3  C   UNL     1      -7.729  -0.137 125.650  0.00  0.00    +0.000 A 
ATOM      4  C   UNL     1      -8.470  -0.934 124.865  0.00  0.00    +0.000 A 
ATOM      5  C   UNL     1      -9.011  -2.171 125.466  0.00  0.00    +0.000 A 
ATOM      6  O   UNL     1      -9.673  -2.979 124.811  0.00  0.00    +0.000 OA
ATOM      7  C   UNL     1      -8.672  -2.451 126.879  0.00  0.00    +0.000 A 
ATOM      8  C   UNL     1      -7.904  -1.524 127.617  0.00  0.00    +0.000 A 
ATOM      9  C   UNL     1      -7.609  -1.856 128.946  0.00  0.00    +0.000 A 
ATOM     10  C   UNL     1      -7.891  -3.131 129.431  0.00  0.00    +0.000 A 
ATOM     11  F   UNL     1      -7.535  -3.451 130.680  0.00  0.00    +0.000 F 
ATOM     12  C   UNL     1      -8.543  -4.072 128.649  0.00  0.00    +0.000 A 
ATOM     13  C   UNL     1      -9.050  -3.688 127.417  0.00  0.00    +0.000 A 
ENDROOT
BRANCH   4  14
ATOM     14  S   UNL     1      -8.678  -0.601 123.137  0.00  0.00    +0.000 S 
ATOM     15  C   UNL     1      -7.654  -1.923 122.448  0.00  0.00    +0.000 C 
ATOM     16  O   UNL     1     -10.110  -0.895 122.797  0.00  0.00    +0.000 OA
ENDBRANCH   4  14
TORSDOF 1
ENDMDL
MODEL 8
REMARK VINA RESULT:      -5.6      5.677      8.077
REMARK  Name = Flosequinan
REMARK  3 active torsions:
REMARK  status: ('A' for Active; 'I' for Inactive)
REMARK    1  A    between atoms: C_1  and  N_2
REMARK    2  A    between atoms: C_4  and  S_14
REMARK    3  A    between atoms: S_14  and  C_15
REMARK                            x       y       z     vdW  Elec       q    Type
REMARK                         _______ _______ _______ _____ _____    ______ ____
ROOT
ATOM      1  C   UNL     1      -9.264  -2.097 123.299  0.00  0.00    +0.000 C 
ATOM      2  N   UNL     1      -8.672  -1.145 124.243  0.00  0.00    +0.000 N 
ATOM      3  C   UNL     1      -8.515   0.201 123.938  0.00  0.00    +0.000 A 
ATOM      4  C   UNL     1      -8.022   1.144 124.755  0.00  0.00    +0.000 A 
ATOM      5  C   UNL     1      -7.647   0.733 126.125  0.00  0.00    +0.000 A 
ATOM      6  O   UNL     1      -7.218   1.539 126.953  0.00  0.00    +0.000 OA
ATOM      7  C   UNL     1      -7.870  -0.681 126.500  0.00  0.00    +0.000 A 
ATOM      8  C   UNL     1      -8.372  -1.593 125.547  0.00  0.00    +0.000 A 
ATOM      9  C   UNL     1      -8.570  -2.913 125.971  0.00  0.00    +0.000 A 
ATOM     10  C   UNL     1      -8.468  -3.240 127.322  0.00  0.00    +0.000 A 
ATOM     11  F   UNL     1      -8.734  -4.491 127.714  0.00  0.00    +0.000 F 
ATOM     12  C   UNL     1      -8.088  -2.298 128.265  0.00  0.00    +0.000 A 
ATOM     13  C   UNL     1      -7.662  -1.051 127.835  0.00  0.00    +0.000 A 
ENDROOT
BRANCH   4  14
ATOM     14  S   UNL     1      -7.953   2.847 124.270  0.00  0.00    +0.000 S 
ATOM     15  C   UNL     1      -8.602   2.711 122.587  0.00  0.00    +0.000 C 
ATOM     16  O   UNL     1      -8.962   3.586 125.100  0.00  0.00    +0.000 OA
ENDBRANCH   4  14
TORSDOF 1
ENDMDL
MODEL 9
REMARK VINA RESULT:      -5.6      6.461      8.860
REMARK  Name = Flosequinan
REMARK  3 active torsions:
REMARK  status: ('A' for Active; 'I' for Inactive)
REMARK    1  A    between atoms: C_1  and  N_2
REMARK    2  A    between atoms: C_4  and  S_14
REMARK    3  A    between atoms: S_14  and  C_15
REMARK                            x       y       z     vdW  Elec       q    Type
REMARK                         _______ _______ _______ _____ _____    ______ ____
ROOT
ATOM      1  C   UNL     1      -6.609   0.775 128.200  0.00  0.00    +0.000 C 
ATOM      2  N   UNL     1      -7.418   0.007 127.250  0.00  0.00    +0.000 N 
ATOM      3  C   UNL     1      -7.633   0.432 125.945  0.00  0.00    +0.000 A 
ATOM      4  C   UNL     1      -8.323  -0.226 125.003  0.00  0.00    +0.000 A 
ATOM      5  C   UNL     1      -8.877  -1.549 125.361  0.00  0.00    +0.000 A 
ATOM      6  O   UNL     1      -9.495  -2.239 124.548  0.00  0.00    +0.000 OA
ATOM      7  C   UNL     1      -8.603  -2.060 126.723  0.00  0.00    +0.000 A 
ATOM      8  C   UNL     1      -7.885  -1.265 127.643  0.00  0.00    +0.000 A 
ATOM      9  C   UNL     1      -7.651  -1.813 128.911  0.00  0.00    +0.000 A 
ATOM     10  C   UNL     1      -7.940  -3.152 129.162  0.00  0.00    +0.000 A 
ATOM     11  F   UNL     1      -7.641  -3.674 130.357  0.00  0.00    +0.000 F 
ATOM     12  C   UNL     1      -8.540  -3.953 128.203  0.00  0.00    +0.000 A 
ATOM     13  C   UNL     1      -8.991  -3.370 127.028  0.00  0.00    +0.000 A 
ENDROOT
BRANCH   4  14
ATOM     14  S   UNL     1      -8.451   0.389 123.346  0.00  0.00    +0.000 S 
ATOM     15  C   UNL     1      -9.986   1.335 123.491  0.00  0.00    +0.000 C 
ATOM     16  O   UNL     1      -7.324   1.360 123.145  0.00  0.00    +0.000 OA
ENDBRANCH   4  14
TORSDOF 1
ENDMDL
