MODEL 1
REMARK VINA RESULT:      -6.5      0.000      0.000
REMARK  Name = Floxuridine
REMARK  4 active torsions:
REMARK  status: ('A' for Active; 'I' for Inactive)
REMARK    1  A    between atoms: O5*_1  and  C5*_2
REMARK    2  A    between atoms: C5*_2  and  C4*_3
REMARK    3  A    between atoms: C1*_5  and  N_9
REMARK    4  A    between atoms: C3*_7  and  O3*_8
REMARK                            x       y       z     vdW  Elec       q    Type
REMARK                         _______ _______ _______ _____ _____    ______ ____
ROOT
ATOM      1  C4* UNL     1     -11.868   7.566 127.210  0.00  0.00    +0.000 C 
ATOM      2  O4* UNL     1     -11.778   6.362 128.020  0.00  0.00    +0.000 OA
ATOM      3  C1* UNL     1     -11.742   6.720 129.418  0.00  0.00    +0.000 C 
ATOM      4  C2* UNL     1     -11.919   8.223 129.549  0.00  0.00    +0.000 C 
ATOM      5  C3* UNL     1     -12.413   8.616 128.181  0.00  0.00    +0.000 C 
ENDROOT
BRANCH   3   6
ATOM      6  N   UNL     1     -10.541   6.202 130.085  0.00  0.00    +0.000 N 
ATOM      7  C   UNL     1      -9.471   7.024 130.414  0.00  0.00    +0.000 A 
ATOM      8  C   UNL     1      -8.347   6.535 130.946  0.00  0.00    +0.000 A 
ATOM      9  F   UNL     1      -7.275   7.305 131.207  0.00  0.00    +0.000 F 
ATOM     10  C   UNL     1      -8.257   5.102 131.261  0.00  0.00    +0.000 A 
ATOM     11  O   UNL     1      -7.211   4.563 131.634  0.00  0.00    +0.000 OA
ATOM     12  N   UNL     1      -9.424   4.411 131.113  0.00  0.00    +0.000 N 
ATOM     13  C   UNL     1     -10.529   4.845 130.416  0.00  0.00    +0.000 A 
ATOM     14  O   UNL     1     -11.421   4.051 130.142  0.00  0.00    +0.000 OA
ATOM     15  H   UNL     1      -9.404   3.428 131.341  0.00  0.00    +0.000 HD
ENDBRANCH   3   6
BRANCH   5  16
ATOM     16  O3* UNL     1     -13.856   8.443 128.242  0.00  0.00    +0.000 OA
ATOM     17  H3* UNL     1     -14.145   8.605 129.162  0.00  0.00    +0.000 HD
ENDBRANCH   5  16
BRANCH   1  18
ATOM     18  C5* UNL     1     -10.569   7.510 126.390  0.00  0.00    +0.000 C 
BRANCH  18  19
ATOM     19  O5* UNL     1      -9.782   6.344 126.437  0.00  0.00    +0.000 OA
ATOM     20  H5* UNL     1      -9.958   5.896 125.582  0.00  0.00    +0.000 HD
ENDBRANCH  18  19
ENDBRANCH   1  18
TORSDOF 4
ENDMDL
MODEL 2
REMARK VINA RESULT:      -6.5      7.378      9.298
REMARK  Name = Floxuridine
REMARK  4 active torsions:
REMARK  status: ('A' for Active; 'I' for Inactive)
REMARK    1  A    between atoms: O5*_1  and  C5*_2
REMARK    2  A    between atoms: C5*_2  and  C4*_3
REMARK    3  A    between atoms: C1*_5  and  N_9
REMARK    4  A    between atoms: C3*_7  and  O3*_8
REMARK                            x       y       z     vdW  Elec       q    Type
REMARK                         _______ _______ _______ _____ _____    ______ ____
ROOT
ATOM      1  C4* UNL     1      -8.546   2.865 125.017  0.00  0.00    +0.000 C 
ATOM      2  O4* UNL     1      -8.839   3.360 123.682  0.00  0.00    +0.000 OA
ATOM      3  C1* UNL     1      -8.168   2.539 122.702  0.00  0.00    +0.000 C 
ATOM      4  C2* UNL     1      -7.481   1.384 123.411  0.00  0.00    +0.000 C 
ATOM      5  C3* UNL     1      -8.111   1.416 124.780  0.00  0.00    +0.000 C 
ENDROOT
BRANCH   3   6
ATOM      6  N   UNL     1      -7.274   3.328 121.846  0.00  0.00    +0.000 N 
ATOM      7  C   UNL     1      -5.949   3.564 122.188  0.00  0.00    +0.000 A 
ATOM      8  C   UNL     1      -5.162   4.351 121.448  0.00  0.00    +0.000 A 
ATOM      9  F   UNL     1      -3.897   4.647 121.799  0.00  0.00    +0.000 F 
ATOM     10  C   UNL     1      -5.681   4.929 120.201  0.00  0.00    +0.000 A 
ATOM     11  O   UNL     1      -5.055   5.761 119.537  0.00  0.00    +0.000 OA
ATOM     12  N   UNL     1      -6.911   4.471 119.828  0.00  0.00    +0.000 N 
ATOM     13  C   UNL     1      -7.799   3.806 120.643  0.00  0.00    +0.000 A 
ATOM     14  O   UNL     1      -8.960   3.661 120.280  0.00  0.00    +0.000 OA
ATOM     15  H   UNL     1      -7.289   4.831 118.965  0.00  0.00    +0.000 HD
ENDBRANCH   3   6
BRANCH   5  16
ATOM     16  O3* UNL     1      -9.319   0.617 124.652  0.00  0.00    +0.000 OA
ATOM     17  H3* UNL     1      -9.437   0.388 123.709  0.00  0.00    +0.000 HD
ENDBRANCH   5  16
BRANCH   1  18
ATOM     18  C5* UNL     1      -7.817   4.057 125.660  0.00  0.00    +0.000 C 
BRANCH  18  19
ATOM     19  O5* UNL     1      -8.030   5.347 125.138  0.00  0.00    +0.000 OA
ATOM     20  H5* UNL     1      -8.483   5.192 124.281  0.00  0.00    +0.000 HD
ENDBRANCH  18  19
ENDBRANCH   1  18
TORSDOF 4
ENDMDL
MODEL 3
REMARK VINA RESULT:      -6.0      1.954      5.242
REMARK  Name = Floxuridine
REMARK  4 active torsions:
REMARK  status: ('A' for Active; 'I' for Inactive)
REMARK    1  A    between atoms: O5*_1  and  C5*_2
REMARK    2  A    between atoms: C5*_2  and  C4*_3
REMARK    3  A    between atoms: C1*_5  and  N_9
REMARK    4  A    between atoms: C3*_7  and  O3*_8
REMARK                            x       y       z     vdW  Elec       q    Type
REMARK                         _______ _______ _______ _____ _____    ______ ____
ROOT
ATOM      1  C4* UNL     1      -9.115   3.820 130.456  0.00  0.00    +0.000 C 
ATOM      2  O4* UNL     1      -9.427   4.531 129.226  0.00  0.00    +0.000 OA
ATOM      3  C1* UNL     1      -9.113   5.931 129.383  0.00  0.00    +0.000 C 
ATOM      4  C2* UNL     1      -8.467   6.145 130.741  0.00  0.00    +0.000 C 
ATOM      5  C3* UNL     1      -8.118   4.741 131.164  0.00  0.00    +0.000 C 
ENDROOT
BRANCH   3   6
ATOM      6  N   UNL     1     -10.282   6.785 129.139  0.00  0.00    +0.000 N 
ATOM      7  C   UNL     1     -11.055   7.287 130.179  0.00  0.00    +0.000 A 
ATOM      8  C   UNL     1     -12.165   7.995 129.950  0.00  0.00    +0.000 A 
ATOM      9  F   UNL     1     -12.964   8.430 130.942  0.00  0.00    +0.000 F 
ATOM     10  C   UNL     1     -12.548   8.317 128.569  0.00  0.00    +0.000 A 
ATOM     11  O   UNL     1     -13.621   8.856 128.280  0.00  0.00    +0.000 OA
ATOM     12  N   UNL     1     -11.621   7.979 127.626  0.00  0.00    +0.000 N 
ATOM     13  C   UNL     1     -10.569   7.111 127.812  0.00  0.00    +0.000 A 
ATOM     14  O   UNL     1      -9.952   6.693 126.840  0.00  0.00    +0.000 OA
ATOM     15  H   UNL     1     -11.843   8.206 126.668  0.00  0.00    +0.000 HD
ENDBRANCH   3   6
BRANCH   5  16
ATOM     16  O3* UNL     1      -6.809   4.491 130.583  0.00  0.00    +0.000 OA
ATOM     17  H3* UNL     1      -6.130   4.817 131.206  0.00  0.00    +0.000 HD
ENDBRANCH   5  16
BRANCH   1  18
ATOM     18  C5* UNL     1     -10.490   3.281 130.884  0.00  0.00    +0.000 C 
BRANCH  18  19
ATOM     19  O5* UNL     1     -11.639   3.729 130.207  0.00  0.00    +0.000 OA
ATOM     20  H5* UNL     1     -12.077   4.334 130.843  0.00  0.00    +0.000 HD
ENDBRANCH  18  19
ENDBRANCH   1  18
TORSDOF 4
ENDMDL
MODEL 4
REMARK VINA RESULT:      -6.0      7.859      9.815
REMARK  Name = Floxuridine
REMARK  4 active torsions:
REMARK  status: ('A' for Active; 'I' for Inactive)
REMARK    1  A    between atoms: O5*_1  and  C5*_2
REMARK    2  A    between atoms: C5*_2  and  C4*_3
REMARK    3  A    between atoms: C1*_5  and  N_9
REMARK    4  A    between atoms: C3*_7  and  O3*_8
REMARK                            x       y       z     vdW  Elec       q    Type
REMARK                         _______ _______ _______ _____ _____    ______ ____
ROOT
ATOM      1  C4* UNL     1      -8.736   0.569 124.027  0.00  0.00    +0.000 C 
ATOM      2  O4* UNL     1      -7.582   1.109 123.327  0.00  0.00    +0.000 OA
ATOM      3  C1* UNL     1      -7.582   2.549 123.431  0.00  0.00    +0.000 C 
ATOM      4  C2* UNL     1      -8.730   2.981 124.327  0.00  0.00    +0.000 C 
ATOM      5  C3* UNL     1      -9.132   1.690 124.992  0.00  0.00    +0.000 C 
ENDROOT
BRANCH   3   6
ATOM      6  N   UNL     1      -7.581   3.194 122.112  0.00  0.00    +0.000 N 
ATOM      7  C   UNL     1      -8.751   3.389 121.389  0.00  0.00    +0.000 A 
ATOM      8  C   UNL     1      -8.737   3.901 120.155  0.00  0.00    +0.000 A 
ATOM      9  F   UNL     1      -9.852   4.033 119.413  0.00  0.00    +0.000 F 
ATOM     10  C   UNL     1      -7.464   4.337 119.565  0.00  0.00    +0.000 A 
ATOM     11  O   UNL     1      -7.360   4.699 118.390  0.00  0.00    +0.000 OA
ATOM     12  N   UNL     1      -6.401   4.315 120.421  0.00  0.00    +0.000 N 
ATOM     13  C   UNL     1      -6.353   3.643 121.622  0.00  0.00    +0.000 A 
ATOM     14  O   UNL     1      -5.276   3.490 122.185  0.00  0.00    +0.000 OA
ATOM     15  H   UNL     1      -5.515   4.628 120.054  0.00  0.00    +0.000 HD
ENDBRANCH   3   6
BRANCH   5  16
ATOM     16  O3* UNL     1      -8.266   1.585 126.156  0.00  0.00    +0.000 OA
ATOM     17  H3* UNL     1      -7.795   2.436 126.264  0.00  0.00    +0.000 HD
ENDBRANCH   5  16
BRANCH   1  18
ATOM     18  C5* UNL     1      -9.512  -0.127 122.897  0.00  0.00    +0.000 C 
BRANCH  18  19
ATOM     19  O5* UNL     1     -10.760   0.394 122.506  0.00  0.00    +0.000 OA
ATOM     20  H5* UNL     1     -11.038  -0.175 121.756  0.00  0.00    +0.000 HD
ENDBRANCH  18  19
ENDBRANCH   1  18
TORSDOF 4
ENDMDL
MODEL 5
REMARK VINA RESULT:      -6.0      8.668      9.401
REMARK  Name = Floxuridine
REMARK  4 active torsions:
REMARK  status: ('A' for Active; 'I' for Inactive)
REMARK    1  A    between atoms: O5*_1  and  C5*_2
REMARK    2  A    between atoms: C5*_2  and  C4*_3
REMARK    3  A    between atoms: C1*_5  and  N_9
REMARK    4  A    between atoms: C3*_7  and  O3*_8
REMARK                            x       y       z     vdW  Elec       q    Type
REMARK                         _______ _______ _______ _____ _____    ______ ____
ROOT
ATOM      1  C4* UNL     1      -9.822   1.576 123.710  0.00  0.00    +0.000 C 
ATOM      2  O4* UNL     1      -9.405   0.557 124.659  0.00  0.00    +0.000 OA
ATOM      3  C1* UNL     1      -8.004   0.724 124.966  0.00  0.00    +0.000 C 
ATOM      4  C2* UNL     1      -7.490   1.972 124.268  0.00  0.00    +0.000 C 
ATOM      5  C3* UNL     1      -8.762   2.671 123.864  0.00  0.00    +0.000 C 
ENDROOT
BRANCH   3   6
ATOM      6  N   UNL     1      -7.230  -0.487 124.666  0.00  0.00    +0.000 N 
ATOM      7  C   UNL     1      -6.774  -0.769 123.385  0.00  0.00    +0.000 A 
ATOM      8  C   UNL     1      -6.142  -1.912 123.100  0.00  0.00    +0.000 A 
ATOM      9  F   UNL     1      -5.754  -2.233 121.852  0.00  0.00    +0.000 F 
ATOM     10  C   UNL     1      -5.853  -2.868 124.176  0.00  0.00    +0.000 A 
ATOM     11  O   UNL     1      -5.388  -3.992 123.966  0.00  0.00    +0.000 OA
ATOM     12  N   UNL     1      -6.135  -2.417 125.433  0.00  0.00    +0.000 N 
ATOM     13  C   UNL     1      -6.931  -1.335 125.735  0.00  0.00    +0.000 A 
ATOM     14  O   UNL     1      -7.314  -1.169 126.887  0.00  0.00    +0.000 OA
ATOM     15  H   UNL     1      -5.930  -3.041 126.198  0.00  0.00    +0.000 HD
ENDBRANCH   3   6
BRANCH   5  16
ATOM     16  O3* UNL     1      -9.131   3.471 125.020  0.00  0.00    +0.000 OA
ATOM     17  H3* UNL     1      -8.465   4.179 125.128  0.00  0.00    +0.000 HD
ENDBRANCH   5  16
BRANCH   1  18
ATOM     18  C5* UNL     1     -10.256   0.739 122.495  0.00  0.00    +0.000 C 
BRANCH  18  19
ATOM     19  O5* UNL     1     -10.248  -0.665 122.597  0.00  0.00    +0.000 OA
ATOM     20  H5* UNL     1     -10.886  -0.861 123.317  0.00  0.00    +0.000 HD
ENDBRANCH  18  19
ENDBRANCH   1  18
TORSDOF 4
ENDMDL
MODEL 6
REMARK VINA RESULT:      -5.8      2.469      5.141
REMARK  Name = Floxuridine
REMARK  4 active torsions:
REMARK  status: ('A' for Active; 'I' for Inactive)
REMARK    1  A    between atoms: O5*_1  and  C5*_2
REMARK    2  A    between atoms: C5*_2  and  C4*_3
REMARK    3  A    between atoms: C1*_5  and  N_9
REMARK    4  A    between atoms: C3*_7  and  O3*_8
REMARK                            x       y       z     vdW  Elec       q    Type
REMARK                         _______ _______ _______ _____ _____    ______ ____
ROOT
ATOM      1  C4* UNL     1      -7.841   5.298 131.605  0.00  0.00    +0.000 C 
ATOM      2  O4* UNL     1      -9.202   5.710 131.905  0.00  0.00    +0.000 OA
ATOM      3  C1* UNL     1     -10.084   5.279 130.847  0.00  0.00    +0.000 C 
ATOM      4  C2* UNL     1      -9.292   4.454 129.848  0.00  0.00    +0.000 C 
ATOM      5  C3* UNL     1      -8.021   4.156 130.600  0.00  0.00    +0.000 C 
ENDROOT
BRANCH   3   6
ATOM      6  N   UNL     1     -10.811   6.404 130.247  0.00  0.00    +0.000 N 
ATOM      7  C   UNL     1     -10.420   6.971 129.040  0.00  0.00    +0.000 A 
ATOM      8  C   UNL     1     -11.033   8.047 128.538  0.00  0.00    +0.000 A 
ATOM      9  F   UNL     1     -10.625   8.651 127.407  0.00  0.00    +0.000 F 
ATOM     10  C   UNL     1     -12.196   8.611 129.237  0.00  0.00    +0.000 A 
ATOM     11  O   UNL     1     -12.730   9.672 128.900  0.00  0.00    +0.000 OA
ATOM     12  N   UNL     1     -12.647   7.866 130.288  0.00  0.00    +0.000 N 
ATOM     13  C   UNL     1     -11.944   6.865 130.920  0.00  0.00    +0.000 A 
ATOM     14  O   UNL     1     -12.341   6.436 131.996  0.00  0.00    +0.000 OA
ATOM     15  H   UNL     1     -13.458   8.213 130.777  0.00  0.00    +0.000 HD
ENDBRANCH   3   6
BRANCH   5  16
ATOM     16  O3* UNL     1      -8.312   2.952 131.361  0.00  0.00    +0.000 OA
ATOM     17  H3* UNL     1      -8.545   3.216 132.274  0.00  0.00    +0.000 HD
ENDBRANCH   5  16
BRANCH   1  18
ATOM     18  C5* UNL     1      -7.103   6.643 131.500  0.00  0.00    +0.000 C 
BRANCH  18  19
ATOM     19  O5* UNL     1      -7.365   7.480 130.399  0.00  0.00    +0.000 OA
ATOM     20  H5* UNL     1      -7.387   6.871 129.629  0.00  0.00    +0.000 HD
ENDBRANCH  18  19
ENDBRANCH   1  18
TORSDOF 4
ENDMDL
MODEL 7
REMARK VINA RESULT:      -5.8      2.253      5.660
REMARK  Name = Floxuridine
REMARK  4 active torsions:
REMARK  status: ('A' for Active; 'I' for Inactive)
REMARK    1  A    between atoms: O5*_1  and  C5*_2
REMARK    2  A    between atoms: C5*_2  and  C4*_3
REMARK    3  A    between atoms: C1*_5  and  N_9
REMARK    4  A    between atoms: C3*_7  and  O3*_8
REMARK                            x       y       z     vdW  Elec       q    Type
REMARK                         _______ _______ _______ _____ _____    ______ ____
ROOT
ATOM      1  C4* UNL     1      -8.061   3.987 132.264  0.00  0.00    +0.000 C 
ATOM      2  O4* UNL     1      -8.553   4.237 130.919  0.00  0.00    +0.000 OA
ATOM      3  C1* UNL     1      -8.527   5.654 130.648  0.00  0.00    +0.000 C 
ATOM      4  C2* UNL     1      -7.893   6.372 131.827  0.00  0.00    +0.000 C 
ATOM      5  C3* UNL     1      -7.251   5.245 132.592  0.00  0.00    +0.000 C 
ENDROOT
BRANCH   3   6
ATOM      6  N   UNL     1      -9.854   6.166 130.282  0.00  0.00    +0.000 N 
ATOM      7  C   UNL     1     -10.791   6.530 131.241  0.00  0.00    +0.000 A 
ATOM      8  C   UNL     1     -12.025   6.917 130.906  0.00  0.00    +0.000 A 
ATOM      9  F   UNL     1     -12.967   7.206 131.822  0.00  0.00    +0.000 F 
ATOM     10  C   UNL     1     -12.388   7.033 129.487  0.00  0.00    +0.000 A 
ATOM     11  O   UNL     1     -13.541   7.262 129.108  0.00  0.00    +0.000 OA
ATOM     12  N   UNL     1     -11.349   6.872 128.616  0.00  0.00    +0.000 N 
ATOM     13  C   UNL     1     -10.129   6.313 128.921  0.00  0.00    +0.000 A 
ATOM     14  O   UNL     1      -9.368   5.996 128.015  0.00  0.00    +0.000 OA
ATOM     15  H   UNL     1     -11.559   6.967 127.634  0.00  0.00    +0.000 HD
ENDBRANCH   3   6
BRANCH   5  16
ATOM     16  O3* UNL     1      -5.938   5.084 131.987  0.00  0.00    +0.000 OA
ATOM     17  H3* UNL     1      -5.752   5.876 131.444  0.00  0.00    +0.000 HD
ENDBRANCH   5  16
BRANCH   1  18
ATOM     18  C5* UNL     1      -9.281   3.351 132.950  0.00  0.00    +0.000 C 
BRANCH  18  19
ATOM     19  O5* UNL     1      -9.893   4.031 134.021  0.00  0.00    +0.000 OA
ATOM     20  H5* UNL     1      -9.223   4.690 134.305  0.00  0.00    +0.000 HD
ENDBRANCH  18  19
ENDBRANCH   1  18
TORSDOF 4
ENDMDL
MODEL 8
REMARK VINA RESULT:      -5.7      1.909      2.256
REMARK  Name = Floxuridine
REMARK  4 active torsions:
REMARK  status: ('A' for Active; 'I' for Inactive)
REMARK    1  A    between atoms: O5*_1  and  C5*_2
REMARK    2  A    between atoms: C5*_2  and  C4*_3
REMARK    3  A    between atoms: C1*_5  and  N_9
REMARK    4  A    between atoms: C3*_7  and  O3*_8
REMARK                            x       y       z     vdW  Elec       q    Type
REMARK                         _______ _______ _______ _____ _____    ______ ____
ROOT
ATOM      1  C4* UNL     1     -11.962   7.773 127.315  0.00  0.00    +0.000 C 
ATOM      2  O4* UNL     1     -12.146   6.481 127.955  0.00  0.00    +0.000 OA
ATOM      3  C1* UNL     1     -11.959   6.614 129.380  0.00  0.00    +0.000 C 
ATOM      4  C2* UNL     1     -11.742   8.079 129.716  0.00  0.00    +0.000 C 
ATOM      5  C3* UNL     1     -12.179   8.775 128.453  0.00  0.00    +0.000 C 
ENDROOT
BRANCH   3   6
ATOM      6  N   UNL     1     -10.902   5.726 129.879  0.00  0.00    +0.000 N 
ATOM      7  C   UNL     1     -11.175   4.440 130.330  0.00  0.00    +0.000 A 
ATOM      8  C   UNL     1     -10.224   3.665 130.860  0.00  0.00    +0.000 A 
ATOM      9  F   UNL     1     -10.482   2.445 131.364  0.00  0.00    +0.000 F 
ATOM     10  C   UNL     1      -8.837   4.149 130.906  0.00  0.00    +0.000 A 
ATOM     11  O   UNL     1      -7.936   3.541 131.492  0.00  0.00    +0.000 OA
ATOM     12  N   UNL     1      -8.619   5.323 130.246  0.00  0.00    +0.000 N 
ATOM     13  C   UNL     1      -9.593   6.211 129.848  0.00  0.00    +0.000 A 
ATOM     14  O   UNL     1      -9.273   7.337 129.487  0.00  0.00    +0.000 OA
ATOM     15  H   UNL     1      -7.673   5.673 130.240  0.00  0.00    +0.000 HD
ENDBRANCH   3   6
BRANCH   5  16
ATOM     16  O3* UNL     1     -13.614   8.955 128.603  0.00  0.00    +0.000 OA
ATOM     17  H3* UNL     1     -14.031   8.071 128.641  0.00  0.00    +0.000 HD
ENDBRANCH   5  16
BRANCH   1  18
ATOM     18  C5* UNL     1     -10.756   7.518 126.395  0.00  0.00    +0.000 C 
BRANCH  18  19
ATOM     19  O5* UNL     1     -10.739   8.105 125.116  0.00  0.00    +0.000 OA
ATOM     20  H5* UNL     1      -9.864   8.546 125.061  0.00  0.00    +0.000 HD
ENDBRANCH  18  19
ENDBRANCH   1  18
TORSDOF 4
ENDMDL
MODEL 9
REMARK VINA RESULT:      -5.5      7.996      9.338
REMARK  Name = Floxuridine
REMARK  4 active torsions:
REMARK  status: ('A' for Active; 'I' for Inactive)
REMARK    1  A    between atoms: O5*_1  and  C5*_2
REMARK    2  A    between atoms: C5*_2  and  C4*_3
REMARK    3  A    between atoms: C1*_5  and  N_9
REMARK    4  A    between atoms: C3*_7  and  O3*_8
REMARK                            x       y       z     vdW  Elec       q    Type
REMARK                         _______ _______ _______ _____ _____    ______ ____
ROOT
ATOM      1  C4* UNL     1      -9.370  -2.907 125.639  0.00  0.00    +0.000 C 
ATOM      2  O4* UNL     1      -9.664  -1.483 125.630  0.00  0.00    +0.000 OA
ATOM      3  C1* UNL     1      -8.993  -0.857 124.515  0.00  0.00    +0.000 C 
ATOM      4  C2* UNL     1      -8.306  -1.928 123.686  0.00  0.00    +0.000 C 
ATOM      5  C3* UNL     1      -8.935  -3.197 124.200  0.00  0.00    +0.000 C 
ENDROOT
BRANCH   3   6
ATOM      6  N   UNL     1      -8.100   0.224 124.951  0.00  0.00    +0.000 N 
ATOM      7  C   UNL     1      -6.758  -0.001 125.233  0.00  0.00    +0.000 A 
ATOM      8  C   UNL     1      -5.969   0.967 125.708  0.00  0.00    +0.000 A 
ATOM      9  F   UNL     1      -4.686   0.751 126.052  0.00  0.00    +0.000 F 
ATOM     10  C   UNL     1      -6.505   2.325 125.872  0.00  0.00    +0.000 A 
ATOM     11  O   UNL     1      -5.872   3.232 126.420  0.00  0.00    +0.000 OA
ATOM     12  N   UNL     1      -7.759   2.509 125.366  0.00  0.00    +0.000 N 
ATOM     13  C   UNL     1      -8.643   1.507 125.034  0.00  0.00    +0.000 A 
ATOM     14  O   UNL     1      -9.818   1.784 124.825  0.00  0.00    +0.000 OA
ATOM     15  H   UNL     1      -8.149   3.436 125.443  0.00  0.00    +0.000 HD
ENDBRANCH   3   6
BRANCH   5  16
ATOM     16  O3* UNL     1     -10.143  -3.361 123.407  0.00  0.00    +0.000 OA
ATOM     17  H3* UNL     1     -10.887  -3.539 124.017  0.00  0.00    +0.000 HD
ENDBRANCH   5  16
BRANCH   1  18
ATOM     18  C5* UNL     1      -8.642  -3.086 126.982  0.00  0.00    +0.000 C 
BRANCH  18  19
ATOM     19  O5* UNL     1      -9.104  -4.064 127.882  0.00  0.00    +0.000 OA
ATOM     20  H5* UNL     1      -8.509  -3.981 128.659  0.00  0.00    +0.000 HD
ENDBRANCH  18  19
ENDBRANCH   1  18
TORSDOF 4
ENDMDL
