MODEL 1
REMARK VINA RESULT:      -4.9      0.000      0.000
REMARK  Name = Flucytosine
REMARK  1 active torsions:
REMARK  status: ('A' for Active; 'I' for Inactive)
REMARK    1  A    between atoms: N_1  and  C_2
REMARK                            x       y       z     vdW  Elec       q    Type
REMARK                         _______ _______ _______ _____ _____    ______ ____
ROOT
ATOM      1  C   UNL     1     -12.807   8.994 129.092  0.00  0.00    +0.000 A 
ATOM      2  C   UNL     1     -12.790   8.184 130.157  0.00  0.00    +0.000 A 
ATOM      3  F   UNL     1     -13.039   8.578 131.418  0.00  0.00    +0.000 F 
ATOM      4  C   UNL     1     -12.545   6.761 129.911  0.00  0.00    +0.000 A 
ATOM      5  N   UNL     1     -12.198   6.257 128.774  0.00  0.00    +0.000 NA
ATOM      6  C   UNL     1     -12.101   7.118 127.708  0.00  0.00    +0.000 A 
ATOM      7  O   UNL     1     -11.690   6.763 126.605  0.00  0.00    +0.000 OA
ATOM      8  N   UNL     1     -12.507   8.426 127.884  0.00  0.00    +0.000 N 
ATOM      9  H   UNL     1     -12.534   8.976 127.039  0.00  0.00    +0.000 HD
ENDROOT
BRANCH   1  10
ATOM     10  N   UNL     1     -13.110  10.326 129.180  0.00  0.00    +0.000 N 
ATOM     11  H   UNL     1     -12.400  10.927 129.596  0.00  0.00    +0.000 HD
ATOM     12  H   UNL     1     -13.699  10.744 128.470  0.00  0.00    +0.000 HD
ENDBRANCH   1  10
TORSDOF 1
ENDMDL
MODEL 2
REMARK VINA RESULT:      -4.6      2.882      3.087
REMARK  Name = Flucytosine
REMARK  1 active torsions:
REMARK  status: ('A' for Active; 'I' for Inactive)
REMARK    1  A    between atoms: N_1  and  C_2
REMARK                            x       y       z     vdW  Elec       q    Type
REMARK                         _______ _______ _______ _____ _____    ______ ____
ROOT
ATOM      1  C   UNL     1     -12.226   8.678 129.170  0.00  0.00    +0.000 A 
ATOM      2  C   UNL     1     -11.030   8.321 128.687  0.00  0.00    +0.000 A 
ATOM      3  F   UNL     1     -10.496   8.793 127.548  0.00  0.00    +0.000 F 
ATOM      4  C   UNL     1     -10.230   7.401 129.498  0.00  0.00    +0.000 A 
ATOM      5  N   UNL     1     -10.649   6.795 130.559  0.00  0.00    +0.000 NA
ATOM      6  C   UNL     1     -11.925   7.078 130.981  0.00  0.00    +0.000 A 
ATOM      7  O   UNL     1     -12.457   6.491 131.922  0.00  0.00    +0.000 OA
ATOM      8  N   UNL     1     -12.622   8.079 130.334  0.00  0.00    +0.000 N 
ATOM      9  H   UNL     1     -13.498   8.329 130.766  0.00  0.00    +0.000 HD
ENDROOT
BRANCH   1  10
ATOM     10  N   UNL     1     -13.029   9.598 128.550  0.00  0.00    +0.000 N 
ATOM     11  H   UNL     1     -14.031   9.504 128.708  0.00  0.00    +0.000 HD
ATOM     12  H   UNL     1     -12.679  10.536 128.404  0.00  0.00    +0.000 HD
ENDBRANCH   1  10
TORSDOF 1
ENDMDL
MODEL 3
REMARK VINA RESULT:      -4.5      1.113      2.416
REMARK  Name = Flucytosine
REMARK  1 active torsions:
REMARK  status: ('A' for Active; 'I' for Inactive)
REMARK    1  A    between atoms: N_1  and  C_2
REMARK                            x       y       z     vdW  Elec       q    Type
REMARK                         _______ _______ _______ _____ _____    ______ ____
ROOT
ATOM      1  C   UNL     1     -11.973   6.726 130.518  0.00  0.00    +0.000 A 
ATOM      2  C   UNL     1     -12.635   7.879 130.674  0.00  0.00    +0.000 A 
ATOM      3  F   UNL     1     -13.167   8.302 131.833  0.00  0.00    +0.000 F 
ATOM      4  C   UNL     1     -12.724   8.761 129.508  0.00  0.00    +0.000 A 
ATOM      5  N   UNL     1     -12.348   8.447 128.313  0.00  0.00    +0.000 NA
ATOM      6  C   UNL     1     -11.776   7.210 128.139  0.00  0.00    +0.000 A 
ATOM      7  O   UNL     1     -11.467   6.772 127.032  0.00  0.00    +0.000 OA
ATOM      8  N   UNL     1     -11.519   6.445 129.259  0.00  0.00    +0.000 N 
ATOM      9  H   UNL     1     -10.985   5.607 129.083  0.00  0.00    +0.000 HD
ENDROOT
BRANCH   1  10
ATOM     10  N   UNL     1     -11.746   5.858 131.553  0.00  0.00    +0.000 N 
ATOM     11  H   UNL     1     -11.089   6.167 132.268  0.00  0.00    +0.000 HD
ATOM     12  H   UNL     1     -12.496   5.250 131.857  0.00  0.00    +0.000 HD
ENDBRANCH   1  10
TORSDOF 1
ENDMDL
MODEL 4
REMARK VINA RESULT:      -4.5      3.792      4.688
REMARK  Name = Flucytosine
REMARK  1 active torsions:
REMARK  status: ('A' for Active; 'I' for Inactive)
REMARK    1  A    between atoms: N_1  and  C_2
REMARK                            x       y       z     vdW  Elec       q    Type
REMARK                         _______ _______ _______ _____ _____    ______ ____
ROOT
ATOM      1  C   UNL     1     -10.222   5.912 132.308  0.00  0.00    +0.000 A 
ATOM      2  C   UNL     1      -9.411   6.487 131.411  0.00  0.00    +0.000 A 
ATOM      3  F   UNL     1      -8.069   6.426 131.448  0.00  0.00    +0.000 F 
ATOM      4  C   UNL     1     -10.043   7.171 130.281  0.00  0.00    +0.000 A 
ATOM      5  N   UNL     1     -11.311   7.391 130.166  0.00  0.00    +0.000 NA
ATOM      6  C   UNL     1     -12.127   6.899 131.156  0.00  0.00    +0.000 A 
ATOM      7  O   UNL     1     -13.334   7.130 131.194  0.00  0.00    +0.000 OA
ATOM      8  N   UNL     1     -11.565   6.096 132.128  0.00  0.00    +0.000 N 
ATOM      9  H   UNL     1     -12.229   5.663 132.751  0.00  0.00    +0.000 HD
ENDROOT
BRANCH   1  10
ATOM     10  N   UNL     1      -9.754   5.170 133.360  0.00  0.00    +0.000 N 
ATOM     11  H   UNL     1      -8.899   5.502 133.804  0.00  0.00    +0.000 HD
ATOM     12  H   UNL     1     -10.417   4.687 133.954  0.00  0.00    +0.000 HD
ENDBRANCH   1  10
TORSDOF 1
ENDMDL
MODEL 5
REMARK VINA RESULT:      -4.4      2.715      3.098
REMARK  Name = Flucytosine
REMARK  1 active torsions:
REMARK  status: ('A' for Active; 'I' for Inactive)
REMARK    1  A    between atoms: N_1  and  C_2
REMARK                            x       y       z     vdW  Elec       q    Type
REMARK                         _______ _______ _______ _____ _____    ______ ____
ROOT
ATOM      1  C   UNL     1     -11.295   8.062 129.227  0.00  0.00    +0.000 A 
ATOM      2  C   UNL     1     -12.612   8.054 129.471  0.00  0.00    +0.000 A 
ATOM      3  F   UNL     1     -13.532   8.670 128.710  0.00  0.00    +0.000 F 
ATOM      4  C   UNL     1     -13.075   7.263 130.614  0.00  0.00    +0.000 A 
ATOM      5  N   UNL     1     -12.304   6.701 131.485  0.00  0.00    +0.000 NA
ATOM      6  C   UNL     1     -10.948   6.816 131.291  0.00  0.00    +0.000 A 
ATOM      7  O   UNL     1     -10.125   6.402 132.105  0.00  0.00    +0.000 OA
ATOM      8  N   UNL     1     -10.501   7.400 130.123  0.00  0.00    +0.000 N 
ATOM      9  H   UNL     1      -9.505   7.342 129.978  0.00  0.00    +0.000 HD
ENDROOT
BRANCH   1  10
ATOM     10  N   UNL     1     -10.749   8.691 128.141  0.00  0.00    +0.000 N 
ATOM     11  H   UNL     1      -9.987   9.341 128.329  0.00  0.00    +0.000 HD
ATOM     12  H   UNL     1     -10.720   8.203 127.254  0.00  0.00    +0.000 HD
ENDBRANCH   1  10
TORSDOF 1
ENDMDL
MODEL 6
REMARK VINA RESULT:      -4.4      2.192      2.658
REMARK  Name = Flucytosine
REMARK  1 active torsions:
REMARK  status: ('A' for Active; 'I' for Inactive)
REMARK    1  A    between atoms: N_1  and  C_2
REMARK                            x       y       z     vdW  Elec       q    Type
REMARK                         _______ _______ _______ _____ _____    ______ ____
ROOT
ATOM      1  C   UNL     1     -12.014   7.518 130.163  0.00  0.00    +0.000 A 
ATOM      2  C   UNL     1     -12.150   8.523 129.290  0.00  0.00    +0.000 A 
ATOM      3  F   UNL     1     -13.105   9.466 129.357  0.00  0.00    +0.000 F 
ATOM      4  C   UNL     1     -11.144   8.630 128.231  0.00  0.00    +0.000 A 
ATOM      5  N   UNL     1     -10.232   7.748 127.987  0.00  0.00    +0.000 NA
ATOM      6  C   UNL     1     -10.175   6.656 128.818  0.00  0.00    +0.000 A 
ATOM      7  O   UNL     1      -9.410   5.713 128.622  0.00  0.00    +0.000 OA
ATOM      8  N   UNL     1     -10.996   6.634 129.928  0.00  0.00    +0.000 N 
ATOM      9  H   UNL     1     -10.821   5.873 130.566  0.00  0.00    +0.000 HD
ENDROOT
BRANCH   1  10
ATOM     10  N   UNL     1     -12.837   7.362 131.246  0.00  0.00    +0.000 N 
ATOM     11  H   UNL     1     -12.662   7.976 132.040  0.00  0.00    +0.000 HD
ATOM     12  H   UNL     1     -13.796   7.075 131.097  0.00  0.00    +0.000 HD
ENDBRANCH   1  10
TORSDOF 1
ENDMDL
MODEL 7
REMARK VINA RESULT:      -4.2      2.818      3.742
REMARK  Name = Flucytosine
REMARK  1 active torsions:
REMARK  status: ('A' for Active; 'I' for Inactive)
REMARK    1  A    between atoms: N_1  and  C_2
REMARK                            x       y       z     vdW  Elec       q    Type
REMARK                         _______ _______ _______ _____ _____    ______ ____
ROOT
ATOM      1  C   UNL     1     -10.797   7.025 129.302  0.00  0.00    +0.000 A 
ATOM      2  C   UNL     1     -11.004   8.173 128.644  0.00  0.00    +0.000 A 
ATOM      3  F   UNL     1     -10.223   8.635 127.653  0.00  0.00    +0.000 F 
ATOM      4  C   UNL     1     -12.204   8.937 128.995  0.00  0.00    +0.000 A 
ATOM      5  N   UNL     1     -12.988   8.667 129.985  0.00  0.00    +0.000 NA
ATOM      6  C   UNL     1     -12.699   7.551 130.730  0.00  0.00    +0.000 A 
ATOM      7  O   UNL     1     -13.322   7.253 131.748  0.00  0.00    +0.000 OA
ATOM      8  N   UNL     1     -11.682   6.722 130.300  0.00  0.00    +0.000 N 
ATOM      9  H   UNL     1     -11.599   5.857 130.812  0.00  0.00    +0.000 HD
ENDROOT
BRANCH   1  10
ATOM     10  N   UNL     1      -9.761   6.180 129.006  0.00  0.00    +0.000 N 
ATOM     11  H   UNL     1      -8.851   6.612 128.860  0.00  0.00    +0.000 HD
ATOM     12  H   UNL     1      -9.763   5.246 129.397  0.00  0.00    +0.000 HD
ENDBRANCH   1  10
TORSDOF 1
ENDMDL
MODEL 8
REMARK VINA RESULT:      -4.2      2.611      3.459
REMARK  Name = Flucytosine
REMARK  1 active torsions:
REMARK  status: ('A' for Active; 'I' for Inactive)
REMARK    1  A    between atoms: N_1  and  C_2
REMARK                            x       y       z     vdW  Elec       q    Type
REMARK                         _______ _______ _______ _____ _____    ______ ____
ROOT
ATOM      1  C   UNL     1     -10.739   6.157 131.451  0.00  0.00    +0.000 A 
ATOM      2  C   UNL     1     -11.839   6.727 130.945  0.00  0.00    +0.000 A 
ATOM      3  F   UNL     1     -12.903   7.109 131.672  0.00  0.00    +0.000 F 
ATOM      4  C   UNL     1     -11.846   7.007 129.508  0.00  0.00    +0.000 A 
ATOM      5  N   UNL     1     -10.942   6.612 128.674  0.00  0.00    +0.000 NA
ATOM      6  C   UNL     1      -9.872   5.921 129.188  0.00  0.00    +0.000 A 
ATOM      7  O   UNL     1      -9.003   5.420 128.476  0.00  0.00    +0.000 OA
ATOM      8  N   UNL     1      -9.761   5.811 130.559  0.00  0.00    +0.000 N 
ATOM      9  H   UNL     1      -8.895   5.408 130.881  0.00  0.00    +0.000 HD
ENDROOT
BRANCH   1  10
ATOM     10  N   UNL     1     -10.576   5.926 132.791  0.00  0.00    +0.000 N 
ATOM     11  H   UNL     1     -10.898   5.024 133.138  0.00  0.00    +0.000 HD
ATOM     12  H   UNL     1      -9.784   6.339 133.268  0.00  0.00    +0.000 HD
ENDBRANCH   1  10
TORSDOF 1
ENDMDL
MODEL 9
REMARK VINA RESULT:      -4.0     12.263     13.027
REMARK  Name = Flucytosine
REMARK  1 active torsions:
REMARK  status: ('A' for Active; 'I' for Inactive)
REMARK    1  A    between atoms: N_1  and  C_2
REMARK                            x       y       z     vdW  Elec       q    Type
REMARK                         _______ _______ _______ _____ _____    ______ ____
ROOT
ATOM      1  C   UNL     1      -6.760  -2.900 124.085  0.00  0.00    +0.000 A 
ATOM      2  C   UNL     1      -7.032  -2.153 123.007  0.00  0.00    +0.000 A 
ATOM      3  F   UNL     1      -6.116  -1.747 122.111  0.00  0.00    +0.000 F 
ATOM      4  C   UNL     1      -8.436  -1.817 122.765  0.00  0.00    +0.000 A 
ATOM      5  N   UNL     1      -9.405  -2.055 123.585  0.00  0.00    +0.000 NA
ATOM      6  C   UNL     1      -9.096  -2.718 124.747  0.00  0.00    +0.000 A 
ATOM      7  O   UNL     1      -9.921  -2.913 125.638  0.00  0.00    +0.000 OA
ATOM      8  N   UNL     1      -7.813  -3.202 124.904  0.00  0.00    +0.000 N 
ATOM      9  H   UNL     1      -7.679  -3.788 125.714  0.00  0.00    +0.000 HD
ENDROOT
BRANCH   1  10
ATOM     10  N   UNL     1      -5.500  -3.353 124.372  0.00  0.00    +0.000 N 
ATOM     11  H   UNL     1      -4.822  -2.652 124.667  0.00  0.00    +0.000 HD
ATOM     12  H   UNL     1      -5.388  -4.282 124.757  0.00  0.00    +0.000 HD
ENDBRANCH   1  10
TORSDOF 1
ENDMDL
