MODEL 1
REMARK VINA RESULT:      -7.9      0.000      0.000
REMARK  Name = Flucloxacillin
REMARK  8 active torsions:
REMARK  status: ('A' for Active; 'I' for Inactive)
REMARK    1  A    between atoms: C_4  and  C_5
REMARK    2  A    between atoms: C_4  and  C_6
REMARK    3  A    between atoms: CA_7  and  C_29
REMARK    4  A    between atoms: CA_11  and  N_12
REMARK    5  A    between atoms: C_13  and  C_15
REMARK    6  A    between atoms: C_16  and  C_17
REMARK    7  A    between atoms: C_20  and  C_21
REMARK    8  A    between atoms: C_29  and  O_30
REMARK                            x       y       z     vdW  Elec       q    Type
REMARK                         _______ _______ _______ _____ _____    ______ ____
ROOT
ATOM      1  N   UNL     1      -7.569   1.069 127.206  0.00  0.00    +0.000 N 
ATOM      2  C   UNL     1      -6.971   2.232 127.647  0.00  0.00    +0.000 C 
ATOM      3  O   UNL     1      -5.853   2.234 128.150  0.00  0.00    +0.000 OA
ATOM      4  H   UNL     1      -8.457   1.117 126.717  0.00  0.00    +0.000 HD
ENDROOT
BRANCH   1  14
ATOM      5  C   UNL     1      -7.498  -1.470 126.688  0.00  0.00    +0.000 C 
ATOM      6  S   UNL     1      -8.816  -1.225 125.446  0.00  0.00    +0.000 S 
ATOM      7  C   UNL     1      -7.946  -2.383 124.257  0.00  0.00    +0.000 C 
ATOM      8  C   UNL     1      -8.441  -2.022 122.854  0.00  0.00    +0.000 C 
ATOM      9  C   UNL     1      -8.374  -3.800 124.684  0.00  0.00    +0.000 C 
ATOM     10  CA  UNL     1      -6.448  -2.052 124.454  0.00  0.00    +0.000 C 
ATOM     11  N   UNL     1      -6.284  -1.701 125.884  0.00  0.00    +0.000 N 
ATOM     12  C   UNL     1      -5.710  -0.510 126.263  0.00  0.00    +0.000 C 
ATOM     13  O   UNL     1      -4.774   0.102 125.790  0.00  0.00    +0.000 OA
ATOM     14  CA  UNL     1      -6.831  -0.228 127.305  0.00  0.00    +0.000 C 
BRANCH  10  15
ATOM     15  C   UNL     1      -5.378  -3.079 124.004  0.00  0.00    +0.000 C 
ATOM     16  OXT UNL     1      -4.856  -3.872 124.780  0.00  0.00    +0.000 OA
BRANCH  15  17
ATOM     17  O   UNL     1      -4.973  -3.091 122.718  0.00  0.00    +0.000 OA
ATOM     18  H   UNL     1      -5.183  -2.359 122.117  0.00  0.00    +0.000 HD
ENDBRANCH  15  17
ENDBRANCH  10  15
ENDBRANCH   1  14
BRANCH   2  19
ATOM     19  C   UNL     1      -7.727   3.455 127.489  0.00  0.00    +0.000 A 
ATOM     20  C   UNL     1      -8.407   4.181 128.441  0.00  0.00    +0.000 A 
ATOM     21  C   UNL     1      -8.668   4.029 129.881  0.00  0.00    +0.000 C 
ATOM     22  O   UNL     1      -8.889   5.322 127.875  0.00  0.00    +0.000 OA
ATOM     23  N   UNL     1      -8.550   5.360 126.538  0.00  0.00    +0.000 NA
ATOM     24  C   UNL     1      -7.836   4.248 126.308  0.00  0.00    +0.000 A 
BRANCH  24  25
ATOM     25  C   UNL     1      -7.287   3.935 124.996  0.00  0.00    +0.000 A 
ATOM     26  C   UNL     1      -7.956   3.127 124.070  0.00  0.00    +0.000 A 
ATOM     27 CL   UNL     1      -9.455   2.339 124.426  0.00  0.00    +0.000 Cl
ATOM     28  C   UNL     1      -7.439   2.960 122.778  0.00  0.00    +0.000 A 
ATOM     29  C   UNL     1      -6.256   3.597 122.400  0.00  0.00    +0.000 A 
ATOM     30  C   UNL     1      -5.573   4.386 123.321  0.00  0.00    +0.000 A 
ATOM     31  C   UNL     1      -6.086   4.543 124.606  0.00  0.00    +0.000 A 
ATOM     32  F   UNL     1      -5.406   5.314 125.472  0.00  0.00    +0.000 F 
ENDBRANCH  24  25
ENDBRANCH   2  19
TORSDOF 5
ENDMDL
MODEL 2
REMARK VINA RESULT:      -7.9      3.837      6.022
REMARK  Name = Flucloxacillin
REMARK  8 active torsions:
REMARK  status: ('A' for Active; 'I' for Inactive)
REMARK    1  A    between atoms: C_4  and  C_5
REMARK    2  A    between atoms: C_4  and  C_6
REMARK    3  A    between atoms: CA_7  and  C_29
REMARK    4  A    between atoms: CA_11  and  N_12
REMARK    5  A    between atoms: C_13  and  C_15
REMARK    6  A    between atoms: C_16  and  C_17
REMARK    7  A    between atoms: C_20  and  C_21
REMARK    8  A    between atoms: C_29  and  O_30
REMARK                            x       y       z     vdW  Elec       q    Type
REMARK                         _______ _______ _______ _____ _____    ______ ____
ROOT
ATOM      1  N   UNL     1      -8.164   2.419 128.107  0.00  0.00    +0.000 N 
ATOM      2  C   UNL     1      -7.634   2.299 129.375  0.00  0.00    +0.000 C 
ATOM      3  O   UNL     1      -6.466   2.583 129.617  0.00  0.00    +0.000 OA
ATOM      4  H   UNL     1      -9.155   2.258 127.960  0.00  0.00    +0.000 HD
ENDROOT
BRANCH   1  14
ATOM      5  C   UNL     1      -6.948   1.968 125.863  0.00  0.00    +0.000 C 
ATOM      6  S   UNL     1      -7.961   0.463 125.648  0.00  0.00    +0.000 S 
ATOM      7  C   UNL     1      -8.198   0.850 123.830  0.00  0.00    +0.000 C 
ATOM      8  C   UNL     1      -9.469   0.120 123.388  0.00  0.00    +0.000 C 
ATOM      9  C   UNL     1      -6.936   0.308 123.132  0.00  0.00    +0.000 C 
ATOM     10  CA  UNL     1      -8.365   2.388 123.802  0.00  0.00    +0.000 C 
ATOM     11  N   UNL     1      -7.505   2.919 124.884  0.00  0.00    +0.000 N 
ATOM     12  C   UNL     1      -8.014   3.745 125.858  0.00  0.00    +0.000 C 
ATOM     13  O   UNL     1      -8.834   4.638 125.787  0.00  0.00    +0.000 OA
ATOM     14  CA  UNL     1      -7.314   2.944 126.994  0.00  0.00    +0.000 C 
BRANCH  10  15
ATOM     15  C   UNL     1      -8.133   3.153 122.475  0.00  0.00    +0.000 C 
ATOM     16  OXT UNL     1      -8.953   3.160 121.564  0.00  0.00    +0.000 OA
BRANCH  15  17
ATOM     17  O   UNL     1      -6.973   3.816 122.289  0.00  0.00    +0.000 OA
ATOM     18  H   UNL     1      -6.133   3.343 122.189  0.00  0.00    +0.000 HD
ENDBRANCH  15  17
ENDBRANCH  10  15
ENDBRANCH   1  14
BRANCH   2  19
ATOM     19  C   UNL     1      -8.522   1.817 130.411  0.00  0.00    +0.000 A 
ATOM     20  C   UNL     1      -8.673   0.538 130.896  0.00  0.00    +0.000 A 
ATOM     21  C   UNL     1      -8.084  -0.774 130.581  0.00  0.00    +0.000 C 
ATOM     22  O   UNL     1      -9.543   0.554 131.942  0.00  0.00    +0.000 OA
ATOM     23  N   UNL     1      -9.995   1.841 132.155  0.00  0.00    +0.000 NA
ATOM     24  C   UNL     1      -9.368   2.605 131.247  0.00  0.00    +0.000 A 
BRANCH  24  25
ATOM     25  C   UNL     1      -9.581   4.043 131.162  0.00  0.00    +0.000 A 
ATOM     26  C   UNL     1      -8.641   4.975 131.620  0.00  0.00    +0.000 A 
ATOM     27 CL   UNL     1      -7.179   4.512 132.420  0.00  0.00    +0.000 Cl
ATOM     28  C   UNL     1      -8.844   6.344 131.402  0.00  0.00    +0.000 A 
ATOM     29  C   UNL     1      -9.980   6.794 130.726  0.00  0.00    +0.000 A 
ATOM     30  C   UNL     1     -10.930   5.876 130.285  0.00  0.00    +0.000 A 
ATOM     31  C   UNL     1     -10.728   4.516 130.511  0.00  0.00    +0.000 A 
ATOM     32  F   UNL     1     -11.661   3.655 130.071  0.00  0.00    +0.000 F 
ENDBRANCH  24  25
ENDBRANCH   2  19
TORSDOF 5
ENDMDL
MODEL 3
REMARK VINA RESULT:      -7.8      3.691      5.779
REMARK  Name = Flucloxacillin
REMARK  8 active torsions:
REMARK  status: ('A' for Active; 'I' for Inactive)
REMARK    1  A    between atoms: C_4  and  C_5
REMARK    2  A    between atoms: C_4  and  C_6
REMARK    3  A    between atoms: CA_7  and  C_29
REMARK    4  A    between atoms: CA_11  and  N_12
REMARK    5  A    between atoms: C_13  and  C_15
REMARK    6  A    between atoms: C_16  and  C_17
REMARK    7  A    between atoms: C_20  and  C_21
REMARK    8  A    between atoms: C_29  and  O_30
REMARK                            x       y       z     vdW  Elec       q    Type
REMARK                         _______ _______ _______ _____ _____    ______ ____
ROOT
ATOM      1  N   UNL     1      -7.340   3.906 128.438  0.00  0.00    +0.000 N 
ATOM      2  C   UNL     1      -6.773   4.673 129.435  0.00  0.00    +0.000 C 
ATOM      3  O   UNL     1      -5.886   5.486 129.201  0.00  0.00    +0.000 OA
ATOM      4  H   UNL     1      -8.130   3.307 128.654  0.00  0.00    +0.000 HD
ENDROOT
BRANCH   1  14
ATOM      5  C   UNL     1      -6.647   2.814 126.191  0.00  0.00    +0.000 C 
ATOM      6  S   UNL     1      -7.398   1.246 126.755  0.00  0.00    +0.000 S 
ATOM      7  C   UNL     1      -8.136   0.959 125.057  0.00  0.00    +0.000 C 
ATOM      8  C   UNL     1      -9.326   0.014 125.250  0.00  0.00    +0.000 C 
ATOM      9  C   UNL     1      -7.007   0.319 124.226  0.00  0.00    +0.000 C 
ATOM     10  CA  UNL     1      -8.577   2.371 124.605  0.00  0.00    +0.000 C 
ATOM     11  N   UNL     1      -7.587   3.316 125.173  0.00  0.00    +0.000 N 
ATOM     12  C   UNL     1      -7.982   4.381 125.947  0.00  0.00    +0.000 C 
ATOM     13  O   UNL     1      -8.940   5.120 125.846  0.00  0.00    +0.000 OA
ATOM     14  CA  UNL     1      -6.894   4.085 127.021  0.00  0.00    +0.000 C 
BRANCH  10  15
ATOM     15  C   UNL     1      -8.816   2.647 123.100  0.00  0.00    +0.000 C 
ATOM     16  OXT UNL     1      -9.483   1.903 122.390  0.00  0.00    +0.000 OA
BRANCH  15  17
ATOM     17  O   UNL     1      -8.247   3.728 122.528  0.00  0.00    +0.000 OA
ATOM     18  H   UNL     1      -7.288   3.862 122.547  0.00  0.00    +0.000 HD
ENDBRANCH  15  17
ENDBRANCH  10  15
ENDBRANCH   1  14
BRANCH   2  19
ATOM     19  C   UNL     1      -7.275   4.473 130.777  0.00  0.00    +0.000 A 
ATOM     20  C   UNL     1      -6.650   3.894 131.858  0.00  0.00    +0.000 A 
ATOM     21  C   UNL     1      -5.344   3.256 132.090  0.00  0.00    +0.000 C 
ATOM     22  O   UNL     1      -7.449   4.009 132.954  0.00  0.00    +0.000 OA
ATOM     23  N   UNL     1      -8.621   4.651 132.612  0.00  0.00    +0.000 NA
ATOM     24  C   UNL     1      -8.512   4.947 131.308  0.00  0.00    +0.000 A 
BRANCH  24  25
ATOM     25  C   UNL     1      -9.561   5.645 130.579  0.00  0.00    +0.000 A 
ATOM     26  C   UNL     1     -10.774   5.036 130.231  0.00  0.00    +0.000 A 
ATOM     27 CL   UNL     1     -11.107   3.368 130.546  0.00  0.00    +0.000 Cl
ATOM     28  C   UNL     1     -11.796   5.791 129.639  0.00  0.00    +0.000 A 
ATOM     29  C   UNL     1     -11.619   7.153 129.392  0.00  0.00    +0.000 A 
ATOM     30  C   UNL     1     -10.410   7.763 129.716  0.00  0.00    +0.000 A 
ATOM     31  C   UNL     1      -9.394   7.008 130.297  0.00  0.00    +0.000 A 
ATOM     32  F   UNL     1      -8.240   7.624 130.601  0.00  0.00    +0.000 F 
ENDBRANCH  24  25
ENDBRANCH   2  19
TORSDOF 5
ENDMDL
MODEL 4
REMARK VINA RESULT:      -7.7      3.473      7.091
REMARK  Name = Flucloxacillin
REMARK  8 active torsions:
REMARK  status: ('A' for Active; 'I' for Inactive)
REMARK    1  A    between atoms: C_4  and  C_5
REMARK    2  A    between atoms: C_4  and  C_6
REMARK    3  A    between atoms: CA_7  and  C_29
REMARK    4  A    between atoms: CA_11  and  N_12
REMARK    5  A    between atoms: C_13  and  C_15
REMARK    6  A    between atoms: C_16  and  C_17
REMARK    7  A    between atoms: C_20  and  C_21
REMARK    8  A    between atoms: C_29  and  O_30
REMARK                            x       y       z     vdW  Elec       q    Type
REMARK                         _______ _______ _______ _____ _____    ______ ____
ROOT
ATOM      1  N   UNL     1      -8.071  -0.545 128.939  0.00  0.00    +0.000 N 
ATOM      2  C   UNL     1      -7.393  -1.076 127.861  0.00  0.00    +0.000 C 
ATOM      3  O   UNL     1      -6.181  -0.943 127.730  0.00  0.00    +0.000 OA
ATOM      4  H   UNL     1      -9.058  -0.747 129.060  0.00  0.00    +0.000 HD
ENDROOT
BRANCH   1  14
ATOM      5  C   UNL     1      -7.415   1.719 130.017  0.00  0.00    +0.000 C 
ATOM      6  S   UNL     1      -8.808   2.510 129.137  0.00  0.00    +0.000 S 
ATOM      7  C   UNL     1      -9.241   3.506 130.664  0.00  0.00    +0.000 C 
ATOM      8  C   UNL     1     -10.715   3.898 130.528  0.00  0.00    +0.000 C 
ATOM      9  C   UNL     1      -8.303   4.728 130.632  0.00  0.00    +0.000 C 
ATOM     10  CA  UNL     1      -9.003   2.514 131.828  0.00  0.00    +0.000 C 
ATOM     11  N   UNL     1      -7.862   1.662 131.420  0.00  0.00    +0.000 N 
ATOM     12  C   UNL     1      -7.964   0.291 131.415  0.00  0.00    +0.000 C 
ATOM     13  O   UNL     1      -8.522  -0.463 132.186  0.00  0.00    +0.000 OA
ATOM     14  CA  UNL     1      -7.315   0.185 130.004  0.00  0.00    +0.000 C 
BRANCH  10  15
ATOM     15  C   UNL     1      -8.808   3.062 133.264  0.00  0.00    +0.000 C 
ATOM     16  OXT UNL     1      -7.772   2.898 133.899  0.00  0.00    +0.000 OA
BRANCH  15  17
ATOM     17  O   UNL     1      -9.821   3.721 133.863  0.00  0.00    +0.000 OA
ATOM     18  H   UNL     1     -10.146   3.457 134.737  0.00  0.00    +0.000 HD
ENDBRANCH  15  17
ENDBRANCH  10  15
ENDBRANCH   1  14
BRANCH   2  19
ATOM     19  C   UNL     1      -8.181  -1.798 126.886  0.00  0.00    +0.000 A 
ATOM     20  C   UNL     1      -8.782  -3.032 127.001  0.00  0.00    +0.000 A 
ATOM     21  C   UNL     1      -8.848  -4.067 128.045  0.00  0.00    +0.000 C 
ATOM     22  O   UNL     1      -9.513  -3.281 125.880  0.00  0.00    +0.000 OA
ATOM     23  N   UNL     1      -9.394  -2.226 125.000  0.00  0.00    +0.000 NA
ATOM     24  C   UNL     1      -8.609  -1.324 125.610  0.00  0.00    +0.000 A 
BRANCH  24  25
ATOM     25  C   UNL     1      -8.257  -0.055 124.990  0.00  0.00    +0.000 A 
ATOM     26  C   UNL     1      -7.267   0.057 124.005  0.00  0.00    +0.000 A 
ATOM     27 CL   UNL     1      -6.298  -1.282 123.496  0.00  0.00    +0.000 Cl
ATOM     28  C   UNL     1      -7.056   1.281 123.356  0.00  0.00    +0.000 A 
ATOM     29  C   UNL     1      -7.828   2.398 123.681  0.00  0.00    +0.000 A 
ATOM     30  C   UNL     1      -8.799   2.302 124.673  0.00  0.00    +0.000 A 
ATOM     31  C   UNL     1      -9.001   1.085 125.321  0.00  0.00    +0.000 A 
ATOM     32  F   UNL     1      -9.948   1.022 126.272  0.00  0.00    +0.000 F 
ENDBRANCH  24  25
ENDBRANCH   2  19
TORSDOF 5
ENDMDL
MODEL 5
REMARK VINA RESULT:      -7.7      3.038      6.201
REMARK  Name = Flucloxacillin
REMARK  8 active torsions:
REMARK  status: ('A' for Active; 'I' for Inactive)
REMARK    1  A    between atoms: C_4  and  C_5
REMARK    2  A    between atoms: C_4  and  C_6
REMARK    3  A    between atoms: CA_7  and  C_29
REMARK    4  A    between atoms: CA_11  and  N_12
REMARK    5  A    between atoms: C_13  and  C_15
REMARK    6  A    between atoms: C_16  and  C_17
REMARK    7  A    between atoms: C_20  and  C_21
REMARK    8  A    between atoms: C_29  and  O_30
REMARK                            x       y       z     vdW  Elec       q    Type
REMARK                         _______ _______ _______ _____ _____    ______ ____
ROOT
ATOM      1  N   UNL     1      -7.454   0.021 127.910  0.00  0.00    +0.000 N 
ATOM      2  C   UNL     1      -7.176  -1.264 127.493  0.00  0.00    +0.000 C 
ATOM      3  O   UNL     1      -6.136  -1.834 127.804  0.00  0.00    +0.000 OA
ATOM      4  H   UNL     1      -8.361   0.429 127.707  0.00  0.00    +0.000 HD
ENDROOT
BRANCH   1  14
ATOM      5  C   UNL     1      -5.188   1.256 128.153  0.00  0.00    +0.000 C 
ATOM      6  S   UNL     1      -5.134   1.455 126.337  0.00  0.00    +0.000 S 
ATOM      7  C   UNL     1      -4.517   3.215 126.523  0.00  0.00    +0.000 C 
ATOM      8  C   UNL     1      -4.874   3.944 125.225  0.00  0.00    +0.000 C 
ATOM      9  C   UNL     1      -2.994   3.092 126.727  0.00  0.00    +0.000 C 
ATOM     10  CA  UNL     1      -5.309   3.755 127.737  0.00  0.00    +0.000 C 
ATOM     11  N   UNL     1      -5.498   2.608 128.654  0.00  0.00    +0.000 N 
ATOM     12  C   UNL     1      -6.749   2.245 129.092  0.00  0.00    +0.000 C 
ATOM     13  O   UNL     1      -7.703   2.925 129.413  0.00  0.00    +0.000 OA
ATOM     14  CA  UNL     1      -6.486   0.739 128.796  0.00  0.00    +0.000 C 
BRANCH  10  15
ATOM     15  C   UNL     1      -4.782   4.998 128.496  0.00  0.00    +0.000 C 
ATOM     16  OXT UNL     1      -4.545   6.063 127.936  0.00  0.00    +0.000 OA
BRANCH  15  17
ATOM     17  O   UNL     1      -4.539   4.911 129.820  0.00  0.00    +0.000 OA
ATOM     18  H   UNL     1      -4.818   4.137 130.333  0.00  0.00    +0.000 HD
ENDBRANCH  15  17
ENDBRANCH  10  15
ENDBRANCH   1  14
BRANCH   2  19
ATOM     19  C   UNL     1      -8.171  -1.912 126.666  0.00  0.00    +0.000 A 
ATOM     20  C   UNL     1      -8.871  -3.073 126.904  0.00  0.00    +0.000 A 
ATOM     21  C   UNL     1      -8.887  -4.082 127.976  0.00  0.00    +0.000 C 
ATOM     22  O   UNL     1      -9.784  -3.258 125.911  0.00  0.00    +0.000 OA
ATOM     23  N   UNL     1      -9.690  -2.233 124.992  0.00  0.00    +0.000 NA
ATOM     24  C   UNL     1      -8.734  -1.412 125.454  0.00  0.00    +0.000 A 
BRANCH  24  25
ATOM     25  C   UNL     1      -8.350  -0.196 124.753  0.00  0.00    +0.000 A 
ATOM     26  C   UNL     1      -7.309  -0.158 123.817  0.00  0.00    +0.000 A 
ATOM     27 CL   UNL     1      -6.312  -1.529 123.472  0.00  0.00    +0.000 Cl
ATOM     28  C   UNL     1      -7.064   1.010 123.082  0.00  0.00    +0.000 A 
ATOM     29  C   UNL     1      -7.853   2.146 123.273  0.00  0.00    +0.000 A 
ATOM     30  C   UNL     1      -8.877   2.125 124.216  0.00  0.00    +0.000 A 
ATOM     31  C   UNL     1      -9.112   0.964 124.949  0.00  0.00    +0.000 A 
ATOM     32  F   UNL     1     -10.109   0.974 125.849  0.00  0.00    +0.000 F 
ENDBRANCH  24  25
ENDBRANCH   2  19
TORSDOF 5
ENDMDL
MODEL 6
REMARK VINA RESULT:      -7.6      5.022      8.784
REMARK  Name = Flucloxacillin
REMARK  8 active torsions:
REMARK  status: ('A' for Active; 'I' for Inactive)
REMARK    1  A    between atoms: C_4  and  C_5
REMARK    2  A    between atoms: C_4  and  C_6
REMARK    3  A    between atoms: CA_7  and  C_29
REMARK    4  A    between atoms: CA_11  and  N_12
REMARK    5  A    between atoms: C_13  and  C_15
REMARK    6  A    between atoms: C_16  and  C_17
REMARK    7  A    between atoms: C_20  and  C_21
REMARK    8  A    between atoms: C_29  and  O_30
REMARK                            x       y       z     vdW  Elec       q    Type
REMARK                         _______ _______ _______ _____ _____    ______ ____
ROOT
ATOM      1  N   UNL     1      -7.544   0.758 130.512  0.00  0.00    +0.000 N 
ATOM      2  C   UNL     1      -7.198  -0.535 130.848  0.00  0.00    +0.000 C 
ATOM      3  O   UNL     1      -7.861  -1.197 131.639  0.00  0.00    +0.000 OA
ATOM      4  H   UNL     1      -7.022   1.244 129.790  0.00  0.00    +0.000 HD
ENDROOT
BRANCH   1  14
ATOM      5  C   UNL     1      -8.629   2.149 132.411  0.00  0.00    +0.000 C 
ATOM      6  S   UNL     1      -6.966   2.735 132.893  0.00  0.00    +0.000 S 
ATOM      7  C   UNL     1      -7.625   4.471 133.150  0.00  0.00    +0.000 C 
ATOM      8  C   UNL     1      -6.428   5.417 133.022  0.00  0.00    +0.000 C 
ATOM      9  C   UNL     1      -8.225   4.471 134.570  0.00  0.00    +0.000 C 
ATOM     10  CA  UNL     1      -8.641   4.651 131.998  0.00  0.00    +0.000 C 
ATOM     11  N   UNL     1      -9.251   3.321 131.770  0.00  0.00    +0.000 N 
ATOM     12  C   UNL     1      -9.248   2.741 130.524  0.00  0.00    +0.000 C 
ATOM     13  O   UNL     1      -9.401   3.230 129.423  0.00  0.00    +0.000 OA
ATOM     14  CA  UNL     1      -8.778   1.370 131.093  0.00  0.00    +0.000 C 
BRANCH  10  15
ATOM     15  C   UNL     1      -9.725   5.753 132.107  0.00  0.00    +0.000 C 
ATOM     16  OXT UNL     1      -9.574   6.875 131.637  0.00  0.00    +0.000 OA
BRANCH  15  17
ATOM     17  O   UNL     1     -10.871   5.491 132.768  0.00  0.00    +0.000 OA
ATOM     18  H   UNL     1     -11.045   4.615 133.146  0.00  0.00    +0.000 HD
ENDBRANCH  15  17
ENDBRANCH  10  15
ENDBRANCH   1  14
BRANCH   2  19
ATOM     19  C   UNL     1      -6.011  -1.077 130.223  0.00  0.00    +0.000 A 
ATOM     20  C   UNL     1      -4.700  -0.994 130.636  0.00  0.00    +0.000 A 
ATOM     21  C   UNL     1      -3.999  -0.353 131.761  0.00  0.00    +0.000 C 
ATOM     22  O   UNL     1      -3.919  -1.738 129.805  0.00  0.00    +0.000 OA
ATOM     23  N   UNL     1      -4.698  -2.309 128.819  0.00  0.00    +0.000 NA
ATOM     24  C   UNL     1      -5.958  -1.928 129.079  0.00  0.00    +0.000 A 
BRANCH  24  25
ATOM     25  C   UNL     1      -7.081  -2.346 128.252  0.00  0.00    +0.000 A 
ATOM     26  C   UNL     1      -7.296  -1.848 126.961  0.00  0.00    +0.000 A 
ATOM     27 CL   UNL     1      -6.305  -0.618 126.256  0.00  0.00    +0.000 Cl
ATOM     28  C   UNL     1      -8.321  -2.376 126.164  0.00  0.00    +0.000 A 
ATOM     29  C   UNL     1      -9.137  -3.401 126.647  0.00  0.00    +0.000 A 
ATOM     30  C   UNL     1      -8.945  -3.887 127.937  0.00  0.00    +0.000 A 
ATOM     31  C   UNL     1      -7.930  -3.355 128.728  0.00  0.00    +0.000 A 
ATOM     32  F   UNL     1      -7.767  -3.847 129.968  0.00  0.00    +0.000 F 
ENDBRANCH  24  25
ENDBRANCH   2  19
TORSDOF 5
ENDMDL
MODEL 7
REMARK VINA RESULT:      -7.6      3.406      8.213
REMARK  Name = Flucloxacillin
REMARK  8 active torsions:
REMARK  status: ('A' for Active; 'I' for Inactive)
REMARK    1  A    between atoms: C_4  and  C_5
REMARK    2  A    between atoms: C_4  and  C_6
REMARK    3  A    between atoms: CA_7  and  C_29
REMARK    4  A    between atoms: CA_11  and  N_12
REMARK    5  A    between atoms: C_13  and  C_15
REMARK    6  A    between atoms: C_16  and  C_17
REMARK    7  A    between atoms: C_20  and  C_21
REMARK    8  A    between atoms: C_29  and  O_30
REMARK                            x       y       z     vdW  Elec       q    Type
REMARK                         _______ _______ _______ _____ _____    ______ ____
ROOT
ATOM      1  N   UNL     1      -7.975   1.713 128.864  0.00  0.00    +0.000 N 
ATOM      2  C   UNL     1      -8.084   1.379 127.529  0.00  0.00    +0.000 C 
ATOM      3  O   UNL     1      -9.109   1.589 126.891  0.00  0.00    +0.000 OA
ATOM      4  H   UNL     1      -7.085   1.604 129.337  0.00  0.00    +0.000 HD
ENDROOT
BRANCH   1  14
ATOM      5  C   UNL     1      -9.047   2.505 131.087  0.00  0.00    +0.000 C 
ATOM      6  S   UNL     1      -7.417   2.343 131.898  0.00  0.00    +0.000 S 
ATOM      7  C   UNL     1      -7.688   3.951 132.822  0.00  0.00    +0.000 C 
ATOM      8  C   UNL     1      -6.301   4.476 133.201  0.00  0.00    +0.000 C 
ATOM      9  C   UNL     1      -8.531   3.574 134.055  0.00  0.00    +0.000 C 
ATOM     10  CA  UNL     1      -8.394   4.855 131.784  0.00  0.00    +0.000 C 
ATOM     11  N   UNL     1      -9.243   3.961 130.964  0.00  0.00    +0.000 N 
ATOM     12  C   UNL     1      -9.138   3.939 129.593  0.00  0.00    +0.000 C 
ATOM     13  O   UNL     1      -8.959   4.840 128.799  0.00  0.00    +0.000 OA
ATOM     14  CA  UNL     1      -9.120   2.383 129.555  0.00  0.00    +0.000 C 
BRANCH  10  15
ATOM     15  C   UNL     1      -9.189   6.092 132.271  0.00  0.00    +0.000 C 
ATOM     16  OXT UNL     1      -9.714   6.886 131.498  0.00  0.00    +0.000 OA
BRANCH  15  17
ATOM     17  O   UNL     1      -9.290   6.334 133.594  0.00  0.00    +0.000 OA
ATOM     18  H   UNL     1      -8.567   6.118 134.202  0.00  0.00    +0.000 HD
ENDBRANCH  15  17
ENDBRANCH  10  15
ENDBRANCH   1  14
BRANCH   2  19
ATOM     19  C   UNL     1      -6.927   0.765 126.915  0.00  0.00    +0.000 A 
ATOM     20  C   UNL     1      -5.802   1.365 126.395  0.00  0.00    +0.000 A 
ATOM     21  C   UNL     1      -5.345   2.754 126.221  0.00  0.00    +0.000 C 
ATOM     22  O   UNL     1      -4.916   0.404 126.014  0.00  0.00    +0.000 OA
ATOM     23  N   UNL     1      -5.447  -0.845 126.258  0.00  0.00    +0.000 NA
ATOM     24  C   UNL     1      -6.649  -0.632 126.817  0.00  0.00    +0.000 A 
BRANCH  24  25
ATOM     25  C   UNL     1      -7.519  -1.723 127.230  0.00  0.00    +0.000 A 
ATOM     26  C   UNL     1      -8.382  -2.379 126.343  0.00  0.00    +0.000 A 
ATOM     27 CL   UNL     1      -8.572  -1.895 124.693  0.00  0.00    +0.000 Cl
ATOM     28  C   UNL     1      -9.105  -3.502 126.766  0.00  0.00    +0.000 A 
ATOM     29  C   UNL     1      -8.973  -3.980 128.071  0.00  0.00    +0.000 A 
ATOM     30  C   UNL     1      -8.133  -3.322 128.966  0.00  0.00    +0.000 A 
ATOM     31  C   UNL     1      -7.422  -2.202 128.543  0.00  0.00    +0.000 A 
ATOM     32  F   UNL     1      -6.617  -1.590 129.429  0.00  0.00    +0.000 F 
ENDBRANCH  24  25
ENDBRANCH   2  19
TORSDOF 5
ENDMDL
MODEL 8
REMARK VINA RESULT:      -7.6      4.204      6.160
REMARK  Name = Flucloxacillin
REMARK  8 active torsions:
REMARK  status: ('A' for Active; 'I' for Inactive)
REMARK    1  A    between atoms: C_4  and  C_5
REMARK    2  A    between atoms: C_4  and  C_6
REMARK    3  A    between atoms: CA_7  and  C_29
REMARK    4  A    between atoms: CA_11  and  N_12
REMARK    5  A    between atoms: C_13  and  C_15
REMARK    6  A    between atoms: C_16  and  C_17
REMARK    7  A    between atoms: C_20  and  C_21
REMARK    8  A    between atoms: C_29  and  O_30
REMARK                            x       y       z     vdW  Elec       q    Type
REMARK                         _______ _______ _______ _____ _____    ______ ____
ROOT
ATOM      1  N   UNL     1      -7.345  -0.140 128.524  0.00  0.00    +0.000 N 
ATOM      2  C   UNL     1      -7.054   0.534 129.692  0.00  0.00    +0.000 C 
ATOM      3  O   UNL     1      -6.583   1.666 129.686  0.00  0.00    +0.000 OA
ATOM      4  H   UNL     1      -7.814  -1.038 128.567  0.00  0.00    +0.000 HD
ENDROOT
BRANCH   1  14
ATOM      5  C   UNL     1      -6.827  -0.374 125.995  0.00  0.00    +0.000 C 
ATOM      6  S   UNL     1      -7.297  -2.137 126.091  0.00  0.00    +0.000 S 
ATOM      7  C   UNL     1      -8.213  -2.008 124.461  0.00  0.00    +0.000 C 
ATOM      8  C   UNL     1      -9.240  -3.144 124.445  0.00  0.00    +0.000 C 
ATOM      9  C   UNL     1      -7.133  -2.178 123.374  0.00  0.00    +0.000 C 
ATOM     10  CA  UNL     1      -8.880  -0.614 124.525  0.00  0.00    +0.000 C 
ATOM     11  N   UNL     1      -7.948   0.258 125.276  0.00  0.00    +0.000 N 
ATOM     12  C   UNL     1      -8.365   0.960 126.382  0.00  0.00    +0.000 C 
ATOM     13  O   UNL     1      -9.412   1.534 126.606  0.00  0.00    +0.000 OA
ATOM     14  CA  UNL     1      -7.116   0.529 127.206  0.00  0.00    +0.000 C 
BRANCH  10  15
ATOM     15  C   UNL     1      -9.348   0.065 123.213  0.00  0.00    +0.000 C 
ATOM     16  OXT UNL     1      -8.930   1.158 122.850  0.00  0.00    +0.000 OA
BRANCH  15  17
ATOM     17  O   UNL     1     -10.274  -0.547 122.447  0.00  0.00    +0.000 OA
ATOM     18  H   UNL     1     -10.943  -1.131 122.835  0.00  0.00    +0.000 HD
ENDBRANCH  15  17
ENDBRANCH  10  15
ENDBRANCH   1  14
BRANCH   2  19
ATOM     19  C   UNL     1      -7.332  -0.159 130.932  0.00  0.00    +0.000 A 
ATOM     20  C   UNL     1      -8.351   0.052 131.832  0.00  0.00    +0.000 A 
ATOM     21  C   UNL     1      -9.470   1.003 131.939  0.00  0.00    +0.000 C 
ATOM     22  O   UNL     1      -8.294  -0.898 132.806  0.00  0.00    +0.000 OA
ATOM     23  N   UNL     1      -7.227  -1.741 132.574  0.00  0.00    +0.000 NA
ATOM     24  C   UNL     1      -6.658  -1.311 131.438  0.00  0.00    +0.000 A 
BRANCH  24  25
ATOM     25  C   UNL     1      -5.493  -1.963 130.857  0.00  0.00    +0.000 A 
ATOM     26  C   UNL     1      -5.593  -3.051 129.982  0.00  0.00    +0.000 A 
ATOM     27 CL   UNL     1      -7.104  -3.792 129.579  0.00  0.00    +0.000 Cl
ATOM     28  C   UNL     1      -4.447  -3.561 129.357  0.00  0.00    +0.000 A 
ATOM     29  C   UNL     1      -3.196  -2.989 129.598  0.00  0.00    +0.000 A 
ATOM     30  C   UNL     1      -3.083  -1.920 130.482  0.00  0.00    +0.000 A 
ATOM     31  C   UNL     1      -4.224  -1.422 131.107  0.00  0.00    +0.000 A 
ATOM     32  F   UNL     1      -4.084  -0.388 131.953  0.00  0.00    +0.000 F 
ENDBRANCH  24  25
ENDBRANCH   2  19
TORSDOF 5
ENDMDL
MODEL 9
REMARK VINA RESULT:      -7.5      1.535      1.903
REMARK  Name = Flucloxacillin
REMARK  8 active torsions:
REMARK  status: ('A' for Active; 'I' for Inactive)
REMARK    1  A    between atoms: C_4  and  C_5
REMARK    2  A    between atoms: C_4  and  C_6
REMARK    3  A    between atoms: CA_7  and  C_29
REMARK    4  A    between atoms: CA_11  and  N_12
REMARK    5  A    between atoms: C_13  and  C_15
REMARK    6  A    between atoms: C_16  and  C_17
REMARK    7  A    between atoms: C_20  and  C_21
REMARK    8  A    between atoms: C_29  and  O_30
REMARK                            x       y       z     vdW  Elec       q    Type
REMARK                         _______ _______ _______ _____ _____    ______ ____
ROOT
ATOM      1  N   UNL     1      -7.639   0.652 127.657  0.00  0.00    +0.000 N 
ATOM      2  C   UNL     1      -7.070   1.740 128.288  0.00  0.00    +0.000 C 
ATOM      3  O   UNL     1      -5.950   1.688 128.782  0.00  0.00    +0.000 OA
ATOM      4  H   UNL     1      -8.531   0.757 127.185  0.00  0.00    +0.000 HD
ENDROOT
BRANCH   1  14
ATOM      5  C   UNL     1      -7.530  -1.782 126.774  0.00  0.00    +0.000 C 
ATOM      6  S   UNL     1      -8.912  -1.403 125.640  0.00  0.00    +0.000 S 
ATOM      7  C   UNL     1      -8.072  -2.350 124.258  0.00  0.00    +0.000 C 
ATOM      8  C   UNL     1      -8.642  -1.806 122.945  0.00  0.00    +0.000 C 
ATOM      9  C   UNL     1      -8.444  -3.827 124.493  0.00  0.00    +0.000 C 
ATOM     10  CA  UNL     1      -6.574  -2.004 124.435  0.00  0.00    +0.000 C 
ATOM     11  N   UNL     1      -6.351  -1.857 125.892  0.00  0.00    +0.000 N 
ATOM     12  C   UNL     1      -5.789  -0.716 126.414  0.00  0.00    +0.000 C 
ATOM     13  O   UNL     1      -4.892  -0.013 125.995  0.00  0.00    +0.000 OA
ATOM     14  CA  UNL     1      -6.866  -0.622 127.535  0.00  0.00    +0.000 C 
BRANCH  10  15
ATOM     15  C   UNL     1      -5.502  -2.921 123.795  0.00  0.00    +0.000 C 
ATOM     16  OXT UNL     1      -5.223  -2.878 122.602  0.00  0.00    +0.000 OA
BRANCH  15  17
ATOM     17  O   UNL     1      -4.865  -3.830 124.562  0.00  0.00    +0.000 OA
ATOM     18  H   UNL     1      -4.038  -4.242 124.272  0.00  0.00    +0.000 HD
ENDBRANCH  15  17
ENDBRANCH  10  15
ENDBRANCH   1  14
BRANCH   2  19
ATOM     19  C   UNL     1      -7.860   2.951 128.340  0.00  0.00    +0.000 A 
ATOM     20  C   UNL     1      -8.700   3.394 129.336  0.00  0.00    +0.000 A 
ATOM     21  C   UNL     1      -9.147   2.867 130.637  0.00  0.00    +0.000 C 
ATOM     22  O   UNL     1      -9.159   4.635 129.018  0.00  0.00    +0.000 OA
ATOM     23  N   UNL     1      -8.644   5.025 127.799  0.00  0.00    +0.000 NA
ATOM     24  C   UNL     1      -7.848   4.022 127.398  0.00  0.00    +0.000 A 
BRANCH  24  25
ATOM     25  C   UNL     1      -7.110   4.070 126.144  0.00  0.00    +0.000 A 
ATOM     26  C   UNL     1      -5.747   4.385 126.080  0.00  0.00    +0.000 A 
ATOM     27 CL   UNL     1      -4.827   4.844 127.471  0.00  0.00    +0.000 Cl
ATOM     28  C   UNL     1      -5.061   4.296 124.861  0.00  0.00    +0.000 A 
ATOM     29  C   UNL     1      -5.724   3.892 123.701  0.00  0.00    +0.000 A 
ATOM     30  C   UNL     1      -7.084   3.596 123.751  0.00  0.00    +0.000 A 
ATOM     31  C   UNL     1      -7.764   3.694 124.963  0.00  0.00    +0.000 A 
ATOM     32  F   UNL     1      -9.075   3.399 124.980  0.00  0.00    +0.000 F 
ENDBRANCH  24  25
ENDBRANCH   2  19
TORSDOF 5
ENDMDL
