MODEL 1
REMARK VINA RESULT:      -5.0      0.000      0.000
REMARK  Name = Fluciclovine (18F)
REMARK  3 active torsions:
REMARK  status: ('A' for Active; 'I' for Inactive)
REMARK    1  A    between atoms: N_1  and  C_2
REMARK    2  A    between atoms: C_2  and  C_7
REMARK    3  A    between atoms: C_7  and  O_8
REMARK                            x       y       z     vdW  Elec       q    Type
REMARK                         _______ _______ _______ _____ _____    ______ ____
ROOT
ATOM      1  C   UNL     1     -10.863   7.272 127.821  0.00  0.00    +0.000 C 
ATOM      2  C   UNL     1     -11.949   7.057 128.917  0.00  0.00    +0.000 C 
ATOM      3  C   UNL     1     -11.962   8.602 129.087  0.00  0.00    +0.000 C 
ATOM      4  F   UNL     1     -12.823   9.273 128.291  0.00  0.00    +0.000 F 
ATOM      5  C   UNL     1     -10.490   8.569 128.599  0.00  0.00    +0.000 C 
ENDROOT
BRANCH   1   6
ATOM      6  N   UNL     1      -9.755   6.294 128.001  0.00  0.00    +0.000 NA
ATOM      7  H   UNL     1      -9.476   6.138 128.972  0.00  0.00    +0.000 HD
ATOM      8  H   UNL     1      -8.891   6.600 127.542  0.00  0.00    +0.000 HD
ENDBRANCH   1   6
BRANCH   1   9
ATOM      9  C   UNL     1     -11.307   7.377 126.292  0.00  0.00    +0.000 C 
ATOM     10  O   UNL     1     -10.793   8.038 125.396  0.00  0.00    +0.000 OA
BRANCH   9  11
ATOM     11  O   UNL     1     -12.390   6.586 126.015  0.00  0.00    +0.000 OA
ATOM     12  H   UNL     1     -12.303   5.747 126.518  0.00  0.00    +0.000 HD
ENDBRANCH   9  11
ENDBRANCH   1   9
TORSDOF 3
ENDMDL
MODEL 2
REMARK VINA RESULT:      -4.8      2.117      2.474
REMARK  Name = Fluciclovine (18F)
REMARK  3 active torsions:
REMARK  status: ('A' for Active; 'I' for Inactive)
REMARK    1  A    between atoms: N_1  and  C_2
REMARK    2  A    between atoms: C_2  and  C_7
REMARK    3  A    between atoms: C_7  and  O_8
REMARK                            x       y       z     vdW  Elec       q    Type
REMARK                         _______ _______ _______ _____ _____    ______ ____
ROOT
ATOM      1  C   UNL     1     -12.134   7.264 127.742  0.00  0.00    +0.000 C 
ATOM      2  C   UNL     1     -13.148   8.378 128.137  0.00  0.00    +0.000 C 
ATOM      3  C   UNL     1     -13.180   7.729 129.549  0.00  0.00    +0.000 C 
ATOM      4  F   UNL     1     -12.258   8.182 130.426  0.00  0.00    +0.000 F 
ATOM      5  C   UNL     1     -12.823   6.398 128.836  0.00  0.00    +0.000 C 
ENDROOT
BRANCH   1   6
ATOM      6  N   UNL     1     -12.491   6.696 126.413  0.00  0.00    +0.000 NA
ATOM      7  H   UNL     1     -12.725   5.700 126.422  0.00  0.00    +0.000 HD
ATOM      8  H   UNL     1     -11.718   6.761 125.743  0.00  0.00    +0.000 HD
ENDBRANCH   1   6
BRANCH   1   9
ATOM      9  C   UNL     1     -10.569   7.559 127.848  0.00  0.00    +0.000 C 
ATOM     10  O   UNL     1     -10.014   8.565 128.278  0.00  0.00    +0.000 OA
BRANCH   9  11
ATOM     11  O   UNL     1      -9.815   6.506 127.405  0.00  0.00    +0.000 OA
ATOM     12  H   UNL     1      -9.778   6.536 126.425  0.00  0.00    +0.000 HD
ENDBRANCH   9  11
ENDBRANCH   1   9
TORSDOF 3
ENDMDL
MODEL 3
REMARK VINA RESULT:      -4.7      2.568      3.047
REMARK  Name = Fluciclovine (18F)
REMARK  3 active torsions:
REMARK  status: ('A' for Active; 'I' for Inactive)
REMARK    1  A    between atoms: N_1  and  C_2
REMARK    2  A    between atoms: C_2  and  C_7
REMARK    3  A    between atoms: C_7  and  O_8
REMARK                            x       y       z     vdW  Elec       q    Type
REMARK                         _______ _______ _______ _____ _____    ______ ____
ROOT
ATOM      1  C   UNL     1     -12.333   8.570 128.828  0.00  0.00    +0.000 C 
ATOM      2  C   UNL     1     -12.600   7.992 130.249  0.00  0.00    +0.000 C 
ATOM      3  C   UNL     1     -13.091   6.700 129.538  0.00  0.00    +0.000 C 
ATOM      4  F   UNL     1     -12.142   5.773 129.281  0.00  0.00    +0.000 F 
ATOM      5  C   UNL     1     -13.466   7.618 128.345  0.00  0.00    +0.000 C 
ENDROOT
BRANCH   1   6
ATOM      6  N   UNL     1     -12.839   9.968 128.742  0.00  0.00    +0.000 NA
ATOM      7  H   UNL     1     -12.111  10.682 128.671  0.00  0.00    +0.000 HD
ATOM      8  H   UNL     1     -13.371  10.239 129.574  0.00  0.00    +0.000 HD
ENDBRANCH   1   6
BRANCH   1   9
ATOM      9  C   UNL     1     -10.875   8.437 128.193  0.00  0.00    +0.000 C 
ATOM     10  O   UNL     1      -9.796   8.383 128.774  0.00  0.00    +0.000 OA
BRANCH   9  11
ATOM     11  O   UNL     1     -10.913   8.358 126.827  0.00  0.00    +0.000 OA
ATOM     12  H   UNL     1     -10.214   7.736 126.529  0.00  0.00    +0.000 HD
ENDBRANCH   9  11
ENDBRANCH   1   9
TORSDOF 3
ENDMDL
MODEL 4
REMARK VINA RESULT:      -4.6      3.350      3.836
REMARK  Name = Fluciclovine (18F)
REMARK  3 active torsions:
REMARK  status: ('A' for Active; 'I' for Inactive)
REMARK    1  A    between atoms: N_1  and  C_2
REMARK    2  A    between atoms: C_2  and  C_7
REMARK    3  A    between atoms: C_7  and  O_8
REMARK                            x       y       z     vdW  Elec       q    Type
REMARK                         _______ _______ _______ _____ _____    ______ ____
ROOT
ATOM      1  C   UNL     1     -11.897   6.783 129.775  0.00  0.00    +0.000 C 
ATOM      2  C   UNL     1     -10.846   7.830 129.302  0.00  0.00    +0.000 C 
ATOM      3  C   UNL     1     -12.044   8.664 128.767  0.00  0.00    +0.000 C 
ATOM      4  F   UNL     1     -12.594   9.533 129.644  0.00  0.00    +0.000 F 
ATOM      5  C   UNL     1     -12.788   7.312 128.613  0.00  0.00    +0.000 C 
ENDROOT
BRANCH   1   6
ATOM      6  N   UNL     1     -11.445   5.409 129.419  0.00  0.00    +0.000 NA
ATOM      7  H   UNL     1     -10.442   5.321 129.243  0.00  0.00    +0.000 HD
ATOM      8  H   UNL     1     -11.878   5.072 128.553  0.00  0.00    +0.000 HD
ENDBRANCH   1   6
BRANCH   1   9
ATOM      9  C   UNL     1     -12.444   6.847 131.273  0.00  0.00    +0.000 C 
ATOM     10  O   UNL     1     -13.331   7.562 131.727  0.00  0.00    +0.000 OA
BRANCH   9  11
ATOM     11  O   UNL     1     -11.812   5.949 132.091  0.00  0.00    +0.000 OA
ATOM     12  H   UNL     1     -12.321   5.110 132.088  0.00  0.00    +0.000 HD
ENDBRANCH   9  11
ENDBRANCH   1   9
TORSDOF 3
ENDMDL
MODEL 5
REMARK VINA RESULT:      -4.6      2.060      2.417
REMARK  Name = Fluciclovine (18F)
REMARK  3 active torsions:
REMARK  status: ('A' for Active; 'I' for Inactive)
REMARK    1  A    between atoms: N_1  and  C_2
REMARK    2  A    between atoms: C_2  and  C_7
REMARK    3  A    between atoms: C_7  and  O_8
REMARK                            x       y       z     vdW  Elec       q    Type
REMARK                         _______ _______ _______ _____ _____    ______ ____
ROOT
ATOM      1  C   UNL     1     -11.815   6.716 129.058  0.00  0.00    +0.000 C 
ATOM      2  C   UNL     1     -12.988   6.882 128.047  0.00  0.00    +0.000 C 
ATOM      3  C   UNL     1     -13.278   8.244 128.738  0.00  0.00    +0.000 C 
ATOM      4  F   UNL     1     -12.621   9.311 128.232  0.00  0.00    +0.000 F 
ATOM      5  C   UNL     1     -12.652   7.618 130.012  0.00  0.00    +0.000 C 
ENDROOT
BRANCH   1   6
ATOM      6  N   UNL     1     -11.813   5.335 129.616  0.00  0.00    +0.000 NA
ATOM      7  H   UNL     1     -11.158   5.187 130.387  0.00  0.00    +0.000 HD
ATOM      8  H   UNL     1     -11.536   4.637 128.919  0.00  0.00    +0.000 HD
ENDBRANCH   1   6
BRANCH   1   9
ATOM      9  C   UNL     1     -10.347   7.176 128.633  0.00  0.00    +0.000 C 
ATOM     10  O   UNL     1      -9.642   8.037 129.149  0.00  0.00    +0.000 OA
BRANCH   9  11
ATOM     11  O   UNL     1      -9.873   6.462 127.565  0.00  0.00    +0.000 OA
ATOM     12  H   UNL     1     -10.578   6.409 126.884  0.00  0.00    +0.000 HD
ENDBRANCH   9  11
ENDBRANCH   1   9
TORSDOF 3
ENDMDL
MODEL 6
REMARK VINA RESULT:      -4.6      1.851      2.279
REMARK  Name = Fluciclovine (18F)
REMARK  3 active torsions:
REMARK  status: ('A' for Active; 'I' for Inactive)
REMARK    1  A    between atoms: N_1  and  C_2
REMARK    2  A    between atoms: C_2  and  C_7
REMARK    3  A    between atoms: C_7  and  O_8
REMARK                            x       y       z     vdW  Elec       q    Type
REMARK                         _______ _______ _______ _____ _____    ______ ____
ROOT
ATOM      1  C   UNL     1     -11.808   8.003 128.385  0.00  0.00    +0.000 C 
ATOM      2  C   UNL     1     -11.186   7.363 129.661  0.00  0.00    +0.000 C 
ATOM      3  C   UNL     1     -12.441   7.871 130.424  0.00  0.00    +0.000 C 
ATOM      4  F   UNL     1     -13.496   7.027 130.450  0.00  0.00    +0.000 F 
ATOM      5  C   UNL     1     -12.513   8.995 129.358  0.00  0.00    +0.000 C 
ENDROOT
BRANCH   1   6
ATOM      6  N   UNL     1     -10.768   8.759 127.634  0.00  0.00    +0.000 NA
ATOM      7  H   UNL     1     -10.084   8.175 127.146  0.00  0.00    +0.000 HD
ATOM      8  H   UNL     1     -10.197   9.347 128.248  0.00  0.00    +0.000 HD
ENDBRANCH   1   6
BRANCH   1   9
ATOM      9  C   UNL     1     -12.693   7.101 127.410  0.00  0.00    +0.000 C 
ATOM     10  O   UNL     1     -13.887   6.836 127.497  0.00  0.00    +0.000 OA
BRANCH   9  11
ATOM     11  O   UNL     1     -11.965   6.614 126.358  0.00  0.00    +0.000 OA
ATOM     12  H   UNL     1     -12.550   6.050 125.806  0.00  0.00    +0.000 HD
ENDBRANCH   9  11
ENDBRANCH   1   9
TORSDOF 3
ENDMDL
MODEL 7
REMARK VINA RESULT:      -4.4      2.797      3.354
REMARK  Name = Fluciclovine (18F)
REMARK  3 active torsions:
REMARK  status: ('A' for Active; 'I' for Inactive)
REMARK    1  A    between atoms: N_1  and  C_2
REMARK    2  A    between atoms: C_2  and  C_7
REMARK    3  A    between atoms: C_7  and  O_8
REMARK                            x       y       z     vdW  Elec       q    Type
REMARK                         _______ _______ _______ _____ _____    ______ ____
ROOT
ATOM      1  C   UNL     1     -10.440   7.158 128.745  0.00  0.00    +0.000 C 
ATOM      2  C   UNL     1     -10.653   8.549 128.079  0.00  0.00    +0.000 C 
ATOM      3  C   UNL     1     -12.099   8.505 128.648  0.00  0.00    +0.000 C 
ATOM      4  F   UNL     1     -12.258   9.016 129.889  0.00  0.00    +0.000 F 
ATOM      5  C   UNL     1     -11.975   6.961 128.574  0.00  0.00    +0.000 C 
ENDROOT
BRANCH   1   6
ATOM      6  N   UNL     1      -9.750   6.239 127.799  0.00  0.00    +0.000 NA
ATOM      7  H   UNL     1      -9.985   5.250 127.915  0.00  0.00    +0.000 HD
ATOM      8  H   UNL     1      -8.731   6.264 127.907  0.00  0.00    +0.000 HD
ENDBRANCH   1   6
BRANCH   1   9
ATOM      9  C   UNL     1      -9.798   7.082 130.205  0.00  0.00    +0.000 C 
ATOM     10  O   UNL     1     -10.320   6.688 131.243  0.00  0.00    +0.000 OA
BRANCH   9  11
ATOM     11  O   UNL     1      -8.496   7.504 130.218  0.00  0.00    +0.000 OA
ATOM     12  H   UNL     1      -8.196   7.566 131.151  0.00  0.00    +0.000 HD
ENDBRANCH   9  11
ENDBRANCH   1   9
TORSDOF 3
ENDMDL
MODEL 8
REMARK VINA RESULT:      -4.4      2.842      3.376
REMARK  Name = Fluciclovine (18F)
REMARK  3 active torsions:
REMARK  status: ('A' for Active; 'I' for Inactive)
REMARK    1  A    between atoms: N_1  and  C_2
REMARK    2  A    between atoms: C_2  and  C_7
REMARK    3  A    between atoms: C_7  and  O_8
REMARK                            x       y       z     vdW  Elec       q    Type
REMARK                         _______ _______ _______ _____ _____    ______ ____
ROOT
ATOM      1  C   UNL     1     -12.409   7.254 128.457  0.00  0.00    +0.000 C 
ATOM      2  C   UNL     1     -11.342   7.379 127.329  0.00  0.00    +0.000 C 
ATOM      3  C   UNL     1     -10.750   8.566 128.139  0.00  0.00    +0.000 C 
ATOM      4  F   UNL     1      -9.815   8.242 129.060  0.00  0.00    +0.000 F 
ATOM      5  C   UNL     1     -12.184   8.777 128.691  0.00  0.00    +0.000 C 
ENDROOT
BRANCH   1   6
ATOM      6  N   UNL     1     -13.762   7.075 127.862  0.00  0.00    +0.000 NA
ATOM      7  H   UNL     1     -14.424   7.826 128.071  0.00  0.00    +0.000 HD
ATOM      8  H   UNL     1     -14.229   6.231 128.209  0.00  0.00    +0.000 HD
ENDBRANCH   1   6
BRANCH   1   9
ATOM      9  C   UNL     1     -12.159   6.232 129.657  0.00  0.00    +0.000 C 
ATOM     10  O   UNL     1     -11.696   5.097 129.604  0.00  0.00    +0.000 OA
BRANCH   9  11
ATOM     11  O   UNL     1     -12.510   6.765 130.868  0.00  0.00    +0.000 OA
ATOM     12  H   UNL     1     -11.890   7.496 131.081  0.00  0.00    +0.000 HD
ENDBRANCH   9  11
ENDBRANCH   1   9
TORSDOF 3
ENDMDL
MODEL 9
REMARK VINA RESULT:      -4.3      2.833      3.407
REMARK  Name = Fluciclovine (18F)
REMARK  3 active torsions:
REMARK  status: ('A' for Active; 'I' for Inactive)
REMARK    1  A    between atoms: N_1  and  C_2
REMARK    2  A    between atoms: C_2  and  C_7
REMARK    3  A    between atoms: C_7  and  O_8
REMARK                            x       y       z     vdW  Elec       q    Type
REMARK                         _______ _______ _______ _____ _____    ______ ____
ROOT
ATOM      1  C   UNL     1     -11.208   7.155 129.511  0.00  0.00    +0.000 C 
ATOM      2  C   UNL     1     -12.164   8.377 129.642  0.00  0.00    +0.000 C 
ATOM      3  C   UNL     1     -12.883   7.841 128.372  0.00  0.00    +0.000 C 
ATOM      4  F   UNL     1     -13.887   6.964 128.591  0.00  0.00    +0.000 F 
ATOM      5  C   UNL     1     -11.519   7.210 127.987  0.00  0.00    +0.000 C 
ENDROOT
BRANCH   1   6
ATOM      6  N   UNL     1      -9.796   7.587 129.707  0.00  0.00    +0.000 NA
ATOM      7  H   UNL     1      -9.267   7.027 130.379  0.00  0.00    +0.000 HD
ATOM      8  H   UNL     1      -9.731   8.542 130.075  0.00  0.00    +0.000 HD
ENDBRANCH   1   6
BRANCH   1   9
ATOM      9  C   UNL     1     -11.528   5.822 130.328  0.00  0.00    +0.000 C 
ATOM     10  O   UNL     1     -11.374   4.658 129.972  0.00  0.00    +0.000 OA
BRANCH   9  11
ATOM     11  O   UNL     1     -12.012   6.089 131.581  0.00  0.00    +0.000 OA
ATOM     12  H   UNL     1     -12.876   5.635 131.687  0.00  0.00    +0.000 HD
ENDBRANCH   9  11
ENDBRANCH   1   9
TORSDOF 3
ENDMDL
