MODEL 1
REMARK VINA RESULT:      -8.7      0.000      0.000
REMARK  Name = Fluclorolone acetonide
REMARK  7 active torsions:
REMARK  status: ('A' for Active; 'I' for Inactive)
REMARK    1  A    between atoms: C_17  and  C_18
REMARK    2  A    between atoms: C_24  and  C_25
REMARK    3  A    between atoms: C_26  and  C_32
REMARK    4  A    between atoms: C_28  and  C_29
REMARK    5  A    between atoms: C_28  and  C_30
REMARK    6  A    between atoms: C_32  and  C_34
REMARK    7  A    between atoms: C_34  and  O_35
REMARK                            x       y       z     vdW  Elec       q    Type
REMARK                         _______ _______ _______ _____ _____    ______ ____
ROOT
ATOM      1  C   UNL     1      -7.403   3.408 125.271  0.00  0.00    +0.000 C 
ATOM      2  C   UNL     1      -8.645   2.537 125.244  0.00  0.00    +0.000 C 
ATOM      3  C   UNL     1      -8.115   1.179 125.581  0.00  0.00    +0.000 C 
ATOM      4  C   UNL     1      -7.732   1.211 127.165  0.00  0.00    +0.000 C 
ATOM      5  C   UNL     1      -8.742   1.882 128.174  0.00  0.00    +0.000 C 
ATOM      6  C   UNL     1      -8.384   1.889 129.659  0.00  0.00    +0.000 C 
ATOM      7  F   UNL     1      -7.373   2.707 130.035  0.00  0.00    +0.000 F 
ATOM      8  C   UNL     1      -8.143   0.462 129.991  0.00  0.00    +0.000 C 
ATOM      9  C   UNL     1      -8.540  -0.056 131.173  0.00  0.00    +0.000 C 
ATOM     10  C   UNL     1      -7.853   0.792 132.097  0.00  0.00    +0.000 C 
ATOM     11  O   UNL     1      -8.483   1.490 132.925  0.00  0.00    +0.000 OA
ATOM     12  C   UNL     1      -6.391   0.475 131.943  0.00  0.00    +0.000 C 
ATOM     13  C   UNL     1      -5.885   0.088 130.686  0.00  0.00    +0.000 C 
ATOM     14  C   UNL     1      -6.966  -0.272 129.383  0.00  0.00    +0.000 C 
ATOM     15  C   UNL     1      -7.466  -1.756 129.427  0.00  0.00    +0.000 C 
ATOM     16  C   UNL     1      -7.061  -0.075 127.693  0.00  0.00    +0.000 C 
ATOM     17 CL   UNL     1      -8.595  -1.237 127.009  0.00  0.00    +0.000 Cl
ATOM     18  C   UNL     1      -5.827  -0.503 126.817  0.00  0.00    +0.000 C 
ATOM     19 CL   UNL     1      -5.188  -2.162 127.160  0.00  0.00    +0.000 Cl
ATOM     20  C   UNL     1      -6.127  -0.340 125.342  0.00  0.00    +0.000 C 
ATOM     21  C   UNL     1      -6.820   0.987 124.671  0.00  0.00    +0.000 C 
ATOM     22  C   UNL     1      -6.822   0.343 123.254  0.00  0.00    +0.000 C 
ATOM     23  C   UNL     1      -6.325   2.654 124.557  0.00  0.00    +0.000 C 
ATOM     24  O   UNL     1      -5.203   2.745 125.431  0.00  0.00    +0.000 OA
ATOM     25  C   UNL     1      -5.364   3.438 126.695  0.00  0.00    +0.000 C 
ATOM     26  C   UNL     1      -4.424   2.200 127.324  0.00  0.00    +0.000 C 
ATOM     27  C   UNL     1      -5.877   3.469 128.219  0.00  0.00    +0.000 C 
ATOM     28  O   UNL     1      -6.783   3.804 126.464  0.00  0.00    +0.000 OA
ENDROOT
BRANCH  23  29
ATOM     29  C   UNL     1      -6.277   3.617 123.148  0.00  0.00    +0.000 C 
ATOM     30  O   UNL     1      -5.555   4.616 123.055  0.00  0.00    +0.000 OA
BRANCH  29  31
ATOM     31  C   UNL     1      -7.285   3.291 121.872  0.00  0.00    +0.000 C 
BRANCH  31  32
ATOM     32  O   UNL     1      -8.622   3.785 121.867  0.00  0.00    +0.000 OA
ATOM     33  H   UNL     1      -8.731   4.393 121.121  0.00  0.00    +0.000 HD
ENDBRANCH  31  32
ENDBRANCH  29  31
ENDBRANCH  23  29
TORSDOF 3
ENDMDL
MODEL 2
REMARK VINA RESULT:      -8.6      4.540      6.423
REMARK  Name = Fluclorolone acetonide
REMARK  7 active torsions:
REMARK  status: ('A' for Active; 'I' for Inactive)
REMARK    1  A    between atoms: C_17  and  C_18
REMARK    2  A    between atoms: C_24  and  C_25
REMARK    3  A    between atoms: C_26  and  C_32
REMARK    4  A    between atoms: C_28  and  C_29
REMARK    5  A    between atoms: C_28  and  C_30
REMARK    6  A    between atoms: C_32  and  C_34
REMARK    7  A    between atoms: C_34  and  O_35
REMARK                            x       y       z     vdW  Elec       q    Type
REMARK                         _______ _______ _______ _____ _____    ______ ____
ROOT
ATOM      1  C   UNL     1      -9.188   4.474 129.831  0.00  0.00    +0.000 C 
ATOM      2  C   UNL     1      -7.921   4.399 128.998  0.00  0.00    +0.000 C 
ATOM      3  C   UNL     1      -6.845   4.261 130.029  0.00  0.00    +0.000 C 
ATOM      4  C   UNL     1      -6.971   2.752 130.632  0.00  0.00    +0.000 C 
ATOM      5  C   UNL     1      -7.193   1.554 129.629  0.00  0.00    +0.000 C 
ATOM      6  C   UNL     1      -7.288   0.140 130.202  0.00  0.00    +0.000 C 
ATOM      7  F   UNL     1      -8.410  -0.156 130.899  0.00  0.00    +0.000 F 
ATOM      8  C   UNL     1      -6.042  -0.027 130.990  0.00  0.00    +0.000 C 
ATOM      9  C   UNL     1      -5.380  -1.204 131.008  0.00  0.00    +0.000 C 
ATOM     10  C   UNL     1      -6.395  -2.091 131.487  0.00  0.00    +0.000 C 
ATOM     11  O   UNL     1      -6.787  -3.059 130.794  0.00  0.00    +0.000 OA
ATOM     12  C   UNL     1      -6.643  -1.701 132.918  0.00  0.00    +0.000 C 
ATOM     13  C   UNL     1      -6.506  -0.357 133.314  0.00  0.00    +0.000 C 
ATOM     14  C   UNL     1      -5.811   0.805 132.235  0.00  0.00    +0.000 C 
ATOM     15  C   UNL     1      -4.246   0.819 132.316  0.00  0.00    +0.000 C 
ATOM     16  C   UNL     1      -6.007   2.440 131.797  0.00  0.00    +0.000 C 
ATOM     17 CL   UNL     1      -4.382   2.996 130.692  0.00  0.00    +0.000 Cl
ATOM     18  C   UNL     1      -6.091   3.518 132.940  0.00  0.00    +0.000 C 
ATOM     19 CL   UNL     1      -4.774   3.416 134.180  0.00  0.00    +0.000 Cl
ATOM     20  C   UNL     1      -6.174   4.915 132.361  0.00  0.00    +0.000 C 
ATOM     21  C   UNL     1      -7.170   5.360 131.137  0.00  0.00    +0.000 C 
ATOM     22  C   UNL     1      -6.612   6.814 131.133  0.00  0.00    +0.000 C 
ATOM     23  C   UNL     1      -8.905   5.398 130.974  0.00  0.00    +0.000 C 
ATOM     24  O   UNL     1      -9.378   4.690 132.117  0.00  0.00    +0.000 OA
ATOM     25  C   UNL     1      -9.926   3.360 131.929  0.00  0.00    +0.000 C 
ATOM     26  C   UNL     1      -9.105   2.983 133.341  0.00  0.00    +0.000 C 
ATOM     27  C   UNL     1      -9.722   1.782 131.699  0.00  0.00    +0.000 C 
ATOM     28  O   UNL     1      -9.750   3.353 130.456  0.00  0.00    +0.000 OA
ENDROOT
BRANCH  23  29
ATOM     29  C   UNL     1      -9.858   6.710 130.439  0.00  0.00    +0.000 C 
ATOM     30  O   UNL     1      -9.387   7.643 129.780  0.00  0.00    +0.000 OA
BRANCH  29  31
ATOM     31  C   UNL     1     -11.454   6.823 130.875  0.00  0.00    +0.000 C 
BRANCH  31  32
ATOM     32  O   UNL     1     -11.950   6.081 131.986  0.00  0.00    +0.000 OA
ATOM     33  H   UNL     1     -11.397   6.265 132.760  0.00  0.00    +0.000 HD
ENDBRANCH  31  32
ENDBRANCH  29  31
ENDBRANCH  23  29
TORSDOF 3
ENDMDL
MODEL 3
REMARK VINA RESULT:      -8.6      4.312      6.874
REMARK  Name = Fluclorolone acetonide
REMARK  7 active torsions:
REMARK  status: ('A' for Active; 'I' for Inactive)
REMARK    1  A    between atoms: C_17  and  C_18
REMARK    2  A    between atoms: C_24  and  C_25
REMARK    3  A    between atoms: C_26  and  C_32
REMARK    4  A    between atoms: C_28  and  C_29
REMARK    5  A    between atoms: C_28  and  C_30
REMARK    6  A    between atoms: C_32  and  C_34
REMARK    7  A    between atoms: C_34  and  O_35
REMARK                            x       y       z     vdW  Elec       q    Type
REMARK                         _______ _______ _______ _____ _____    ______ ____
ROOT
ATOM      1  C   UNL     1      -7.980   0.155 130.312  0.00  0.00    +0.000 C 
ATOM      2  C   UNL     1      -8.795   0.156 131.592  0.00  0.00    +0.000 C 
ATOM      3  C   UNL     1      -8.152   1.238 132.404  0.00  0.00    +0.000 C 
ATOM      4  C   UNL     1      -8.571   2.651 131.708  0.00  0.00    +0.000 C 
ATOM      5  C   UNL     1     -10.069   2.856 131.256  0.00  0.00    +0.000 C 
ATOM      6  C   UNL     1     -10.457   4.192 130.624  0.00  0.00    +0.000 C 
ATOM      7  F   UNL     1      -9.986   4.432 129.378  0.00  0.00    +0.000 F 
ATOM      8  C   UNL     1     -10.039   5.211 131.619  0.00  0.00    +0.000 C 
ATOM      9  C   UNL     1     -10.791   6.308 131.853  0.00  0.00    +0.000 C 
ATOM     10  C   UNL     1     -10.856   6.887 130.546  0.00  0.00    +0.000 C 
ATOM     11  O   UNL     1     -11.955   7.048 129.965  0.00  0.00    +0.000 OA
ATOM     12  C   UNL     1      -9.464   7.362 130.233  0.00  0.00    +0.000 C 
ATOM     13  C   UNL     1      -8.352   6.662 130.741  0.00  0.00    +0.000 C 
ATOM     14  C   UNL     1      -8.570   5.418 131.925  0.00  0.00    +0.000 C 
ATOM     15  C   UNL     1      -8.632   5.996 133.380  0.00  0.00    +0.000 C 
ATOM     16  C   UNL     1      -7.917   3.899 132.337  0.00  0.00    +0.000 C 
ATOM     17 CL   UNL     1      -8.599   3.403 134.197  0.00  0.00    +0.000 Cl
ATOM     18  C   UNL     1      -6.354   3.759 132.444  0.00  0.00    +0.000 C 
ATOM     19 CL   UNL     1      -5.544   5.020 133.461  0.00  0.00    +0.000 Cl
ATOM     20  C   UNL     1      -5.965   2.370 132.905  0.00  0.00    +0.000 C 
ATOM     21  C   UNL     1      -6.583   0.977 132.296  0.00  0.00    +0.000 C 
ATOM     22  C   UNL     1      -5.760   0.108 133.291  0.00  0.00    +0.000 C 
ATOM     23  C   UNL     1      -6.540   0.254 130.712  0.00  0.00    +0.000 C 
ATOM     24  O   UNL     1      -6.019   1.282 129.873  0.00  0.00    +0.000 OA
ATOM     25  C   UNL     1      -6.920   1.951 128.956  0.00  0.00    +0.000 C 
ATOM     26  C   UNL     1      -6.097   3.344 129.395  0.00  0.00    +0.000 C 
ATOM     27  C   UNL     1      -8.071   3.037 128.666  0.00  0.00    +0.000 C 
ATOM     28  O   UNL     1      -8.110   1.148 129.332  0.00  0.00    +0.000 OA
ENDROOT
BRANCH  23  29
ATOM     29  C   UNL     1      -6.094  -1.348 130.326  0.00  0.00    +0.000 C 
ATOM     30  O   UNL     1      -6.452  -2.316 131.005  0.00  0.00    +0.000 OA
BRANCH  29  31
ATOM     31  C   UNL     1      -5.068  -1.653 129.058  0.00  0.00    +0.000 C 
BRANCH  31  32
ATOM     32  O   UNL     1      -4.997  -0.750 127.958  0.00  0.00    +0.000 OA
ATOM     33  H   UNL     1      -4.252  -1.001 127.391  0.00  0.00    +0.000 HD
ENDBRANCH  31  32
ENDBRANCH  29  31
ENDBRANCH  23  29
TORSDOF 3
ENDMDL
MODEL 4
REMARK VINA RESULT:      -8.5      3.949      7.319
REMARK  Name = Fluclorolone acetonide
REMARK  7 active torsions:
REMARK  status: ('A' for Active; 'I' for Inactive)
REMARK    1  A    between atoms: C_17  and  C_18
REMARK    2  A    between atoms: C_24  and  C_25
REMARK    3  A    between atoms: C_26  and  C_32
REMARK    4  A    between atoms: C_28  and  C_29
REMARK    5  A    between atoms: C_28  and  C_30
REMARK    6  A    between atoms: C_32  and  C_34
REMARK    7  A    between atoms: C_34  and  O_35
REMARK                            x       y       z     vdW  Elec       q    Type
REMARK                         _______ _______ _______ _____ _____    ______ ____
ROOT
ATOM      1  C   UNL     1      -6.396   2.760 132.218  0.00  0.00    +0.000 C 
ATOM      2  C   UNL     1      -4.957   2.286 132.122  0.00  0.00    +0.000 C 
ATOM      3  C   UNL     1      -5.062   0.821 132.415  0.00  0.00    +0.000 C 
ATOM      4  C   UNL     1      -5.757   0.136 131.109  0.00  0.00    +0.000 C 
ATOM      5  C   UNL     1      -5.262   0.570 129.675  0.00  0.00    +0.000 C 
ATOM      6  C   UNL     1      -5.904  -0.093 128.457  0.00  0.00    +0.000 C 
ATOM      7  F   UNL     1      -7.184   0.250 128.185  0.00  0.00    +0.000 F 
ATOM      8  C   UNL     1      -5.718  -1.549 128.685  0.00  0.00    +0.000 C 
ATOM      9  C   UNL     1      -5.427  -2.384 127.664  0.00  0.00    +0.000 C 
ATOM     10  C   UNL     1      -6.535  -2.154 126.788  0.00  0.00    +0.000 C 
ATOM     11  O   UNL     1      -6.361  -1.713 125.628  0.00  0.00    +0.000 OA
ATOM     12  C   UNL     1      -7.741  -2.715 127.490  0.00  0.00    +0.000 C 
ATOM     13  C   UNL     1      -7.815  -2.682 128.896  0.00  0.00    +0.000 C 
ATOM     14  C   UNL     1      -6.429  -2.236 129.833  0.00  0.00    +0.000 C 
ATOM     15  C   UNL     1      -5.483  -3.456 130.101  0.00  0.00    +0.000 C 
ATOM     16  C   UNL     1      -6.054  -1.372 131.253  0.00  0.00    +0.000 C 
ATOM     17 CL   UNL     1      -4.114  -1.777 131.744  0.00  0.00    +0.000 Cl
ATOM     18  C   UNL     1      -6.864  -1.693 132.563  0.00  0.00    +0.000 C 
ATOM     19 CL   UNL     1      -6.970  -3.453 132.979  0.00  0.00    +0.000 Cl
ATOM     20  C   UNL     1      -6.334  -0.897 133.736  0.00  0.00    +0.000 C 
ATOM     21  C   UNL     1      -5.999   0.709 133.700  0.00  0.00    +0.000 C 
ATOM     22  C   UNL     1      -5.488   0.696 135.170  0.00  0.00    +0.000 C 
ATOM     23  C   UNL     1      -6.986   2.120 133.435  0.00  0.00    +0.000 C 
ATOM     24  O   UNL     1      -8.231   1.595 132.980  0.00  0.00    +0.000 OA
ATOM     25  C   UNL     1      -8.578   1.750 131.581  0.00  0.00    +0.000 C 
ATOM     26  C   UNL     1      -9.161   0.183 131.705  0.00  0.00    +0.000 C 
ATOM     27  C   UNL     1      -8.435   1.296 130.045  0.00  0.00    +0.000 C 
ATOM     28  O   UNL     1      -7.347   2.497 131.223  0.00  0.00    +0.000 OA
ENDROOT
BRANCH  23  29
ATOM     29  C   UNL     1      -7.057   3.521 134.409  0.00  0.00    +0.000 C 
ATOM     30  O   UNL     1      -6.114   3.877 135.123  0.00  0.00    +0.000 OA
BRANCH  29  31
ATOM     31  C   UNL     1      -8.454   4.411 134.501  0.00  0.00    +0.000 C 
BRANCH  31  32
ATOM     32  O   UNL     1      -9.702   3.831 134.133  0.00  0.00    +0.000 OA
ATOM     33  H   UNL     1     -10.357   4.535 134.022  0.00  0.00    +0.000 HD
ENDBRANCH  31  32
ENDBRANCH  29  31
ENDBRANCH  23  29
TORSDOF 3
ENDMDL
MODEL 5
REMARK VINA RESULT:      -8.4      4.208      6.156
REMARK  Name = Fluclorolone acetonide
REMARK  7 active torsions:
REMARK  status: ('A' for Active; 'I' for Inactive)
REMARK    1  A    between atoms: C_17  and  C_18
REMARK    2  A    between atoms: C_24  and  C_25
REMARK    3  A    between atoms: C_26  and  C_32
REMARK    4  A    between atoms: C_28  and  C_29
REMARK    5  A    between atoms: C_28  and  C_30
REMARK    6  A    between atoms: C_32  and  C_34
REMARK    7  A    between atoms: C_34  and  O_35
REMARK                            x       y       z     vdW  Elec       q    Type
REMARK                         _______ _______ _______ _____ _____    ______ ____
ROOT
ATOM      1  C   UNL     1      -8.050   1.246 132.194  0.00  0.00    +0.000 C 
ATOM      2  C   UNL     1      -9.056   0.180 131.799  0.00  0.00    +0.000 C 
ATOM      3  C   UNL     1      -8.292  -0.666 130.829  0.00  0.00    +0.000 C 
ATOM      4  C   UNL     1      -7.201  -1.505 131.703  0.00  0.00    +0.000 C 
ATOM      5  C   UNL     1      -7.668  -2.169 133.056  0.00  0.00    +0.000 C 
ATOM      6  C   UNL     1      -6.644  -2.971 133.858  0.00  0.00    +0.000 C 
ATOM      7  F   UNL     1      -5.667  -2.264 134.472  0.00  0.00    +0.000 F 
ATOM      8  C   UNL     1      -6.128  -3.980 132.900  0.00  0.00    +0.000 C 
ATOM      9  C   UNL     1      -5.854  -5.243 133.295  0.00  0.00    +0.000 C 
ATOM     10  C   UNL     1      -4.899  -5.010 134.335  0.00  0.00    +0.000 C 
ATOM     11  O   UNL     1      -5.123  -5.377 135.512  0.00  0.00    +0.000 OA
ATOM     12  C   UNL     1      -3.667  -4.481 133.655  0.00  0.00    +0.000 C 
ATOM     13  C   UNL     1      -3.788  -3.694 132.493  0.00  0.00    +0.000 C 
ATOM     14  C   UNL     1      -5.318  -3.543 131.696  0.00  0.00    +0.000 C 
ATOM     15  C   UNL     1      -5.580  -4.722 130.698  0.00  0.00    +0.000 C 
ATOM     16  C   UNL     1      -6.232  -2.368 130.868  0.00  0.00    +0.000 C 
ATOM     17 CL   UNL     1      -7.777  -3.317 129.929  0.00  0.00    +0.000 Cl
ATOM     18  C   UNL     1      -5.532  -1.539 129.729  0.00  0.00    +0.000 C 
ATOM     19 CL   UNL     1      -4.639  -2.531 128.504  0.00  0.00    +0.000 Cl
ATOM     20  C   UNL     1      -6.517  -0.611 129.050  0.00  0.00    +0.000 C 
ATOM     21  C   UNL     1      -7.580   0.359 129.837  0.00  0.00    +0.000 C 
ATOM     22  C   UNL     1      -8.194   0.870 128.501  0.00  0.00    +0.000 C 
ATOM     23  C   UNL     1      -7.375   1.696 130.936  0.00  0.00    +0.000 C 
ATOM     24  O   UNL     1      -5.987   1.671 131.260  0.00  0.00    +0.000 OA
ATOM     25  C   UNL     1      -5.593   1.221 132.581  0.00  0.00    +0.000 C 
ATOM     26  C   UNL     1      -4.345   0.439 131.780  0.00  0.00    +0.000 C 
ATOM     27  C   UNL     1      -5.313   0.035 133.630  0.00  0.00    +0.000 C 
ATOM     28  O   UNL     1      -6.978   0.991 133.060  0.00  0.00    +0.000 OA
ENDROOT
BRANCH  23  29
ATOM     29  C   UNL     1      -8.108   3.234 130.830  0.00  0.00    +0.000 C 
ATOM     30  O   UNL     1      -7.562   4.257 131.258  0.00  0.00    +0.000 OA
BRANCH  29  31
ATOM     31  C   UNL     1      -9.644   3.394 130.223  0.00  0.00    +0.000 C 
BRANCH  31  32
ATOM     32  O   UNL     1     -10.774   3.219 131.072  0.00  0.00    +0.000 OA
ATOM     33  H   UNL     1     -10.471   2.922 131.943  0.00  0.00    +0.000 HD
ENDBRANCH  31  32
ENDBRANCH  29  31
ENDBRANCH  23  29
TORSDOF 3
ENDMDL
MODEL 6
REMARK VINA RESULT:      -8.3      4.579      6.175
REMARK  Name = Fluclorolone acetonide
REMARK  7 active torsions:
REMARK  status: ('A' for Active; 'I' for Inactive)
REMARK    1  A    between atoms: C_17  and  C_18
REMARK    2  A    between atoms: C_24  and  C_25
REMARK    3  A    between atoms: C_26  and  C_32
REMARK    4  A    between atoms: C_28  and  C_29
REMARK    5  A    between atoms: C_28  and  C_30
REMARK    6  A    between atoms: C_32  and  C_34
REMARK    7  A    between atoms: C_34  and  O_35
REMARK                            x       y       z     vdW  Elec       q    Type
REMARK                         _______ _______ _______ _____ _____    ______ ____
ROOT
ATOM      1  C   UNL     1      -9.209   3.172 132.634  0.00  0.00    +0.000 C 
ATOM      2  C   UNL     1      -9.971   2.435 131.548  0.00  0.00    +0.000 C 
ATOM      3  C   UNL     1      -8.925   2.188 130.506  0.00  0.00    +0.000 C 
ATOM      4  C   UNL     1      -7.940   1.033 131.103  0.00  0.00    +0.000 C 
ATOM      5  C   UNL     1      -8.587  -0.218 131.814  0.00  0.00    +0.000 C 
ATOM      6  C   UNL     1      -7.657  -1.305 132.351  0.00  0.00    +0.000 C 
ATOM      7  F   UNL     1      -6.923  -0.988 133.443  0.00  0.00    +0.000 F 
ATOM      8  C   UNL     1      -6.834  -1.702 131.181  0.00  0.00    +0.000 C 
ATOM      9  C   UNL     1      -6.491  -2.992 130.974  0.00  0.00    +0.000 C 
ATOM     10  C   UNL     1      -5.805  -3.299 132.192  0.00  0.00    +0.000 C 
ATOM     11  O   UNL     1      -6.218  -4.203 132.955  0.00  0.00    +0.000 OA
ATOM     12  C   UNL     1      -4.536  -2.493 132.168  0.00  0.00    +0.000 C 
ATOM     13  C   UNL     1      -4.514  -1.235 131.536  0.00  0.00    +0.000 C 
ATOM     14  C   UNL     1      -5.856  -0.719 130.570  0.00  0.00    +0.000 C 
ATOM     15  C   UNL     1      -5.758  -1.249 129.098  0.00  0.00    +0.000 C 
ATOM     16  C   UNL     1      -6.720   0.705 130.217  0.00  0.00    +0.000 C 
ATOM     17 CL   UNL     1      -7.909   0.337 128.598  0.00  0.00    +0.000 Cl
ATOM     18  C   UNL     1      -5.911   1.995 129.821  0.00  0.00    +0.000 C 
ATOM     19 CL   UNL     1      -4.670   1.748 128.525  0.00  0.00    +0.000 Cl
ATOM     20  C   UNL     1      -6.845   3.130 129.457  0.00  0.00    +0.000 C 
ATOM     21  C   UNL     1      -8.159   3.575 130.333  0.00  0.00    +0.000 C 
ATOM     22  C   UNL     1      -8.546   4.677 129.303  0.00  0.00    +0.000 C 
ATOM     23  C   UNL     1      -8.352   4.192 131.951  0.00  0.00    +0.000 C 
ATOM     24  O   UNL     1      -7.068   4.019 132.545  0.00  0.00    +0.000 OA
ATOM     25  C   UNL     1      -6.899   2.976 133.538  0.00  0.00    +0.000 C 
ATOM     26  C   UNL     1      -5.426   2.704 132.786  0.00  0.00    +0.000 C 
ATOM     27  C   UNL     1      -6.694   1.428 133.921  0.00  0.00    +0.000 C 
ATOM     28  O   UNL     1      -8.314   2.528 133.499  0.00  0.00    +0.000 OA
ENDROOT
BRANCH  23  29
ATOM     29  C   UNL     1      -9.235   5.574 132.424  0.00  0.00    +0.000 C 
ATOM     30  O   UNL     1      -8.947   6.228 133.433  0.00  0.00    +0.000 OA
BRANCH  29  31
ATOM     31  C   UNL     1     -10.587   6.038 131.583  0.00  0.00    +0.000 C 
BRANCH  31  32
ATOM     32  O   UNL     1     -11.877   5.921 132.177  0.00  0.00    +0.000 OA
ATOM     33  H   UNL     1     -11.830   6.221 133.096  0.00  0.00    +0.000 HD
ENDBRANCH  31  32
ENDBRANCH  29  31
ENDBRANCH  23  29
TORSDOF 3
ENDMDL
MODEL 7
REMARK VINA RESULT:      -8.1      2.199      3.091
REMARK  Name = Fluclorolone acetonide
REMARK  7 active torsions:
REMARK  status: ('A' for Active; 'I' for Inactive)
REMARK    1  A    between atoms: C_17  and  C_18
REMARK    2  A    between atoms: C_24  and  C_25
REMARK    3  A    between atoms: C_26  and  C_32
REMARK    4  A    between atoms: C_28  and  C_29
REMARK    5  A    between atoms: C_28  and  C_30
REMARK    6  A    between atoms: C_32  and  C_34
REMARK    7  A    between atoms: C_34  and  O_35
REMARK                            x       y       z     vdW  Elec       q    Type
REMARK                         _______ _______ _______ _____ _____    ______ ____
ROOT
ATOM      1  C   UNL     1      -7.507   2.563 128.569  0.00  0.00    +0.000 C 
ATOM      2  C   UNL     1      -8.627   1.580 128.284  0.00  0.00    +0.000 C 
ATOM      3  C   UNL     1      -7.900   0.289 128.072  0.00  0.00    +0.000 C 
ATOM      4  C   UNL     1      -7.364  -0.188 129.536  0.00  0.00    +0.000 C 
ATOM      5  C   UNL     1      -8.343  -0.084 130.769  0.00  0.00    +0.000 C 
ATOM      6  C   UNL     1      -7.839  -0.554 132.133  0.00  0.00    +0.000 C 
ATOM      7  F   UNL     1      -6.906   0.221 132.733  0.00  0.00    +0.000 F 
ATOM      8  C   UNL     1      -7.390  -1.950 131.904  0.00  0.00    +0.000 C 
ATOM      9  C   UNL     1      -7.597  -2.911 132.831  0.00  0.00    +0.000 C 
ATOM     10  C   UNL     1      -6.930  -2.353 133.967  0.00  0.00    +0.000 C 
ATOM     11  O   UNL     1      -7.555  -2.102 135.024  0.00  0.00    +0.000 OA
ATOM     12  C   UNL     1      -5.464  -2.366 133.636  0.00  0.00    +0.000 C 
ATOM     13  C   UNL     1      -5.044  -2.197 132.302  0.00  0.00    +0.000 C 
ATOM     14  C   UNL     1      -6.198  -2.229 131.012  0.00  0.00    +0.000 C 
ATOM     15  C   UNL     1      -6.502  -3.689 130.532  0.00  0.00    +0.000 C 
ATOM     16  C   UNL     1      -6.489  -1.459 129.520  0.00  0.00    +0.000 C 
ATOM     17 CL   UNL     1      -7.927  -2.520 128.532  0.00  0.00    +0.000 Cl
ATOM     18  C   UNL     1      -5.306  -1.350 128.489  0.00  0.00    +0.000 C 
ATOM     19 CL   UNL     1      -4.433  -2.904 128.165  0.00  0.00    +0.000 Cl
ATOM     20  C   UNL     1      -5.772  -0.720 127.193  0.00  0.00    +0.000 C 
ATOM     21  C   UNL     1      -6.691   0.636 127.093  0.00  0.00    +0.000 C 
ATOM     22  C   UNL     1      -6.755   0.548 125.540  0.00  0.00    +0.000 C 
ATOM     23  C   UNL     1      -6.422   2.288 127.576  0.00  0.00    +0.000 C 
ATOM     24  O   UNL     1      -5.237   2.232 128.366  0.00  0.00    +0.000 OA
ATOM     25  C   UNL     1      -5.353   2.395 129.802  0.00  0.00    +0.000 C 
ATOM     26  C   UNL     1      -4.207   1.175 129.885  0.00  0.00    +0.000 C 
ATOM     27  C   UNL     1      -5.709   1.801 131.254  0.00  0.00    +0.000 C 
ATOM     28  O   UNL     1      -6.823   2.597 129.792  0.00  0.00    +0.000 OA
ENDROOT
BRANCH  23  29
ATOM     29  C   UNL     1      -6.638   3.686 126.620  0.00  0.00    +0.000 C 
ATOM     30  O   UNL     1      -6.060   4.750 126.865  0.00  0.00    +0.000 OA
BRANCH  29  31
ATOM     31  C   UNL     1      -7.722   3.686 125.364  0.00  0.00    +0.000 C 
BRANCH  31  32
ATOM     32  O   UNL     1      -8.934   4.428 125.462  0.00  0.00    +0.000 OA
ATOM     33  H   UNL     1      -8.754   5.271 125.904  0.00  0.00    +0.000 HD
ENDBRANCH  31  32
ENDBRANCH  29  31
ENDBRANCH  23  29
TORSDOF 3
ENDMDL
MODEL 8
REMARK VINA RESULT:      -8.0      3.786      5.831
REMARK  Name = Fluclorolone acetonide
REMARK  7 active torsions:
REMARK  status: ('A' for Active; 'I' for Inactive)
REMARK    1  A    between atoms: C_17  and  C_18
REMARK    2  A    between atoms: C_24  and  C_25
REMARK    3  A    between atoms: C_26  and  C_32
REMARK    4  A    between atoms: C_28  and  C_29
REMARK    5  A    between atoms: C_28  and  C_30
REMARK    6  A    between atoms: C_32  and  C_34
REMARK    7  A    between atoms: C_34  and  O_35
REMARK                            x       y       z     vdW  Elec       q    Type
REMARK                         _______ _______ _______ _____ _____    ______ ____
ROOT
ATOM      1  C   UNL     1      -3.961   4.713 130.462  0.00  0.00    +0.000 C 
ATOM      2  C   UNL     1      -4.321   4.549 131.927  0.00  0.00    +0.000 C 
ATOM      3  C   UNL     1      -5.797   4.297 131.889  0.00  0.00    +0.000 C 
ATOM      4  C   UNL     1      -5.995   2.791 131.297  0.00  0.00    +0.000 C 
ATOM      5  C   UNL     1      -5.062   1.639 131.836  0.00  0.00    +0.000 C 
ATOM      6  C   UNL     1      -5.269   0.226 131.291  0.00  0.00    +0.000 C 
ATOM      7  F   UNL     1      -4.895   0.011 130.008  0.00  0.00    +0.000 F 
ATOM      8  C   UNL     1      -6.703  -0.064 131.544  0.00  0.00    +0.000 C 
ATOM      9  C   UNL     1      -7.109  -1.293 131.929  0.00  0.00    +0.000 C 
ATOM     10  C   UNL     1      -6.621  -2.100 130.854  0.00  0.00    +0.000 C 
ATOM     11  O   UNL     1      -5.790  -3.016 131.060  0.00  0.00    +0.000 OA
ATOM     12  C   UNL     1      -7.435  -1.722 129.649  0.00  0.00    +0.000 C 
ATOM     13  C   UNL     1      -7.907  -0.403 129.505  0.00  0.00    +0.000 C 
ATOM     14  C   UNL     1      -7.778   0.719 130.818  0.00  0.00    +0.000 C 
ATOM     15  C   UNL     1      -8.981   0.598 131.814  0.00  0.00    +0.000 C 
ATOM     16  C   UNL     1      -7.464   2.373 131.075  0.00  0.00    +0.000 C 
ATOM     17 CL   UNL     1      -7.952   2.813 133.009  0.00  0.00    +0.000 Cl
ATOM     18  C   UNL     1      -8.259   3.429 130.222  0.00  0.00    +0.000 C 
ATOM     19 CL   UNL     1     -10.054   3.189 130.193  0.00  0.00    +0.000 Cl
ATOM     20  C   UNL     1      -7.915   4.841 130.650  0.00  0.00    +0.000 C 
ATOM     21  C   UNL     1      -6.391   5.396 130.898  0.00  0.00    +0.000 C 
ATOM     22  C   UNL     1      -6.910   6.796 131.338  0.00  0.00    +0.000 C 
ATOM     23  C   UNL     1      -5.013   5.585 129.849  0.00  0.00    +0.000 C 
ATOM     24  O   UNL     1      -5.383   4.894 128.659  0.00  0.00    +0.000 OA
ATOM     25  C   UNL     1      -4.752   3.620 128.372  0.00  0.00    +0.000 C 
ATOM     26  C   UNL     1      -6.279   3.144 127.870  0.00  0.00    +0.000 C 
ATOM     27  C   UNL     1      -4.624   2.036 128.614  0.00  0.00    +0.000 C 
ATOM     28  O   UNL     1      -3.885   3.630 129.576  0.00  0.00    +0.000 OA
ENDROOT
BRANCH  23  29
ATOM     29  C   UNL     1      -4.054   6.984 129.655  0.00  0.00    +0.000 C 
ATOM     30  O   UNL     1      -4.053   7.903 130.480  0.00  0.00    +0.000 OA
BRANCH  29  31
ATOM     31  C   UNL     1      -3.149   7.199 128.281  0.00  0.00    +0.000 C 
BRANCH  31  32
ATOM     32  O   UNL     1      -1.976   6.421 128.064  0.00  0.00    +0.000 OA
ATOM     33  H   UNL     1      -1.323   6.960 127.594  0.00  0.00    +0.000 HD
ENDBRANCH  31  32
ENDBRANCH  29  31
ENDBRANCH  23  29
TORSDOF 3
ENDMDL
MODEL 9
REMARK VINA RESULT:      -8.0      3.622      5.511
REMARK  Name = Fluclorolone acetonide
REMARK  7 active torsions:
REMARK  status: ('A' for Active; 'I' for Inactive)
REMARK    1  A    between atoms: C_17  and  C_18
REMARK    2  A    between atoms: C_24  and  C_25
REMARK    3  A    between atoms: C_26  and  C_32
REMARK    4  A    between atoms: C_28  and  C_29
REMARK    5  A    between atoms: C_28  and  C_30
REMARK    6  A    between atoms: C_32  and  C_34
REMARK    7  A    between atoms: C_34  and  O_35
REMARK                            x       y       z     vdW  Elec       q    Type
REMARK                         _______ _______ _______ _____ _____    ______ ____
ROOT
ATOM      1  C   UNL     1      -6.245  -1.389 126.935  0.00  0.00    +0.000 C 
ATOM      2  C   UNL     1      -5.432  -0.122 127.129  0.00  0.00    +0.000 C 
ATOM      3  C   UNL     1      -6.075   0.515 128.322  0.00  0.00    +0.000 C 
ATOM      4  C   UNL     1      -5.653  -0.387 129.613  0.00  0.00    +0.000 C 
ATOM      5  C   UNL     1      -4.155  -0.862 129.746  0.00  0.00    +0.000 C 
ATOM      6  C   UNL     1      -3.764  -1.689 130.970  0.00  0.00    +0.000 C 
ATOM      7  F   UNL     1      -4.233  -2.957 131.019  0.00  0.00    +0.000 F 
ATOM      8  C   UNL     1      -4.183  -0.860 132.128  0.00  0.00    +0.000 C 
ATOM      9  C   UNL     1      -3.430  -0.795 133.248  0.00  0.00    +0.000 C 
ATOM     10  C   UNL     1      -3.362  -2.174 133.622  0.00  0.00    +0.000 C 
ATOM     11  O   UNL     1      -2.262  -2.770 133.692  0.00  0.00    +0.000 OA
ATOM     12  C   UNL     1      -4.753  -2.558 134.045  0.00  0.00    +0.000 C 
ATOM     13  C   UNL     1      -5.867  -1.952 133.431  0.00  0.00    +0.000 C 
ATOM     14  C   UNL     1      -5.652  -0.592 132.381  0.00  0.00    +0.000 C 
ATOM     15  C   UNL     1      -5.592   0.759 133.173  0.00  0.00    +0.000 C 
ATOM     16  C   UNL     1      -6.307   0.044 130.943  0.00  0.00    +0.000 C 
ATOM     17 CL   UNL     1      -5.629   1.959 130.734  0.00  0.00    +0.000 Cl
ATOM     18  C   UNL     1      -7.871   0.169 130.821  0.00  0.00    +0.000 C 
ATOM     19 CL   UNL     1      -8.681   0.981 132.223  0.00  0.00    +0.000 Cl
ATOM     20  C   UNL     1      -8.262   0.834 129.518  0.00  0.00    +0.000 C 
ATOM     21  C   UNL     1      -7.644   0.445 128.049  0.00  0.00    +0.000 C 
ATOM     22  C   UNL     1      -8.470   1.559 127.341  0.00  0.00    +0.000 C 
ATOM     23  C   UNL     1      -7.685  -1.012 127.094  0.00  0.00    +0.000 C 
ATOM     24  O   UNL     1      -8.204  -1.997 127.983  0.00  0.00    +0.000 OA
ATOM     25  C   UNL     1      -7.300  -3.004 128.505  0.00  0.00    +0.000 C 
ATOM     26  C   UNL     1      -8.123  -2.782 129.949  0.00  0.00    +0.000 C 
ATOM     27  C   UNL     1      -6.148  -3.453 129.533  0.00  0.00    +0.000 C 
ATOM     28  O   UNL     1      -6.112  -2.508 127.767  0.00  0.00    +0.000 OA
ENDROOT
BRANCH  23  29
ATOM     29  C   UNL     1      -8.133  -1.151 125.453  0.00  0.00    +0.000 C 
ATOM     30  O   UNL     1      -7.891  -0.267 124.624  0.00  0.00    +0.000 OA
BRANCH  29  31
ATOM     31  C   UNL     1      -9.006  -2.460 124.927  0.00  0.00    +0.000 C 
BRANCH  31  32
ATOM     32  O   UNL     1     -10.137  -2.913 125.665  0.00  0.00    +0.000 OA
ATOM     33  H   UNL     1     -10.509  -3.692 125.226  0.00  0.00    +0.000 HD
ENDBRANCH  31  32
ENDBRANCH  29  31
ENDBRANCH  23  29
TORSDOF 3
ENDMDL
