MODEL 1
REMARK VINA RESULT:      -6.7      0.000      0.000
REMARK  Name = Fluconazole
REMARK  6 active torsions:
REMARK  status: ('A' for Active; 'I' for Inactive)
REMARK    1  A    between atoms: O_1  and  C_2
REMARK    2  A    between atoms: C_2  and  C_3
REMARK    3  A    between atoms: C_2  and  C_9
REMARK    4  A    between atoms: C_2  and  C_15
REMARK    5  A    between atoms: C_3  and  N_4
REMARK    6  A    between atoms: C_9  and  N_10
REMARK                            x       y       z     vdW  Elec       q    Type
REMARK                         _______ _______ _______ _____ _____    ______ ____
ROOT
ATOM      1  C   UNL     1      -6.997   3.250 123.017  0.00  0.00    +0.000 C 
ENDROOT
BRANCH   1   2
ATOM      2  C   UNL     1      -6.773   3.832 121.600  0.00  0.00    +0.000 A 
ATOM      3  C   UNL     1      -7.745   3.871 120.587  0.00  0.00    +0.000 A 
ATOM      4  F   UNL     1      -8.978   3.386 120.787  0.00  0.00    +0.000 F 
ATOM      5  C   UNL     1      -7.490   4.424 119.328  0.00  0.00    +0.000 A 
ATOM      6  C   UNL     1      -6.230   4.917 119.038  0.00  0.00    +0.000 A 
ATOM      7  F   UNL     1      -5.976   5.443 117.833  0.00  0.00    +0.000 F 
ATOM      8  C   UNL     1      -5.237   4.899 119.991  0.00  0.00    +0.000 A 
ATOM      9  C   UNL     1      -5.535   4.413 121.263  0.00  0.00    +0.000 A 
ENDBRANCH   1   2
BRANCH   1  10
ATOM     10  O   UNL     1      -8.186   3.902 123.514  0.00  0.00    +0.000 OA
ATOM     11  H   UNL     1      -8.519   4.482 122.797  0.00  0.00    +0.000 HD
ENDBRANCH   1  10
BRANCH   1  12
ATOM     12  C   UNL     1      -5.775   3.524 123.975  0.00  0.00    +0.000 C 
BRANCH  12  13
ATOM     13  N   UNL     1      -5.929   3.101 125.352  0.00  0.00    +0.000 N 
ATOM     14  C   UNL     1      -5.255   2.111 126.006  0.00  0.00    +0.000 A 
ATOM     15  N   UNL     1      -5.848   1.874 127.157  0.00  0.00    +0.000 NA
ATOM     16  C   UNL     1      -6.859   2.791 127.181  0.00  0.00    +0.000 A 
ATOM     17  N   UNL     1      -6.924   3.595 126.115  0.00  0.00    +0.000 NA
ENDBRANCH  12  13
ENDBRANCH   1  12
BRANCH   1  18
ATOM     18  C   UNL     1      -7.307   1.719 122.983  0.00  0.00    +0.000 C 
BRANCH  18  19
ATOM     19  N   UNL     1      -8.522   1.284 123.648  0.00  0.00    +0.000 N 
ATOM     20  C   UNL     1      -8.615   0.539 124.782  0.00  0.00    +0.000 A 
ATOM     21  N   UNL     1      -9.877   0.485 125.156  0.00  0.00    +0.000 NA
ATOM     22  C   UNL     1     -10.526   1.163 124.169  0.00  0.00    +0.000 A 
ATOM     23  N   UNL     1      -9.742   1.584 123.171  0.00  0.00    +0.000 NA
ENDBRANCH  18  19
ENDBRANCH   1  18
TORSDOF 6
ENDMDL
MODEL 2
REMARK VINA RESULT:      -6.6      7.670      9.396
REMARK  Name = Fluconazole
REMARK  6 active torsions:
REMARK  status: ('A' for Active; 'I' for Inactive)
REMARK    1  A    between atoms: O_1  and  C_2
REMARK    2  A    between atoms: C_2  and  C_3
REMARK    3  A    between atoms: C_2  and  C_9
REMARK    4  A    between atoms: C_2  and  C_15
REMARK    5  A    between atoms: C_3  and  N_4
REMARK    6  A    between atoms: C_9  and  N_10
REMARK                            x       y       z     vdW  Elec       q    Type
REMARK                         _______ _______ _______ _____ _____    ______ ____
ROOT
ATOM      1  C   UNL     1      -9.914   5.949 130.294  0.00  0.00    +0.000 C 
ENDROOT
BRANCH   1   2
ATOM      2  C   UNL     1     -10.915   7.039 129.837  0.00  0.00    +0.000 A 
ATOM      3  C   UNL     1     -12.040   7.450 130.570  0.00  0.00    +0.000 A 
ATOM      4  F   UNL     1     -12.335   6.905 131.757  0.00  0.00    +0.000 F 
ATOM      5  C   UNL     1     -12.902   8.453 130.114  0.00  0.00    +0.000 A 
ATOM      6  C   UNL     1     -12.678   9.042 128.882  0.00  0.00    +0.000 A 
ATOM      7  F   UNL     1     -13.501   9.999 128.436  0.00  0.00    +0.000 F 
ATOM      8  C   UNL     1     -11.594   8.674 128.119  0.00  0.00    +0.000 A 
ATOM      9  C   UNL     1     -10.705   7.728 128.626  0.00  0.00    +0.000 A 
ENDBRANCH   1   2
BRANCH   1  10
ATOM     10  O   UNL     1      -8.944   5.851 129.228  0.00  0.00    +0.000 OA
ATOM     11  H   UNL     1      -9.434   5.924 128.382  0.00  0.00    +0.000 HD
ENDBRANCH   1  10
BRANCH   1  12
ATOM     12  C   UNL     1     -10.615   4.558 130.533  0.00  0.00    +0.000 C 
BRANCH  12  13
ATOM     13  N   UNL     1      -9.779   3.383 130.390  0.00  0.00    +0.000 N 
ATOM     14  C   UNL     1      -9.273   2.588 131.376  0.00  0.00    +0.000 A 
ATOM     15  N   UNL     1      -8.373   1.779 130.859  0.00  0.00    +0.000 NA
ATOM     16  C   UNL     1      -8.405   2.088 129.530  0.00  0.00    +0.000 A 
ATOM     17  N   UNL     1      -9.282   3.036 129.186  0.00  0.00    +0.000 NA
ENDBRANCH  12  13
ENDBRANCH   1  12
BRANCH   1  18
ATOM     18  C   UNL     1      -9.128   6.372 131.576  0.00  0.00    +0.000 C 
BRANCH  18  19
ATOM     19  N   UNL     1      -7.679   6.319 131.501  0.00  0.00    +0.000 N 
ATOM     20  C   UNL     1      -6.863   5.386 132.058  0.00  0.00    +0.000 A 
ATOM     21  N   UNL     1      -5.630   5.589 131.639  0.00  0.00    +0.000 NA
ATOM     22  C   UNL     1      -5.741   6.712 130.876  0.00  0.00    +0.000 A 
ATOM     23  N   UNL     1      -6.965   7.249 130.846  0.00  0.00    +0.000 NA
ENDBRANCH  18  19
ENDBRANCH   1  18
TORSDOF 6
ENDMDL
MODEL 3
REMARK VINA RESULT:      -6.4      1.591      3.937
REMARK  Name = Fluconazole
REMARK  6 active torsions:
REMARK  status: ('A' for Active; 'I' for Inactive)
REMARK    1  A    between atoms: O_1  and  C_2
REMARK    2  A    between atoms: C_2  and  C_3
REMARK    3  A    between atoms: C_2  and  C_9
REMARK    4  A    between atoms: C_2  and  C_15
REMARK    5  A    between atoms: C_3  and  N_4
REMARK    6  A    between atoms: C_9  and  N_10
REMARK                            x       y       z     vdW  Elec       q    Type
REMARK                         _______ _______ _______ _____ _____    ______ ____
ROOT
ATOM      1  C   UNL     1      -7.602   2.903 123.770  0.00  0.00    +0.000 C 
ENDROOT
BRANCH   1   2
ATOM      2  C   UNL     1      -7.513   3.371 122.297  0.00  0.00    +0.000 A 
ATOM      3  C   UNL     1      -6.325   3.737 121.643  0.00  0.00    +0.000 A 
ATOM      4  F   UNL     1      -5.145   3.708 122.276  0.00  0.00    +0.000 F 
ATOM      5  C   UNL     1      -6.303   4.137 120.303  0.00  0.00    +0.000 A 
ATOM      6  C   UNL     1      -7.488   4.221 119.593  0.00  0.00    +0.000 A 
ATOM      7  F   UNL     1      -7.477   4.609 118.311  0.00  0.00    +0.000 F 
ATOM      8  C   UNL     1      -8.682   3.879 120.185  0.00  0.00    +0.000 A 
ATOM      9  C   UNL     1      -8.672   3.410 121.497  0.00  0.00    +0.000 A 
ENDBRANCH   1   2
BRANCH   1  10
ATOM     10  O   UNL     1      -6.656   1.817 123.884  0.00  0.00    +0.000 OA
ATOM     11  H   UNL     1      -6.769   1.251 123.092  0.00  0.00    +0.000 HD
ENDBRANCH   1  10
BRANCH   1  12
ATOM     12  C   UNL     1      -9.050   2.417 124.156  0.00  0.00    +0.000 C 
BRANCH  12  13
ATOM     13  N   UNL     1      -9.210   0.998 124.400  0.00  0.00    +0.000 N 
ATOM     14  C   UNL     1      -9.505   0.377 125.578  0.00  0.00    +0.000 A 
ATOM     15  N   UNL     1      -9.323  -0.919 125.440  0.00  0.00    +0.000 NA
ATOM     16  C   UNL     1      -8.963  -1.044 124.130  0.00  0.00    +0.000 A 
ATOM     17  N   UNL     1      -8.922   0.099 123.438  0.00  0.00    +0.000 NA
ENDBRANCH  12  13
ENDBRANCH   1  12
BRANCH   1  18
ATOM     18  C   UNL     1      -7.134   4.010 124.768  0.00  0.00    +0.000 C 
BRANCH  18  19
ATOM     19  N   UNL     1      -6.134   3.625 125.749  0.00  0.00    +0.000 N 
ATOM     20  C   UNL     1      -6.352   3.253 127.039  0.00  0.00    +0.000 A 
ATOM     21  N   UNL     1      -5.219   2.829 127.559  0.00  0.00    +0.000 NA
ATOM     22  C   UNL     1      -4.320   3.029 126.556  0.00  0.00    +0.000 A 
ATOM     23  N   UNL     1      -4.823   3.608 125.461  0.00  0.00    +0.000 NA
ENDBRANCH  18  19
ENDBRANCH   1  18
TORSDOF 6
ENDMDL
MODEL 4
REMARK VINA RESULT:      -6.3      8.539      9.440
REMARK  Name = Fluconazole
REMARK  6 active torsions:
REMARK  status: ('A' for Active; 'I' for Inactive)
REMARK    1  A    between atoms: O_1  and  C_2
REMARK    2  A    between atoms: C_2  and  C_3
REMARK    3  A    between atoms: C_2  and  C_9
REMARK    4  A    between atoms: C_2  and  C_15
REMARK    5  A    between atoms: C_3  and  N_4
REMARK    6  A    between atoms: C_9  and  N_10
REMARK                            x       y       z     vdW  Elec       q    Type
REMARK                         _______ _______ _______ _____ _____    ______ ____
ROOT
ATOM      1  C   UNL     1      -9.596   5.920 130.968  0.00  0.00    +0.000 C 
ENDROOT
BRANCH   1   2
ATOM      2  C   UNL     1     -10.583   6.903 130.292  0.00  0.00    +0.000 A 
ATOM      3  C   UNL     1     -11.857   7.224 130.787  0.00  0.00    +0.000 A 
ATOM      4  F   UNL     1     -12.324   6.679 131.918  0.00  0.00    +0.000 F 
ATOM      5  C   UNL     1     -12.702   8.133 130.140  0.00  0.00    +0.000 A 
ATOM      6  C   UNL     1     -12.300   8.714 128.950  0.00  0.00    +0.000 A 
ATOM      7  F   UNL     1     -13.105   9.582 128.322  0.00  0.00    +0.000 F 
ATOM      8  C   UNL     1     -11.064   8.431 128.417  0.00  0.00    +0.000 A 
ATOM      9  C   UNL     1     -10.209   7.582 129.117  0.00  0.00    +0.000 A 
ENDBRANCH   1   2
BRANCH   1  10
ATOM     10  O   UNL     1      -9.118   6.606 132.145  0.00  0.00    +0.000 OA
ATOM     11  H   UNL     1      -9.605   6.239 132.913  0.00  0.00    +0.000 HD
ENDBRANCH   1  10
BRANCH   1  12
ATOM     12  C   UNL     1      -8.393   5.538 130.024  0.00  0.00    +0.000 C 
BRANCH  12  13
ATOM     13  N   UNL     1      -7.063   5.764 130.553  0.00  0.00    +0.000 N 
ATOM     14  C   UNL     1      -6.201   4.846 131.076  0.00  0.00    +0.000 A 
ATOM     15  N   UNL     1      -5.205   5.475 131.664  0.00  0.00    +0.000 NA
ATOM     16  C   UNL     1      -5.484   6.789 131.423  0.00  0.00    +0.000 A 
ATOM     17  N   UNL     1      -6.590   7.016 130.708  0.00  0.00    +0.000 NA
ENDBRANCH  12  13
ENDBRANCH   1  12
BRANCH   1  18
ATOM     18  C   UNL     1     -10.307   4.621 131.467  0.00  0.00    +0.000 C 
BRANCH  18  19
ATOM     19  N   UNL     1      -9.523   3.725 132.298  0.00  0.00    +0.000 N 
ATOM     20  C   UNL     1      -9.274   2.407 132.074  0.00  0.00    +0.000 A 
ATOM     21  N   UNL     1      -8.400   1.980 132.962  0.00  0.00    +0.000 NA
ATOM     22  C   UNL     1      -8.199   3.070 133.753  0.00  0.00    +0.000 A 
ATOM     23  N   UNL     1      -8.946   4.134 133.439  0.00  0.00    +0.000 NA
ENDBRANCH  18  19
ENDBRANCH   1  18
TORSDOF 6
ENDMDL
MODEL 5
REMARK VINA RESULT:      -6.3      6.821      9.386
REMARK  Name = Fluconazole
REMARK  6 active torsions:
REMARK  status: ('A' for Active; 'I' for Inactive)
REMARK    1  A    between atoms: O_1  and  C_2
REMARK    2  A    between atoms: C_2  and  C_3
REMARK    3  A    between atoms: C_2  and  C_9
REMARK    4  A    between atoms: C_2  and  C_15
REMARK    5  A    between atoms: C_3  and  N_4
REMARK    6  A    between atoms: C_9  and  N_10
REMARK                            x       y       z     vdW  Elec       q    Type
REMARK                         _______ _______ _______ _____ _____    ______ ____
ROOT
ATOM      1  C   UNL     1      -9.565   6.088 130.726  0.00  0.00    +0.000 C 
ENDROOT
BRANCH   1   2
ATOM      2  C   UNL     1     -10.626   7.047 130.134  0.00  0.00    +0.000 A 
ATOM      3  C   UNL     1     -11.929   7.207 130.634  0.00  0.00    +0.000 A 
ATOM      4  F   UNL     1     -12.358   6.513 131.696  0.00  0.00    +0.000 F 
ATOM      5  C   UNL     1     -12.842   8.103 130.066  0.00  0.00    +0.000 A 
ATOM      6  C   UNL     1     -12.480   8.833 128.948  0.00  0.00    +0.000 A 
ATOM      7  F   UNL     1     -13.350   9.688 128.395  0.00  0.00    +0.000 F 
ATOM      8  C   UNL     1     -11.218   8.712 128.412  0.00  0.00    +0.000 A 
ATOM      9  C   UNL     1     -10.300   7.871 129.039  0.00  0.00    +0.000 A 
ENDBRANCH   1   2
BRANCH   1  10
ATOM     10  O   UNL     1      -8.289   6.644 130.341  0.00  0.00    +0.000 OA
ATOM     11  H   UNL     1      -8.472   7.398 129.740  0.00  0.00    +0.000 HD
ENDBRANCH   1  10
BRANCH   1  12
ATOM     12  C   UNL     1      -9.716   4.618 130.178  0.00  0.00    +0.000 C 
BRANCH  12  13
ATOM     13  N   UNL     1      -8.614   4.111 129.386  0.00  0.00    +0.000 N 
ATOM     14  C   UNL     1      -7.641   3.233 129.766  0.00  0.00    +0.000 A 
ATOM     15  N   UNL     1      -6.696   3.213 128.851  0.00  0.00    +0.000 NA
ATOM     16  C   UNL     1      -7.170   4.066 127.897  0.00  0.00    +0.000 A 
ATOM     17  N   UNL     1      -8.363   4.609 128.159  0.00  0.00    +0.000 NA
ENDBRANCH  12  13
ENDBRANCH   1  12
BRANCH   1  18
ATOM     18  C   UNL     1      -9.592   6.073 132.289  0.00  0.00    +0.000 C 
BRANCH  18  19
ATOM     19  N   UNL     1      -8.690   5.146 132.948  0.00  0.00    +0.000 N 
ATOM     20  C   UNL     1      -9.030   4.080 133.721  0.00  0.00    +0.000 A 
ATOM     21  N   UNL     1      -7.943   3.395 134.009  0.00  0.00    +0.000 NA
ATOM     22  C   UNL     1      -6.949   4.131 133.438  0.00  0.00    +0.000 A 
ATOM     23  N   UNL     1      -7.355   5.268 132.862  0.00  0.00    +0.000 NA
ENDBRANCH  18  19
ENDBRANCH   1  18
TORSDOF 6
ENDMDL
MODEL 6
REMARK VINA RESULT:      -6.2      7.471      9.231
REMARK  Name = Fluconazole
REMARK  6 active torsions:
REMARK  status: ('A' for Active; 'I' for Inactive)
REMARK    1  A    between atoms: O_1  and  C_2
REMARK    2  A    between atoms: C_2  and  C_3
REMARK    3  A    between atoms: C_2  and  C_9
REMARK    4  A    between atoms: C_2  and  C_15
REMARK    5  A    between atoms: C_3  and  N_4
REMARK    6  A    between atoms: C_9  and  N_10
REMARK                            x       y       z     vdW  Elec       q    Type
REMARK                         _______ _______ _______ _____ _____    ______ ____
ROOT
ATOM      1  C   UNL     1      -9.869   5.723 131.020  0.00  0.00    +0.000 C 
ENDROOT
BRANCH   1   2
ATOM      2  C   UNL     1     -10.759   6.798 130.349  0.00  0.00    +0.000 A 
ATOM      3  C   UNL     1     -12.034   7.177 130.800  0.00  0.00    +0.000 A 
ATOM      4  F   UNL     1     -12.588   6.611 131.881  0.00  0.00    +0.000 F 
ATOM      5  C   UNL     1     -12.787   8.168 130.162  0.00  0.00    +0.000 A 
ATOM      6  C   UNL     1     -12.294   8.777 129.021  0.00  0.00    +0.000 A 
ATOM      7  F   UNL     1     -13.011   9.722 128.401  0.00  0.00    +0.000 F 
ATOM      8  C   UNL     1     -11.053   8.440 128.532  0.00  0.00    +0.000 A 
ATOM      9  C   UNL     1     -10.287   7.506 129.227  0.00  0.00    +0.000 A 
ENDBRANCH   1   2
BRANCH   1  10
ATOM     10  O   UNL     1     -10.667   4.519 131.031  0.00  0.00    +0.000 OA
ATOM     11  H   UNL     1     -10.919   4.347 131.963  0.00  0.00    +0.000 HD
ENDBRANCH   1  10
BRANCH   1  12
ATOM     12  C   UNL     1      -9.452   6.124 132.486  0.00  0.00    +0.000 C 
BRANCH  12  13
ATOM     13  N   UNL     1      -8.681   5.145 133.226  0.00  0.00    +0.000 N 
ATOM     14  C   UNL     1      -7.388   5.241 133.649  0.00  0.00    +0.000 A 
ATOM     15  N   UNL     1      -6.981   4.061 134.067  0.00  0.00    +0.000 NA
ATOM     16  C   UNL     1      -8.093   3.282 133.923  0.00  0.00    +0.000 A 
ATOM     17  N   UNL     1      -9.173   3.911 133.452  0.00  0.00    +0.000 NA
ENDBRANCH  12  13
ENDBRANCH   1  12
BRANCH   1  18
ATOM     18  C   UNL     1      -8.593   5.406 130.177  0.00  0.00    +0.000 C 
BRANCH  18  19
ATOM     19  N   UNL     1      -8.362   4.012 129.840  0.00  0.00    +0.000 N 
ATOM     20  C   UNL     1      -7.391   3.199 130.334  0.00  0.00    +0.000 A 
ATOM     21  N   UNL     1      -7.604   1.971 129.908  0.00  0.00    +0.000 NA
ATOM     22  C   UNL     1      -8.688   2.104 129.095  0.00  0.00    +0.000 A 
ATOM     23  N   UNL     1      -9.124   3.359 128.947  0.00  0.00    +0.000 NA
ENDBRANCH  18  19
ENDBRANCH   1  18
TORSDOF 6
ENDMDL
MODEL 7
REMARK VINA RESULT:      -6.0      1.965      3.757
REMARK  Name = Fluconazole
REMARK  6 active torsions:
REMARK  status: ('A' for Active; 'I' for Inactive)
REMARK    1  A    between atoms: O_1  and  C_2
REMARK    2  A    between atoms: C_2  and  C_3
REMARK    3  A    between atoms: C_2  and  C_9
REMARK    4  A    between atoms: C_2  and  C_15
REMARK    5  A    between atoms: C_3  and  N_4
REMARK    6  A    between atoms: C_9  and  N_10
REMARK                            x       y       z     vdW  Elec       q    Type
REMARK                         _______ _______ _______ _____ _____    ______ ____
ROOT
ATOM      1  C   UNL     1      -7.376   2.743 123.848  0.00  0.00    +0.000 C 
ENDROOT
BRANCH   1   2
ATOM      2  C   UNL     1      -6.687   3.438 122.649  0.00  0.00    +0.000 A 
ATOM      3  C   UNL     1      -5.474   4.144 122.720  0.00  0.00    +0.000 A 
ATOM      4  F   UNL     1      -4.809   4.270 123.876  0.00  0.00    +0.000 F 
ATOM      5  C   UNL     1      -4.890   4.739 121.598  0.00  0.00    +0.000 A 
ATOM      6  C   UNL     1      -5.535   4.677 120.374  0.00  0.00    +0.000 A 
ATOM      7  F   UNL     1      -4.984   5.249 119.296  0.00  0.00    +0.000 F 
ATOM      8  C   UNL     1      -6.728   4.003 120.248  0.00  0.00    +0.000 A 
ATOM      9  C   UNL     1      -7.254   3.352 121.362  0.00  0.00    +0.000 A 
ENDBRANCH   1   2
BRANCH   1  10
ATOM     10  O   UNL     1      -6.324   2.028 124.532  0.00  0.00    +0.000 OA
ATOM     11  H   UNL     1      -6.618   1.097 124.622  0.00  0.00    +0.000 HD
ENDBRANCH   1  10
BRANCH   1  12
ATOM     12  C   UNL     1      -8.512   1.752 123.391  0.00  0.00    +0.000 C 
BRANCH  12  13
ATOM     13  N   UNL     1      -8.297   0.348 123.681  0.00  0.00    +0.000 N 
ATOM     14  C   UNL     1      -8.983  -0.443 124.556  0.00  0.00    +0.000 A 
ATOM     15  N   UNL     1      -8.334  -1.578 124.710  0.00  0.00    +0.000 NA
ATOM     16  C   UNL     1      -7.275  -1.449 123.859  0.00  0.00    +0.000 A 
ATOM     17  N   UNL     1      -7.232  -0.302 123.173  0.00  0.00    +0.000 NA
ENDBRANCH  12  13
ENDBRANCH   1  12
BRANCH   1  18
ATOM     18  C   UNL     1      -7.954   3.772 124.872  0.00  0.00    +0.000 C 
BRANCH  18  19
ATOM     19  N   UNL     1      -7.741   3.484 126.279  0.00  0.00    +0.000 N 
ATOM     20  C   UNL     1      -6.892   4.122 127.127  0.00  0.00    +0.000 A 
ATOM     21  N   UNL     1      -7.095   3.679 128.351  0.00  0.00    +0.000 NA
ATOM     22  C   UNL     1      -8.041   2.714 128.181  0.00  0.00    +0.000 A 
ATOM     23  N   UNL     1      -8.393   2.493 126.910  0.00  0.00    +0.000 NA
ENDBRANCH  18  19
ENDBRANCH   1  18
TORSDOF 6
ENDMDL
MODEL 8
REMARK VINA RESULT:      -5.9      1.760      2.239
REMARK  Name = Fluconazole
REMARK  6 active torsions:
REMARK  status: ('A' for Active; 'I' for Inactive)
REMARK    1  A    between atoms: O_1  and  C_2
REMARK    2  A    between atoms: C_2  and  C_3
REMARK    3  A    between atoms: C_2  and  C_9
REMARK    4  A    between atoms: C_2  and  C_15
REMARK    5  A    between atoms: C_3  and  N_4
REMARK    6  A    between atoms: C_9  and  N_10
REMARK                            x       y       z     vdW  Elec       q    Type
REMARK                         _______ _______ _______ _____ _____    ______ ____
ROOT
ATOM      1  C   UNL     1      -7.808   3.009 123.909  0.00  0.00    +0.000 C 
ENDROOT
BRANCH   1   2
ATOM      2  C   UNL     1      -6.996   3.544 122.704  0.00  0.00    +0.000 A 
ATOM      3  C   UNL     1      -5.704   4.086 122.788  0.00  0.00    +0.000 A 
ATOM      4  F   UNL     1      -5.063   4.184 123.960  0.00  0.00    +0.000 F 
ATOM      5  C   UNL     1      -5.011   4.541 121.660  0.00  0.00    +0.000 A 
ATOM      6  C   UNL     1      -5.620   4.499 120.418  0.00  0.00    +0.000 A 
ATOM      7  F   UNL     1      -4.966   4.937 119.335  0.00  0.00    +0.000 F 
ATOM      8  C   UNL     1      -6.888   3.983 120.279  0.00  0.00    +0.000 A 
ATOM      9  C   UNL     1      -7.530   3.466 121.403  0.00  0.00    +0.000 A 
ENDBRANCH   1   2
BRANCH   1  10
ATOM     10  O   UNL     1      -8.439   4.170 124.491  0.00  0.00    +0.000 OA
ATOM     11  H   UNL     1      -9.296   3.878 124.866  0.00  0.00    +0.000 HD
ENDBRANCH   1  10
BRANCH   1  12
ATOM     12  C   UNL     1      -6.895   2.285 124.970  0.00  0.00    +0.000 C 
BRANCH  12  13
ATOM     13  N   UNL     1      -6.999   2.756 126.337  0.00  0.00    +0.000 N 
ATOM     14  C   UNL     1      -5.994   3.170 127.161  0.00  0.00    +0.000 A 
ATOM     15  N   UNL     1      -6.459   3.285 128.386  0.00  0.00    +0.000 NA
ATOM     16  C   UNL     1      -7.781   2.975 128.246  0.00  0.00    +0.000 A 
ATOM     17  N   UNL     1      -8.170   2.686 127.000  0.00  0.00    +0.000 NA
ENDBRANCH  12  13
ENDBRANCH   1  12
BRANCH   1  18
ATOM     18  C   UNL     1      -8.960   2.051 123.465  0.00  0.00    +0.000 C 
BRANCH  18  19
ATOM     19  N   UNL     1      -8.867   0.670 123.903  0.00  0.00    +0.000 N 
ATOM     20  C   UNL     1      -8.109  -0.315 123.353  0.00  0.00    +0.000 A 
ATOM     21  N   UNL     1      -8.172  -1.384 124.121  0.00  0.00    +0.000 NA
ATOM     22  C   UNL     1      -9.043  -1.014 125.100  0.00  0.00    +0.000 A 
ATOM     23  N   UNL     1      -9.571   0.205 124.949  0.00  0.00    +0.000 NA
ENDBRANCH  18  19
ENDBRANCH   1  18
TORSDOF 6
ENDMDL
MODEL 9
REMARK VINA RESULT:      -5.9      7.602      9.768
REMARK  Name = Fluconazole
REMARK  6 active torsions:
REMARK  status: ('A' for Active; 'I' for Inactive)
REMARK    1  A    between atoms: O_1  and  C_2
REMARK    2  A    between atoms: C_2  and  C_3
REMARK    3  A    between atoms: C_2  and  C_9
REMARK    4  A    between atoms: C_2  and  C_15
REMARK    5  A    between atoms: C_3  and  N_4
REMARK    6  A    between atoms: C_9  and  N_10
REMARK                            x       y       z     vdW  Elec       q    Type
REMARK                         _______ _______ _______ _____ _____    ______ ____
ROOT
ATOM      1  C   UNL     1     -10.175   5.220 130.479  0.00  0.00    +0.000 C 
ENDROOT
BRANCH   1   2
ATOM      2  C   UNL     1      -8.914   5.503 131.332  0.00  0.00    +0.000 A 
ATOM      3  C   UNL     1      -8.773   5.169 132.689  0.00  0.00    +0.000 A 
ATOM      4  F   UNL     1      -9.760   4.563 133.363  0.00  0.00    +0.000 F 
ATOM      5  C   UNL     1      -7.602   5.436 133.405  0.00  0.00    +0.000 A 
ATOM      6  C   UNL     1      -6.551   6.088 132.784  0.00  0.00    +0.000 A 
ATOM      7  F   UNL     1      -5.429   6.352 133.465  0.00  0.00    +0.000 F 
ATOM      8  C   UNL     1      -6.637   6.443 131.457  0.00  0.00    +0.000 A 
ATOM      9  C   UNL     1      -7.782   6.099 130.742  0.00  0.00    +0.000 A 
ENDBRANCH   1   2
BRANCH   1  10
ATOM     10  O   UNL     1      -9.794   5.525 129.120  0.00  0.00    +0.000 OA
ATOM     11  H   UNL     1     -10.541   6.011 128.712  0.00  0.00    +0.000 HD
ENDBRANCH   1  10
BRANCH   1  12
ATOM     12  C   UNL     1     -11.404   6.101 130.920  0.00  0.00    +0.000 C 
BRANCH  12  13
ATOM     13  N   UNL     1     -12.074   6.843 129.871  0.00  0.00    +0.000 N 
ATOM     14  C   UNL     1     -12.317   8.184 129.815  0.00  0.00    +0.000 A 
ATOM     15  N   UNL     1     -13.154   8.431 128.829  0.00  0.00    +0.000 NA
ATOM     16  C   UNL     1     -13.352   7.199 128.276  0.00  0.00    +0.000 A 
ATOM     17  N   UNL     1     -12.678   6.199 128.852  0.00  0.00    +0.000 NA
ENDBRANCH  12  13
ENDBRANCH   1  12
BRANCH   1  18
ATOM     18  C   UNL     1     -10.574   3.709 130.502  0.00  0.00    +0.000 C 
BRANCH  18  19
ATOM     19  N   UNL     1      -9.557   2.758 130.093  0.00  0.00    +0.000 N 
ATOM     20  C   UNL     1      -8.939   1.831 130.873  0.00  0.00    +0.000 A 
ATOM     21  N   UNL     1      -8.196   1.056 130.110  0.00  0.00    +0.000 NA
ATOM     22  C   UNL     1      -8.344   1.601 128.871  0.00  0.00    +0.000 A 
ATOM     23  N   UNL     1      -9.093   2.708 128.833  0.00  0.00    +0.000 NA
ENDBRANCH  18  19
ENDBRANCH   1  18
TORSDOF 6
ENDMDL
