MODEL 1
REMARK VINA RESULT:      -8.6      0.000      0.000
REMARK  Name = Fludrocortisone
REMARK  7 active torsions:
REMARK  status: ('A' for Active; 'I' for Inactive)
REMARK    1  A    between atoms: C_5  and  O_6
REMARK    2  A    between atoms: C_5  and  C_7
REMARK    3  A    between atoms: C_7  and  C_9
REMARK    4  A    between atoms: C_9  and  O_10
REMARK    5  A    between atoms: C_11  and  C_12
REMARK    6  A    between atoms: C_14  and  O_15
REMARK    7  A    between atoms: C_28  and  C_29
REMARK                            x       y       z     vdW  Elec       q    Type
REMARK                         _______ _______ _______ _____ _____    ______ ____
ROOT
ATOM      1  C   UNL     1      -7.183   2.546 125.906  0.00  0.00    +0.000 C 
ATOM      2  C   UNL     1      -5.765   2.385 125.999  0.00  0.00    +0.000 C 
ATOM      3  C   UNL     1      -6.401   1.390 125.063  0.00  0.00    +0.000 C 
ATOM      4  C   UNL     1      -8.336   1.724 124.465  0.00  0.00    +0.000 C 
ATOM      5  C   UNL     1      -7.170   2.200 124.028  0.00  0.00    +0.000 C 
ATOM      6  C   UNL     1      -6.804   3.407 123.237  0.00  0.00    +0.000 C 
ATOM      7  C   UNL     1      -7.128   0.397 123.423  0.00  0.00    +0.000 C 
ATOM      8  C   UNL     1      -7.836  -0.653 124.686  0.00  0.00    +0.000 C 
ATOM      9  C   UNL     1      -7.770  -0.287 126.413  0.00  0.00    +0.000 C 
ATOM     10  F   UNL     1      -6.440   0.115 126.730  0.00  0.00    +0.000 F 
ATOM     11  C   UNL     1      -8.113   1.268 126.860  0.00  0.00    +0.000 C 
ATOM     12  C   UNL     1      -7.568   1.439 128.297  0.00  0.00    +0.000 C 
ATOM     13  C   UNL     1      -7.975   0.275 129.151  0.00  0.00    +0.000 C 
ATOM     14  C   UNL     1      -7.184  -0.926 128.711  0.00  0.00    +0.000 C 
ATOM     15  C   UNL     1      -6.409  -1.656 129.531  0.00  0.00    +0.000 C 
ATOM     16  C   UNL     1      -7.487  -2.141 130.374  0.00  0.00    +0.000 C 
ATOM     17  O   UNL     1      -7.863  -1.579 131.395  0.00  0.00    +0.000 OA
ATOM     18  C   UNL     1      -8.052  -3.328 129.663  0.00  0.00    +0.000 C 
ATOM     19  C   UNL     1      -8.296  -2.850 127.943  0.00  0.00    +0.000 C 
ATOM     20  C   UNL     1      -7.421  -1.556 127.369  0.00  0.00    +0.000 C 
ATOM     21  C   UNL     1      -5.878  -1.904 126.845  0.00  0.00    +0.000 C 
ENDROOT
BRANCH   4  22
ATOM     22  O   UNL     1      -9.078   2.946 124.936  0.00  0.00    +0.000 OA
ATOM     23  H   UNL     1      -8.533   3.727 125.074  0.00  0.00    +0.000 HD
ENDBRANCH   4  22
BRANCH   4  24
ATOM     24  C   UNL     1      -9.215   1.788 122.870  0.00  0.00    +0.000 C 
ATOM     25  O   UNL     1      -9.168   2.764 122.102  0.00  0.00    +0.000 OA
BRANCH  24  26
ATOM     26  C   UNL     1     -10.230   0.675 122.360  0.00  0.00    +0.000 C 
BRANCH  26  27
ATOM     27  O   UNL     1     -11.518   0.798 123.016  0.00  0.00    +0.000 OA
ATOM     28  H   UNL     1     -11.668   1.747 123.207  0.00  0.00    +0.000 HD
ENDBRANCH  26  27
ENDBRANCH  24  26
ENDBRANCH   4  24
BRANCH   8  29
ATOM     29  O   UNL     1      -9.212  -0.837 124.305  0.00  0.00    +0.000 OA
ATOM     30  H   UNL     1      -9.625   0.020 124.123  0.00  0.00    +0.000 HD
ENDBRANCH   8  29
TORSDOF 5
ENDMDL
MODEL 2
REMARK VINA RESULT:      -8.4      2.317      3.325
REMARK  Name = Fludrocortisone
REMARK  7 active torsions:
REMARK  status: ('A' for Active; 'I' for Inactive)
REMARK    1  A    between atoms: C_5  and  O_6
REMARK    2  A    between atoms: C_5  and  C_7
REMARK    3  A    between atoms: C_7  and  C_9
REMARK    4  A    between atoms: C_9  and  O_10
REMARK    5  A    between atoms: C_11  and  C_12
REMARK    6  A    between atoms: C_14  and  O_15
REMARK    7  A    between atoms: C_28  and  C_29
REMARK                            x       y       z     vdW  Elec       q    Type
REMARK                         _______ _______ _______ _____ _____    ______ ____
ROOT
ATOM      1  C   UNL     1      -6.111  -2.255 124.448  0.00  0.00    +0.000 C 
ATOM      2  C   UNL     1      -6.261  -3.677 124.437  0.00  0.00    +0.000 C 
ATOM      3  C   UNL     1      -7.574  -2.958 124.603  0.00  0.00    +0.000 C 
ATOM      4  C   UNL     1      -7.631  -0.944 124.216  0.00  0.00    +0.000 C 
ATOM      5  C   UNL     1      -7.701  -2.010 123.419  0.00  0.00    +0.000 C 
ATOM      6  C   UNL     1      -7.462  -2.200 121.962  0.00  0.00    +0.000 C 
ATOM      7  C   UNL     1      -9.386  -2.047 124.302  0.00  0.00    +0.000 C 
ATOM      8  C   UNL     1      -9.152  -1.580 126.012  0.00  0.00    +0.000 C 
ATOM      9  C   UNL     1      -7.663  -1.880 126.913  0.00  0.00    +0.000 C 
ATOM     10  F   UNL     1      -7.255  -3.222 126.661  0.00  0.00    +0.000 F 
ATOM     11  C   UNL     1      -6.241  -1.534 126.143  0.00  0.00    +0.000 C 
ATOM     12  C   UNL     1      -5.130  -2.275 126.923  0.00  0.00    +0.000 C 
ATOM     13  C   UNL     1      -5.292  -2.051 128.397  0.00  0.00    +0.000 C 
ATOM     14  C   UNL     1      -6.496  -2.824 128.858  0.00  0.00    +0.000 C 
ATOM     15  C   UNL     1      -6.468  -3.743 129.838  0.00  0.00    +0.000 C 
ATOM     16  C   UNL     1      -6.119  -2.824 130.905  0.00  0.00    +0.000 C 
ATOM     17  O   UNL     1      -4.969  -2.575 131.245  0.00  0.00    +0.000 OA
ATOM     18  C   UNL     1      -7.409  -2.216 131.353  0.00  0.00    +0.000 C 
ATOM     19  C   UNL     1      -8.297  -1.703 129.873  0.00  0.00    +0.000 C 
ATOM     20  C   UNL     1      -7.879  -2.423 128.432  0.00  0.00    +0.000 C 
ATOM     21  C   UNL     1      -8.609  -3.888 128.119  0.00  0.00    +0.000 C 
ENDROOT
BRANCH   4  22
ATOM     22  O   UNL     1      -6.394  -0.222 123.754  0.00  0.00    +0.000 OA
ATOM     23  H   UNL     1      -6.342  -0.065 122.806  0.00  0.00    +0.000 HD
ENDBRANCH   4  22
BRANCH   4  24
ATOM     24  C   UNL     1      -8.668   0.161 123.203  0.00  0.00    +0.000 C 
ATOM     25  O   UNL     1      -8.494   1.389 123.133  0.00  0.00    +0.000 OA
BRANCH  24  26
ATOM     26  C   UNL     1      -9.972  -0.303 122.419  0.00  0.00    +0.000 C 
BRANCH  26  27
ATOM     27  O   UNL     1     -11.115   0.519 122.767  0.00  0.00    +0.000 OA
ATOM     28  H   UNL     1     -11.838  -0.079 123.050  0.00  0.00    +0.000 HD
ENDBRANCH  26  27
ENDBRANCH  24  26
ENDBRANCH   4  24
BRANCH   8  29
ATOM     29  O   UNL     1      -9.453  -0.173 126.071  0.00  0.00    +0.000 OA
ATOM     30  H   UNL     1     -10.288  -0.030 126.540  0.00  0.00    +0.000 HD
ENDBRANCH   8  29
TORSDOF 5
ENDMDL
MODEL 3
REMARK VINA RESULT:      -8.3      2.948      6.673
REMARK  Name = Fludrocortisone
REMARK  7 active torsions:
REMARK  status: ('A' for Active; 'I' for Inactive)
REMARK    1  A    between atoms: C_5  and  O_6
REMARK    2  A    between atoms: C_5  and  C_7
REMARK    3  A    between atoms: C_7  and  C_9
REMARK    4  A    between atoms: C_9  and  O_10
REMARK    5  A    between atoms: C_11  and  C_12
REMARK    6  A    between atoms: C_14  and  O_15
REMARK    7  A    between atoms: C_28  and  C_29
REMARK                            x       y       z     vdW  Elec       q    Type
REMARK                         _______ _______ _______ _____ _____    ______ ____
ROOT
ATOM      1  C   UNL     1      -7.313  -3.034 129.981  0.00  0.00    +0.000 C 
ATOM      2  C   UNL     1      -6.372  -4.055 129.639  0.00  0.00    +0.000 C 
ATOM      3  C   UNL     1      -5.834  -2.668 129.400  0.00  0.00    +0.000 C 
ATOM      4  C   UNL     1      -6.847  -1.083 130.219  0.00  0.00    +0.000 C 
ATOM      5  C   UNL     1      -5.947  -1.926 130.724  0.00  0.00    +0.000 C 
ATOM      6  C   UNL     1      -5.601  -2.320 132.118  0.00  0.00    +0.000 C 
ATOM      7  C   UNL     1      -4.893  -0.854 129.558  0.00  0.00    +0.000 C 
ATOM      8  C   UNL     1      -5.833  -0.520 128.074  0.00  0.00    +0.000 C 
ATOM      9  C   UNL     1      -7.054  -1.617 127.421  0.00  0.00    +0.000 C 
ATOM     10  F   UNL     1      -6.515  -2.936 127.433  0.00  0.00    +0.000 F 
ATOM     11  C   UNL     1      -8.118  -2.277 128.501  0.00  0.00    +0.000 C 
ATOM     12  C   UNL     1      -8.761  -3.493 127.794  0.00  0.00    +0.000 C 
ATOM     13  C   UNL     1      -9.190  -3.120 126.406  0.00  0.00    +0.000 C 
ATOM     14  C   UNL     1      -7.955  -2.949 125.565  0.00  0.00    +0.000 C 
ATOM     15  C   UNL     1      -7.725  -3.620 124.424  0.00  0.00    +0.000 C 
ATOM     16  C   UNL     1      -8.831  -3.047 123.679  0.00  0.00    +0.000 C 
ATOM     17  O   UNL     1      -9.950  -3.542 123.625  0.00  0.00    +0.000 OA
ATOM     18  C   UNL     1      -8.327  -1.743 123.149  0.00  0.00    +0.000 C 
ATOM     19  C   UNL     1      -7.523  -0.890 124.516  0.00  0.00    +0.000 C 
ATOM     20  C   UNL     1      -7.010  -1.807 125.806  0.00  0.00    +0.000 C 
ATOM     21  C   UNL     1      -5.515  -2.522 125.635  0.00  0.00    +0.000 C 
ENDROOT
BRANCH   4  22
ATOM     22  O   UNL     1      -8.077  -1.314 131.055  0.00  0.00    +0.000 OA
ATOM     23  H   UNL     1      -8.783  -1.800 130.617  0.00  0.00    +0.000 HD
ENDBRANCH   4  22
BRANCH   4  24
ATOM     24  C   UNL     1      -6.405   0.357 131.246  0.00  0.00    +0.000 C 
ATOM     25  O   UNL     1      -5.623   1.248 130.874  0.00  0.00    +0.000 OA
BRANCH  24  26
ATOM     26  C   UNL     1      -6.858   0.553 132.758  0.00  0.00    +0.000 C 
BRANCH  26  27
ATOM     27  O   UNL     1      -8.241   0.983 132.841  0.00  0.00    +0.000 OA
ATOM     28  H   UNL     1      -8.288   1.907 132.519  0.00  0.00    +0.000 HD
ENDBRANCH  26  27
ENDBRANCH  24  26
ENDBRANCH   4  24
BRANCH   8  29
ATOM     29  O   UNL     1      -6.435   0.771 128.283  0.00  0.00    +0.000 OA
ATOM     30  H   UNL     1      -6.885   0.794 129.141  0.00  0.00    +0.000 HD
ENDBRANCH   8  29
TORSDOF 5
ENDMDL
MODEL 4
REMARK VINA RESULT:      -8.2      5.409      7.171
REMARK  Name = Fludrocortisone
REMARK  7 active torsions:
REMARK  status: ('A' for Active; 'I' for Inactive)
REMARK    1  A    between atoms: C_5  and  O_6
REMARK    2  A    between atoms: C_5  and  C_7
REMARK    3  A    between atoms: C_7  and  C_9
REMARK    4  A    between atoms: C_9  and  O_10
REMARK    5  A    between atoms: C_11  and  C_12
REMARK    6  A    between atoms: C_14  and  O_15
REMARK    7  A    between atoms: C_28  and  C_29
REMARK                            x       y       z     vdW  Elec       q    Type
REMARK                         _______ _______ _______ _____ _____    ______ ____
ROOT
ATOM      1  C   UNL     1      -3.710   4.265 127.055  0.00  0.00    +0.000 C 
ATOM      2  C   UNL     1      -2.931   3.122 127.416  0.00  0.00    +0.000 C 
ATOM      3  C   UNL     1      -4.306   3.104 128.032  0.00  0.00    +0.000 C 
ATOM      4  C   UNL     1      -5.709   4.413 127.305  0.00  0.00    +0.000 C 
ATOM      5  C   UNL     1      -5.297   3.217 126.882  0.00  0.00    +0.000 C 
ATOM      6  C   UNL     1      -5.375   2.529 125.565  0.00  0.00    +0.000 C 
ATOM      7  C   UNL     1      -6.287   2.780 128.447  0.00  0.00    +0.000 C 
ATOM      8  C   UNL     1      -5.970   4.019 129.697  0.00  0.00    +0.000 C 
ATOM      9  C   UNL     1      -4.454   4.919 129.820  0.00  0.00    +0.000 C 
ATOM     10  F   UNL     1      -3.379   3.993 129.692  0.00  0.00    +0.000 F 
ATOM     11  C   UNL     1      -3.823   5.513 128.412  0.00  0.00    +0.000 C 
ATOM     12  C   UNL     1      -2.341   5.845 128.704  0.00  0.00    +0.000 C 
ATOM     13  C   UNL     1      -2.222   6.604 129.992  0.00  0.00    +0.000 C 
ATOM     14  C   UNL     1      -2.507   5.653 131.122  0.00  0.00    +0.000 C 
ATOM     15  C   UNL     1      -1.659   5.422 132.139  0.00  0.00    +0.000 C 
ATOM     16  C   UNL     1      -1.704   6.764 132.690  0.00  0.00    +0.000 C 
ATOM     17  O   UNL     1      -0.927   7.658 132.380  0.00  0.00    +0.000 OA
ATOM     18  C   UNL     1      -2.920   6.802 133.559  0.00  0.00    +0.000 C 
ATOM     19  C   UNL     1      -4.274   6.090 132.610  0.00  0.00    +0.000 C 
ATOM     20  C   UNL     1      -3.885   5.096 131.333  0.00  0.00    +0.000 C 
ATOM     21  C   UNL     1      -3.584   3.504 131.723  0.00  0.00    +0.000 C 
ENDROOT
BRANCH   4  22
ATOM     22  O   UNL     1      -5.369   5.340 126.169  0.00  0.00    +0.000 OA
ATOM     23  H   UNL     1      -4.839   4.950 125.467  0.00  0.00    +0.000 HD
ENDBRANCH   4  22
BRANCH   4  24
ATOM     24  C   UNL     1      -7.425   4.283 126.702  0.00  0.00    +0.000 C 
ATOM     25  O   UNL     1      -8.339   5.037 127.075  0.00  0.00    +0.000 OA
BRANCH  24  26
ATOM     26  C   UNL     1      -7.956   3.124 125.752  0.00  0.00    +0.000 C 
BRANCH  26  27
ATOM     27  O   UNL     1      -9.071   3.577 124.942  0.00  0.00    +0.000 OA
ATOM     28  H   UNL     1      -9.764   3.913 125.547  0.00  0.00    +0.000 HD
ENDBRANCH  26  27
ENDBRANCH  24  26
ENDBRANCH   4  24
BRANCH   8  29
ATOM     29  O   UNL     1      -7.058   4.956 129.594  0.00  0.00    +0.000 OA
ATOM     30  H   UNL     1      -7.006   5.436 128.754  0.00  0.00    +0.000 HD
ENDBRANCH   8  29
TORSDOF 5
ENDMDL
MODEL 5
REMARK VINA RESULT:      -8.2      1.655      2.269
REMARK  Name = Fludrocortisone
REMARK  7 active torsions:
REMARK  status: ('A' for Active; 'I' for Inactive)
REMARK    1  A    between atoms: C_5  and  O_6
REMARK    2  A    between atoms: C_5  and  C_7
REMARK    3  A    between atoms: C_7  and  C_9
REMARK    4  A    between atoms: C_9  and  O_10
REMARK    5  A    between atoms: C_11  and  C_12
REMARK    6  A    between atoms: C_14  and  O_15
REMARK    7  A    between atoms: C_28  and  C_29
REMARK                            x       y       z     vdW  Elec       q    Type
REMARK                         _______ _______ _______ _____ _____    ______ ____
ROOT
ATOM      1  C   UNL     1      -7.350   0.990 125.978  0.00  0.00    +0.000 C 
ATOM      2  C   UNL     1      -5.934   1.163 126.071  0.00  0.00    +0.000 C 
ATOM      3  C   UNL     1      -6.320  -0.217 125.604  0.00  0.00    +0.000 C 
ATOM      4  C   UNL     1      -8.256  -0.527 124.999  0.00  0.00    +0.000 C 
ATOM      5  C   UNL     1      -7.192  -0.028 124.370  0.00  0.00    +0.000 C 
ATOM      6  C   UNL     1      -7.041   0.838 123.169  0.00  0.00    +0.000 C 
ATOM      7  C   UNL     1      -6.766  -1.879 124.489  0.00  0.00    +0.000 C 
ATOM      8  C   UNL     1      -7.302  -2.493 126.081  0.00  0.00    +0.000 C 
ATOM      9  C   UNL     1      -7.381  -1.498 127.538  0.00  0.00    +0.000 C 
ATOM     10  F   UNL     1      -6.172  -0.749 127.629  0.00  0.00    +0.000 F 
ATOM     11  C   UNL     1      -8.045   0.008 127.378  0.00  0.00    +0.000 C 
ATOM     12  C   UNL     1      -7.604   0.814 128.623  0.00  0.00    +0.000 C 
ATOM     13  C   UNL     1      -7.806   0.002 129.867  0.00  0.00    +0.000 C 
ATOM     14  C   UNL     1      -6.774  -1.092 129.883  0.00  0.00    +0.000 C 
ATOM     15  C   UNL     1      -5.904  -1.288 130.888  0.00  0.00    +0.000 C 
ATOM     16  C   UNL     1      -6.896  -1.625 131.892  0.00  0.00    +0.000 C 
ATOM     17  O   UNL     1      -7.418  -0.807 132.639  0.00  0.00    +0.000 OA
ATOM     18  C   UNL     1      -7.184  -3.079 131.703  0.00  0.00    +0.000 C 
ATOM     19  C   UNL     1      -7.447  -3.344 129.942  0.00  0.00    +0.000 C 
ATOM     20  C   UNL     1      -6.826  -2.216 128.888  0.00  0.00    +0.000 C 
ATOM     21  C   UNL     1      -5.224  -2.419 128.476  0.00  0.00    +0.000 C 
ENDROOT
BRANCH   4  22
ATOM     22  O   UNL     1      -9.246   0.607 125.001  0.00  0.00    +0.000 OA
ATOM     23  H   UNL     1      -9.397   1.019 124.145  0.00  0.00    +0.000 HD
ENDBRANCH   4  22
BRANCH   4  24
ATOM     24  C   UNL     1      -9.065  -1.246 123.532  0.00  0.00    +0.000 C 
ATOM     25  O   UNL     1      -9.862  -0.619 122.814  0.00  0.00    +0.000 OA
BRANCH  24  26
ATOM     26  C   UNL     1      -8.943  -2.772 123.099  0.00  0.00    +0.000 C 
BRANCH  26  27
ATOM     27  O   UNL     1     -10.151  -3.507 123.419  0.00  0.00    +0.000 OA
ATOM     28  H   UNL     1      -9.889  -4.320 123.900  0.00  0.00    +0.000 HD
ENDBRANCH  26  27
ENDBRANCH  24  26
ENDBRANCH   4  24
BRANCH   8  29
ATOM     29  O   UNL     1      -8.596  -3.079 125.850  0.00  0.00    +0.000 OA
ATOM     30  H   UNL     1      -8.838  -2.996 124.915  0.00  0.00    +0.000 HD
ENDBRANCH   8  29
TORSDOF 5
ENDMDL
MODEL 6
REMARK VINA RESULT:      -8.1      2.105      3.576
REMARK  Name = Fludrocortisone
REMARK  7 active torsions:
REMARK  status: ('A' for Active; 'I' for Inactive)
REMARK    1  A    between atoms: C_5  and  O_6
REMARK    2  A    between atoms: C_5  and  C_7
REMARK    3  A    between atoms: C_7  and  C_9
REMARK    4  A    between atoms: C_9  and  O_10
REMARK    5  A    between atoms: C_11  and  C_12
REMARK    6  A    between atoms: C_14  and  O_15
REMARK    7  A    between atoms: C_28  and  C_29
REMARK                            x       y       z     vdW  Elec       q    Type
REMARK                         _______ _______ _______ _____ _____    ______ ____
ROOT
ATOM      1  C   UNL     1      -5.630  -1.516 125.537  0.00  0.00    +0.000 C 
ATOM      2  C   UNL     1      -6.208  -2.760 125.133  0.00  0.00    +0.000 C 
ATOM      3  C   UNL     1      -7.236  -1.779 125.632  0.00  0.00    +0.000 C 
ATOM      4  C   UNL     1      -6.677   0.183 125.850  0.00  0.00    +0.000 C 
ATOM      5  C   UNL     1      -7.079  -0.520 124.791  0.00  0.00    +0.000 C 
ATOM      6  C   UNL     1      -6.924  -0.317 123.325  0.00  0.00    +0.000 C 
ATOM      7  C   UNL     1      -8.685  -0.337 125.795  0.00  0.00    +0.000 C 
ATOM      8  C   UNL     1      -8.302  -0.504 127.534  0.00  0.00    +0.000 C 
ATOM      9  C   UNL     1      -6.967  -1.482 128.152  0.00  0.00    +0.000 C 
ATOM     10  F   UNL     1      -6.993  -2.739 127.483  0.00  0.00    +0.000 F 
ATOM     11  C   UNL     1      -5.516  -1.342 127.372  0.00  0.00    +0.000 C 
ATOM     12  C   UNL     1      -4.677  -2.574 127.787  0.00  0.00    +0.000 C 
ATOM     13  C   UNL     1      -4.748  -2.774 129.272  0.00  0.00    +0.000 C 
ATOM     14  C   UNL     1      -6.127  -3.269 129.612  0.00  0.00    +0.000 C 
ATOM     15  C   UNL     1      -6.372  -4.410 130.277  0.00  0.00    +0.000 C 
ATOM     16  C   UNL     1      -5.747  -4.003 131.522  0.00  0.00    +0.000 C 
ATOM     17  O   UNL     1      -4.572  -4.213 131.799  0.00  0.00    +0.000 OA
ATOM     18  C   UNL     1      -6.784  -3.216 132.256  0.00  0.00    +0.000 C 
ATOM     19  C   UNL     1      -7.486  -2.042 131.086  0.00  0.00    +0.000 C 
ATOM     20  C   UNL     1      -7.324  -2.375 129.464  0.00  0.00    +0.000 C 
ATOM     21  C   UNL     1      -8.471  -3.398 128.819  0.00  0.00    +0.000 C 
ENDROOT
BRANCH   4  22
ATOM     22  O   UNL     1      -5.283   0.622 125.491  0.00  0.00    +0.000 OA
ATOM     23  H   UNL     1      -4.806   0.028 124.902  0.00  0.00    +0.000 HD
ENDBRANCH   4  22
BRANCH   4  24
ATOM     24  C   UNL     1      -7.336   1.795 125.310  0.00  0.00    +0.000 C 
ATOM     25  O   UNL     1      -6.666   2.841 125.306  0.00  0.00    +0.000 OA
BRANCH  24  26
ATOM     26  C   UNL     1      -8.856   2.057 124.921  0.00  0.00    +0.000 C 
BRANCH  26  27
ATOM     27  O   UNL     1      -9.188   3.466 125.018  0.00  0.00    +0.000 OA
ATOM     28  H   UNL     1     -10.118   3.535 125.319  0.00  0.00    +0.000 HD
ENDBRANCH  26  27
ENDBRANCH  24  26
ENDBRANCH   4  24
BRANCH   8  29
ATOM     29  O   UNL     1      -8.157   0.842 128.025  0.00  0.00    +0.000 OA
ATOM     30  H   UNL     1      -7.299   0.946 128.464  0.00  0.00    +0.000 HD
ENDBRANCH   8  29
TORSDOF 5
ENDMDL
MODEL 7
REMARK VINA RESULT:      -7.9      2.795      5.055
REMARK  Name = Fludrocortisone
REMARK  7 active torsions:
REMARK  status: ('A' for Active; 'I' for Inactive)
REMARK    1  A    between atoms: C_5  and  O_6
REMARK    2  A    between atoms: C_5  and  C_7
REMARK    3  A    between atoms: C_7  and  C_9
REMARK    4  A    between atoms: C_9  and  O_10
REMARK    5  A    between atoms: C_11  and  C_12
REMARK    6  A    between atoms: C_14  and  O_15
REMARK    7  A    between atoms: C_28  and  C_29
REMARK                            x       y       z     vdW  Elec       q    Type
REMARK                         _______ _______ _______ _____ _____    ______ ____
ROOT
ATOM      1  C   UNL     1      -8.122   2.514 127.568  0.00  0.00    +0.000 C 
ATOM      2  C   UNL     1      -8.733   1.895 128.703  0.00  0.00    +0.000 C 
ATOM      3  C   UNL     1      -7.260   1.594 128.602  0.00  0.00    +0.000 C 
ATOM      4  C   UNL     1      -6.129   2.720 127.312  0.00  0.00    +0.000 C 
ATOM      5  C   UNL     1      -6.546   2.938 128.560  0.00  0.00    +0.000 C 
ATOM      6  C   UNL     1      -6.707   4.176 129.370  0.00  0.00    +0.000 C 
ATOM      7  C   UNL     1      -5.220   1.594 128.800  0.00  0.00    +0.000 C 
ATOM      8  C   UNL     1      -5.341   0.417 127.460  0.00  0.00    +0.000 C 
ATOM      9  C   UNL     1      -6.848   0.045 126.617  0.00  0.00    +0.000 C 
ATOM     10  F   UNL     1      -7.867  -0.145 127.595  0.00  0.00    +0.000 F 
ATOM     11  C   UNL     1      -7.801   1.327 126.191  0.00  0.00    +0.000 C 
ATOM     12  C   UNL     1      -9.205   0.749 125.894  0.00  0.00    +0.000 C 
ATOM     13  C   UNL     1      -9.093  -0.464 125.019  0.00  0.00    +0.000 C 
ATOM     14  C   UNL     1      -8.516  -1.582 125.842  0.00  0.00    +0.000 C 
ATOM     15  C   UNL     1      -9.112  -2.775 126.009  0.00  0.00    +0.000 C 
ATOM     16  C   UNL     1      -9.034  -3.185 124.619  0.00  0.00    +0.000 C 
ATOM     17  O   UNL     1      -9.914  -2.976 123.793  0.00  0.00    +0.000 OA
ATOM     18  C   UNL     1      -7.666  -3.763 124.444  0.00  0.00    +0.000 C 
ATOM     19  C   UNL     1      -6.503  -2.606 125.188  0.00  0.00    +0.000 C 
ATOM     20  C   UNL     1      -7.093  -1.535 126.317  0.00  0.00    +0.000 C 
ATOM     21  C   UNL     1      -7.204  -2.117 127.875  0.00  0.00    +0.000 C 
ENDROOT
BRANCH   4  22
ATOM     22  O   UNL     1      -6.760   3.830 126.516  0.00  0.00    +0.000 OA
ATOM     23  H   UNL     1      -7.035   3.588 125.625  0.00  0.00    +0.000 HD
ENDBRANCH   4  22
BRANCH   4  24
ATOM     24  C   UNL     1      -4.577   3.669 127.428  0.00  0.00    +0.000 C 
ATOM     25  O   UNL     1      -4.428   4.649 128.176  0.00  0.00    +0.000 OA
BRANCH  24  26
ATOM     26  C   UNL     1      -3.309   3.430 126.498  0.00  0.00    +0.000 C 
BRANCH  26  27
ATOM     27  O   UNL     1      -2.287   2.666 127.187  0.00  0.00    +0.000 OA
ATOM     28  H   UNL     1      -1.874   3.252 127.855  0.00  0.00    +0.000 HD
ENDBRANCH  26  27
ENDBRANCH  24  26
ENDBRANCH   4  24
BRANCH   8  29
ATOM     29  O   UNL     1      -4.361   0.835 126.492  0.00  0.00    +0.000 OA
ATOM     30  H   UNL     1      -3.639   0.190 126.448  0.00  0.00    +0.000 HD
ENDBRANCH   8  29
TORSDOF 5
ENDMDL
MODEL 8
REMARK VINA RESULT:      -7.8      2.097      3.668
REMARK  Name = Fludrocortisone
REMARK  7 active torsions:
REMARK  status: ('A' for Active; 'I' for Inactive)
REMARK    1  A    between atoms: C_5  and  O_6
REMARK    2  A    between atoms: C_5  and  C_7
REMARK    3  A    between atoms: C_7  and  C_9
REMARK    4  A    between atoms: C_9  and  O_10
REMARK    5  A    between atoms: C_11  and  C_12
REMARK    6  A    between atoms: C_14  and  O_15
REMARK    7  A    between atoms: C_28  and  C_29
REMARK                            x       y       z     vdW  Elec       q    Type
REMARK                         _______ _______ _______ _____ _____    ______ ____
ROOT
ATOM      1  C   UNL     1      -7.090  -2.286 124.797  0.00  0.00    +0.000 C 
ATOM      2  C   UNL     1      -7.970  -3.328 125.228  0.00  0.00    +0.000 C 
ATOM      3  C   UNL     1      -8.445  -1.960 125.643  0.00  0.00    +0.000 C 
ATOM      4  C   UNL     1      -7.568  -0.324 124.768  0.00  0.00    +0.000 C 
ATOM      5  C   UNL     1      -8.550  -1.133 124.370  0.00  0.00    +0.000 C 
ATOM      6  C   UNL     1      -9.132  -1.435 123.033  0.00  0.00    +0.000 C 
ATOM      7  C   UNL     1      -9.379  -0.139 125.765  0.00  0.00    +0.000 C 
ATOM      8  C   UNL     1      -8.197   0.098 127.086  0.00  0.00    +0.000 C 
ATOM      9  C   UNL     1      -6.895  -1.040 127.449  0.00  0.00    +0.000 C 
ATOM     10  F   UNL     1      -7.443  -2.355 127.445  0.00  0.00    +0.000 F 
ATOM     11  C   UNL     1      -6.037  -1.628 126.164  0.00  0.00    +0.000 C 
ATOM     12  C   UNL     1      -5.297  -2.887 126.672  0.00  0.00    +0.000 C 
ATOM     13  C   UNL     1      -4.635  -2.605 127.988  0.00  0.00    +0.000 C 
ATOM     14  C   UNL     1      -5.707  -2.489 129.036  0.00  0.00    +0.000 C 
ATOM     15  C   UNL     1      -5.748  -3.234 130.154  0.00  0.00    +0.000 C 
ATOM     16  C   UNL     1      -4.525  -2.710 130.736  0.00  0.00    +0.000 C 
ATOM     17  O   UNL     1      -3.419  -3.207 130.567  0.00  0.00    +0.000 OA
ATOM     18  C   UNL     1      -4.918  -1.444 131.426  0.00  0.00    +0.000 C 
ATOM     19  C   UNL     1      -5.933  -0.503 130.274  0.00  0.00    +0.000 C 
ATOM     20  C   UNL     1      -6.667  -1.334 129.033  0.00  0.00    +0.000 C 
ATOM     21  C   UNL     1      -8.119  -2.060 129.410  0.00  0.00    +0.000 C 
ENDROOT
BRANCH   4  22
ATOM     22  O   UNL     1      -6.501  -0.500 123.722  0.00  0.00    +0.000 OA
ATOM     23  H   UNL     1      -5.688  -0.009 123.880  0.00  0.00    +0.000 HD
ENDBRANCH   4  22
BRANCH   4  24
ATOM     24  C   UNL     1      -8.162   1.180 123.926  0.00  0.00    +0.000 C 
ATOM     25  O   UNL     1      -7.504   1.786 123.064  0.00  0.00    +0.000 OA
BRANCH  24  26
ATOM     26  C   UNL     1      -9.508   1.942 124.295  0.00  0.00    +0.000 C 
BRANCH  26  27
ATOM     27  O   UNL     1      -9.234   3.237 124.888  0.00  0.00    +0.000 OA
ATOM     28  H   UNL     1      -9.625   3.922 124.306  0.00  0.00    +0.000 HD
ENDBRANCH  26  27
ENDBRANCH  24  26
ENDBRANCH   4  24
BRANCH   8  29
ATOM     29  O   UNL     1      -7.625   1.400 126.861  0.00  0.00    +0.000 OA
ATOM     30  H   UNL     1      -6.708   1.313 126.560  0.00  0.00    +0.000 HD
ENDBRANCH   8  29
TORSDOF 5
ENDMDL
MODEL 9
REMARK VINA RESULT:      -7.7      4.460      6.931
REMARK  Name = Fludrocortisone
REMARK  7 active torsions:
REMARK  status: ('A' for Active; 'I' for Inactive)
REMARK    1  A    between atoms: C_5  and  O_6
REMARK    2  A    between atoms: C_5  and  C_7
REMARK    3  A    between atoms: C_7  and  C_9
REMARK    4  A    between atoms: C_9  and  O_10
REMARK    5  A    between atoms: C_11  and  C_12
REMARK    6  A    between atoms: C_14  and  O_15
REMARK    7  A    between atoms: C_28  and  C_29
REMARK                            x       y       z     vdW  Elec       q    Type
REMARK                         _______ _______ _______ _____ _____    ______ ____
ROOT
ATOM      1  C   UNL     1      -8.062   2.476 133.310  0.00  0.00    +0.000 C 
ATOM      2  C   UNL     1      -6.640   2.385 133.422  0.00  0.00    +0.000 C 
ATOM      3  C   UNL     1      -7.075   3.324 132.328  0.00  0.00    +0.000 C 
ATOM      4  C   UNL     1      -9.039   3.919 132.287  0.00  0.00    +0.000 C 
ATOM      5  C   UNL     1      -7.986   4.356 132.979  0.00  0.00    +0.000 C 
ATOM      6  C   UNL     1      -7.858   5.143 134.236  0.00  0.00    +0.000 C 
ATOM      7  C   UNL     1      -7.601   4.967 131.219  0.00  0.00    +0.000 C 
ATOM      8  C   UNL     1      -8.094   3.707 130.049  0.00  0.00    +0.000 C 
ATOM      9  C   UNL     1      -8.097   1.979 130.416  0.00  0.00    +0.000 C 
ATOM     10  F   UNL     1      -6.868   1.662 131.063  0.00  0.00    +0.000 F 
ATOM     11  C   UNL     1      -8.730   1.526 131.875  0.00  0.00    +0.000 C 
ATOM     12  C   UNL     1      -8.226   0.089 132.143  0.00  0.00    +0.000 C 
ATOM     13  C   UNL     1      -8.402  -0.761 130.920  0.00  0.00    +0.000 C 
ATOM     14  C   UNL     1      -7.396  -0.316 129.893  0.00  0.00    +0.000 C 
ATOM     15  C   UNL     1      -6.496  -1.134 129.322  0.00  0.00    +0.000 C 
ATOM     16  C   UNL     1      -7.459  -1.976 128.637  0.00  0.00    +0.000 C 
ATOM     17  O   UNL     1      -7.934  -2.999 129.114  0.00  0.00    +0.000 OA
ATOM     18  C   UNL     1      -7.788  -1.261 127.367  0.00  0.00    +0.000 C 
ATOM     19  C   UNL     1      -8.121   0.456 127.794  0.00  0.00    +0.000 C 
ATOM     20  C   UNL     1      -7.511   1.027 129.234  0.00  0.00    +0.000 C 
ATOM     21  C   UNL     1      -5.930   1.553 129.189  0.00  0.00    +0.000 C 
ENDROOT
BRANCH   4  22
ATOM     22  O   UNL     1     -10.000   3.445 133.343  0.00  0.00    +0.000 OA
ATOM     23  H   UNL     1     -10.762   2.958 133.013  0.00  0.00    +0.000 HD
ENDBRANCH   4  22
BRANCH   4  24
ATOM     24  C   UNL     1      -9.916   5.514 132.188  0.00  0.00    +0.000 C 
ATOM     25  O   UNL     1      -9.726   6.450 132.982  0.00  0.00    +0.000 OA
BRANCH  24  26
ATOM     26  C   UNL     1     -11.100   5.824 131.171  0.00  0.00    +0.000 C 
BRANCH  26  27
ATOM     27  O   UNL     1     -12.291   6.267 131.870  0.00  0.00    +0.000 OA
ATOM     28  H   UNL     1     -12.020   6.944 132.525  0.00  0.00    +0.000 HD
ENDBRANCH  26  27
ENDBRANCH  24  26
ENDBRANCH   4  24
BRANCH   8  29
ATOM     29  O   UNL     1      -9.410   4.088 129.607  0.00  0.00    +0.000 OA
ATOM     30  H   UNL     1      -9.535   3.839 128.679  0.00  0.00    +0.000 HD
ENDBRANCH   8  29
TORSDOF 5
ENDMDL
