MODEL 1
REMARK VINA RESULT:      -4.7      0.000      0.000
REMARK  Name = Fludeoxyglucose (18F)
REMARK  9 active torsions:
REMARK  status: ('A' for Active; 'I' for Inactive)
REMARK    1  A    between atoms: C_2  and  C_4
REMARK    2  A    between atoms: C_4  and  C_6
REMARK    3  A    between atoms: C_6  and  O_7
REMARK    4  A    between atoms: C_6  and  C_8
REMARK    5  A    between atoms: C_8  and  O_9
REMARK    6  A    between atoms: C_8  and  C_10
REMARK    7  A    between atoms: C_10  and  O_11
REMARK    8  A    between atoms: C_10  and  C_12
REMARK    9  A    between atoms: C_12  and  O_13
REMARK                            x       y       z     vdW  Elec       q    Type
REMARK                         _______ _______ _______ _____ _____    ______ ____
ROOT
ATOM      1  C   UNL     1     -10.291   7.281 128.813  0.00  0.00    +0.000 C 
ENDROOT
BRANCH   1   2
ATOM      2  O   UNL     1      -9.678   6.222 128.045  0.00  0.00    +0.000 OA
ATOM      3  H   UNL     1      -9.726   5.434 128.623  0.00  0.00    +0.000 HD
ENDBRANCH   1   2
BRANCH   1   4
ATOM      4  C   UNL     1     -11.407   6.684 129.732  0.00  0.00    +0.000 C 
BRANCH   4   5
ATOM      5  C   UNL     1     -10.912   5.878 130.927  0.00  0.00    +0.000 C 
ATOM      6  F   UNL     1     -11.625   6.221 132.034  0.00  0.00    +0.000 F 
BRANCH   5   7
ATOM      7  C   UNL     1     -10.959   4.404 130.634  0.00  0.00    +0.000 C 
ATOM      8  O   UNL     1     -10.324   3.850 129.733  0.00  0.00    +0.000 OA
ENDBRANCH   5   7
ENDBRANCH   4   5
BRANCH   4   9
ATOM      9  O   UNL     1     -12.367   5.917 128.989  0.00  0.00    +0.000 OA
ATOM     10  H   UNL     1     -13.212   6.403 129.040  0.00  0.00    +0.000 HD
ENDBRANCH   4   9
ENDBRANCH   1   4
BRANCH   1  11
ATOM     11  C   UNL     1     -10.850   8.318 127.784  0.00  0.00    +0.000 C 
BRANCH  11  12
ATOM     12  O   UNL     1     -12.118   8.878 128.106  0.00  0.00    +0.000 OA
ATOM     13  H   UNL     1     -12.057   9.477 128.866  0.00  0.00    +0.000 HD
ENDBRANCH  11  12
BRANCH  11  14
ATOM     14  C   UNL     1     -10.890   7.755 126.349  0.00  0.00    +0.000 C 
BRANCH  14  15
ATOM     15  O   UNL     1     -11.843   6.705 126.236  0.00  0.00    +0.000 OA
ATOM     16  H   UNL     1     -11.449   5.993 125.704  0.00  0.00    +0.000 HD
ENDBRANCH  14  15
ENDBRANCH  11  14
ENDBRANCH   1  11
TORSDOF 9
ENDMDL
MODEL 2
REMARK VINA RESULT:      -4.4      1.535      2.496
REMARK  Name = Fludeoxyglucose (18F)
REMARK  9 active torsions:
REMARK  status: ('A' for Active; 'I' for Inactive)
REMARK    1  A    between atoms: C_2  and  C_4
REMARK    2  A    between atoms: C_4  and  C_6
REMARK    3  A    between atoms: C_6  and  O_7
REMARK    4  A    between atoms: C_6  and  C_8
REMARK    5  A    between atoms: C_8  and  O_9
REMARK    6  A    between atoms: C_8  and  C_10
REMARK    7  A    between atoms: C_10  and  O_11
REMARK    8  A    between atoms: C_10  and  C_12
REMARK    9  A    between atoms: C_12  and  O_13
REMARK                            x       y       z     vdW  Elec       q    Type
REMARK                         _______ _______ _______ _____ _____    ______ ____
ROOT
ATOM      1  C   UNL     1     -13.021   8.110 128.089  0.00  0.00    +0.000 C 
ENDROOT
BRANCH   1   2
ATOM      2  O   UNL     1     -12.754   9.452 128.552  0.00  0.00    +0.000 OA
ATOM      3  H   UNL     1     -12.846   9.404 129.524  0.00  0.00    +0.000 HD
ENDBRANCH   1   2
BRANCH   1   4
ATOM      4  C   UNL     1     -13.029   7.127 129.305  0.00  0.00    +0.000 C 
BRANCH   4   5
ATOM      5  C   UNL     1     -12.329   7.630 130.561  0.00  0.00    +0.000 C 
ATOM      6  F   UNL     1     -13.252   8.106 131.440  0.00  0.00    +0.000 F 
BRANCH   5   7
ATOM      7  C   UNL     1     -11.455   6.558 131.153  0.00  0.00    +0.000 C 
ATOM      8  O   UNL     1     -10.286   6.348 130.822  0.00  0.00    +0.000 OA
ENDBRANCH   5   7
ENDBRANCH   4   5
BRANCH   4   9
ATOM      9  O   UNL     1     -12.529   5.827 128.954  0.00  0.00    +0.000 OA
ATOM     10  H   UNL     1     -11.750   5.973 128.384  0.00  0.00    +0.000 HD
ENDBRANCH   4   9
ENDBRANCH   1   4
BRANCH   1  11
ATOM     11  C   UNL     1     -11.908   7.764 127.044  0.00  0.00    +0.000 C 
BRANCH  11  12
ATOM     12  O   UNL     1     -12.059   6.514 126.381  0.00  0.00    +0.000 OA
ATOM     13  H   UNL     1     -11.214   6.200 126.023  0.00  0.00    +0.000 HD
ENDBRANCH  11  12
BRANCH  11  14
ATOM     14  C   UNL     1     -10.492   7.855 127.647  0.00  0.00    +0.000 C 
BRANCH  14  15
ATOM     15  O   UNL     1      -9.918   6.563 127.808  0.00  0.00    +0.000 OA
ATOM     16  H   UNL     1      -9.022   6.580 127.430  0.00  0.00    +0.000 HD
ENDBRANCH  14  15
ENDBRANCH  11  14
ENDBRANCH   1  11
TORSDOF 9
ENDMDL
MODEL 3
REMARK VINA RESULT:      -4.4      1.905      4.162
REMARK  Name = Fludeoxyglucose (18F)
REMARK  9 active torsions:
REMARK  status: ('A' for Active; 'I' for Inactive)
REMARK    1  A    between atoms: C_2  and  C_4
REMARK    2  A    between atoms: C_4  and  C_6
REMARK    3  A    between atoms: C_6  and  O_7
REMARK    4  A    between atoms: C_6  and  C_8
REMARK    5  A    between atoms: C_8  and  O_9
REMARK    6  A    between atoms: C_8  and  C_10
REMARK    7  A    between atoms: C_10  and  O_11
REMARK    8  A    between atoms: C_10  and  C_12
REMARK    9  A    between atoms: C_12  and  O_13
REMARK                            x       y       z     vdW  Elec       q    Type
REMARK                         _______ _______ _______ _____ _____    ______ ____
ROOT
ATOM      1  C   UNL     1     -10.991   6.329 129.897  0.00  0.00    +0.000 C 
ENDROOT
BRANCH   1   2
ATOM      2  O   UNL     1     -11.987   5.503 129.256  0.00  0.00    +0.000 OA
ATOM      3  H   UNL     1     -12.809   5.665 129.760  0.00  0.00    +0.000 HD
ENDBRANCH   1   2
BRANCH   1   4
ATOM      4  C   UNL     1     -10.978   7.745 129.234  0.00  0.00    +0.000 C 
BRANCH   4   5
ATOM      5  C   UNL     1     -11.871   7.906 128.010  0.00  0.00    +0.000 C 
ATOM      6  F   UNL     1     -12.571   9.068 128.106  0.00  0.00    +0.000 F 
BRANCH   5   7
ATOM      7  C   UNL     1     -11.066   7.810 126.743  0.00  0.00    +0.000 C 
ATOM      8  O   UNL     1     -10.527   6.778 126.335  0.00  0.00    +0.000 OA
ENDBRANCH   5   7
ENDBRANCH   4   5
BRANCH   4   9
ATOM      9  O   UNL     1      -9.645   8.187 128.928  0.00  0.00    +0.000 OA
ATOM     10  H   UNL     1      -9.507   8.018 127.977  0.00  0.00    +0.000 HD
ENDBRANCH   4   9
ENDBRANCH   1   4
BRANCH   1  11
ATOM     11  C   UNL     1      -9.623   5.583 129.749  0.00  0.00    +0.000 C 
BRANCH  11  12
ATOM     12  O   UNL     1      -9.140   5.450 128.417  0.00  0.00    +0.000 OA
ATOM     13  H   UNL     1      -8.181   5.304 128.402  0.00  0.00    +0.000 HD
ENDBRANCH  11  12
BRANCH  11  14
ATOM     14  C   UNL     1      -9.636   4.199 130.428  0.00  0.00    +0.000 C 
BRANCH  14  15
ATOM     15  O   UNL     1     -10.685   4.107 131.386  0.00  0.00    +0.000 OA
ATOM     16  H   UNL     1     -10.441   4.650 132.155  0.00  0.00    +0.000 HD
ENDBRANCH  14  15
ENDBRANCH  11  14
ENDBRANCH   1  11
TORSDOF 9
ENDMDL
MODEL 4
REMARK VINA RESULT:      -4.2      2.242      4.086
REMARK  Name = Fludeoxyglucose (18F)
REMARK  9 active torsions:
REMARK  status: ('A' for Active; 'I' for Inactive)
REMARK    1  A    between atoms: C_2  and  C_4
REMARK    2  A    between atoms: C_4  and  C_6
REMARK    3  A    between atoms: C_6  and  O_7
REMARK    4  A    between atoms: C_6  and  C_8
REMARK    5  A    between atoms: C_8  and  O_9
REMARK    6  A    between atoms: C_8  and  C_10
REMARK    7  A    between atoms: C_10  and  O_11
REMARK    8  A    between atoms: C_10  and  C_12
REMARK    9  A    between atoms: C_12  and  O_13
REMARK                            x       y       z     vdW  Elec       q    Type
REMARK                         _______ _______ _______ _____ _____    ______ ____
ROOT
ATOM      1  C   UNL     1     -12.124   7.580 130.565  0.00  0.00    +0.000 C 
ENDROOT
BRANCH   1   2
ATOM      2  O   UNL     1     -13.231   7.142 131.382  0.00  0.00    +0.000 OA
ATOM      3  H   UNL     1     -12.831   6.913 132.244  0.00  0.00    +0.000 HD
ENDBRANCH   1   2
BRANCH   1   4
ATOM      4  C   UNL     1     -12.651   8.025 129.162  0.00  0.00    +0.000 C 
BRANCH   4   5
ATOM      5  C   UNL     1     -12.616   6.954 128.078  0.00  0.00    +0.000 C 
ATOM      6  F   UNL     1     -13.887   6.605 127.740  0.00  0.00    +0.000 F 
BRANCH   5   7
ATOM      7  C   UNL     1     -11.802   7.412 126.899  0.00  0.00    +0.000 C 
ATOM      8  O   UNL     1     -10.573   7.507 126.894  0.00  0.00    +0.000 OA
ENDBRANCH   5   7
ENDBRANCH   4   5
BRANCH   4   9
ATOM      9  O   UNL     1     -12.001   9.217 128.692  0.00  0.00    +0.000 OA
ATOM     10  H   UNL     1     -11.138   9.262 129.147  0.00  0.00    +0.000 HD
ENDBRANCH   4   9
ENDBRANCH   1   4
BRANCH   1  11
ATOM     11  C   UNL     1     -11.124   6.379 130.479  0.00  0.00    +0.000 C 
BRANCH  11  12
ATOM     12  O   UNL     1     -11.327   5.345 131.435  0.00  0.00    +0.000 OA
ATOM     13  H   UNL     1     -10.494   4.900 131.657  0.00  0.00    +0.000 HD
ENDBRANCH  11  12
BRANCH  11  14
ATOM     14  C   UNL     1      -9.654   6.839 130.528  0.00  0.00    +0.000 C 
BRANCH  14  15
ATOM     15  O   UNL     1      -9.396   7.841 129.551  0.00  0.00    +0.000 OA
ATOM     16  H   UNL     1      -8.671   7.530 128.982  0.00  0.00    +0.000 HD
ENDBRANCH  14  15
ENDBRANCH  11  14
ENDBRANCH   1  11
TORSDOF 9
ENDMDL
MODEL 5
REMARK VINA RESULT:      -4.2      1.668      2.159
REMARK  Name = Fludeoxyglucose (18F)
REMARK  9 active torsions:
REMARK  status: ('A' for Active; 'I' for Inactive)
REMARK    1  A    between atoms: C_2  and  C_4
REMARK    2  A    between atoms: C_4  and  C_6
REMARK    3  A    between atoms: C_6  and  O_7
REMARK    4  A    between atoms: C_6  and  C_8
REMARK    5  A    between atoms: C_8  and  O_9
REMARK    6  A    between atoms: C_8  and  C_10
REMARK    7  A    between atoms: C_10  and  O_11
REMARK    8  A    between atoms: C_10  and  C_12
REMARK    9  A    between atoms: C_12  and  O_13
REMARK                            x       y       z     vdW  Elec       q    Type
REMARK                         _______ _______ _______ _____ _____    ______ ____
ROOT
ATOM      1  C   UNL     1     -10.951   7.819 129.099  0.00  0.00    +0.000 C 
ENDROOT
BRANCH   1   2
ATOM      2  O   UNL     1      -9.733   8.420 128.608  0.00  0.00    +0.000 OA
ATOM      3  H   UNL     1      -9.326   8.838 129.393  0.00  0.00    +0.000 HD
ENDBRANCH   1   2
BRANCH   1   4
ATOM      4  C   UNL     1     -10.615   6.484 129.840  0.00  0.00    +0.000 C 
BRANCH   4   5
ATOM      5  C   UNL     1     -10.006   6.639 131.228  0.00  0.00    +0.000 C 
ATOM      6  F   UNL     1     -10.583   5.750 132.081  0.00  0.00    +0.000 F 
BRANCH   5   7
ATOM      7  C   UNL     1      -8.508   6.510 131.173  0.00  0.00    +0.000 C 
ATOM      8  O   UNL     1      -7.765   7.269 130.546  0.00  0.00    +0.000 OA
ENDBRANCH   5   7
ENDBRANCH   4   5
BRANCH   4   9
ATOM      9  O   UNL     1      -9.799   5.612 129.043  0.00  0.00    +0.000 OA
ATOM     10  H   UNL     1     -10.072   4.700 129.258  0.00  0.00    +0.000 HD
ENDBRANCH   4   9
ENDBRANCH   1   4
BRANCH   1  11
ATOM     11  C   UNL     1     -11.878   7.601 127.857  0.00  0.00    +0.000 C 
BRANCH  11  12
ATOM     12  O   UNL     1     -12.658   6.412 127.877  0.00  0.00    +0.000 OA
ATOM     13  H   UNL     1     -12.768   6.077 128.781  0.00  0.00    +0.000 HD
ENDBRANCH  11  12
BRANCH  11  14
ATOM     14  C   UNL     1     -11.102   7.681 126.527  0.00  0.00    +0.000 C 
BRANCH  14  15
ATOM     15  O   UNL     1     -10.419   6.462 126.258  0.00  0.00    +0.000 OA
ATOM     16  H   UNL     1     -11.080   5.750 126.202  0.00  0.00    +0.000 HD
ENDBRANCH  14  15
ENDBRANCH  11  14
ENDBRANCH   1  11
TORSDOF 9
ENDMDL
MODEL 6
REMARK VINA RESULT:      -4.2      2.125      3.733
REMARK  Name = Fludeoxyglucose (18F)
REMARK  9 active torsions:
REMARK  status: ('A' for Active; 'I' for Inactive)
REMARK    1  A    between atoms: C_2  and  C_4
REMARK    2  A    between atoms: C_4  and  C_6
REMARK    3  A    between atoms: C_6  and  O_7
REMARK    4  A    between atoms: C_6  and  C_8
REMARK    5  A    between atoms: C_8  and  O_9
REMARK    6  A    between atoms: C_8  and  C_10
REMARK    7  A    between atoms: C_10  and  O_11
REMARK    8  A    between atoms: C_10  and  C_12
REMARK    9  A    between atoms: C_12  and  O_13
REMARK                            x       y       z     vdW  Elec       q    Type
REMARK                         _______ _______ _______ _____ _____    ______ ____
ROOT
ATOM      1  C   UNL     1     -10.756   6.641 130.242  0.00  0.00    +0.000 C 
ENDROOT
BRANCH   1   2
ATOM      2  O   UNL     1     -11.307   5.493 129.562  0.00  0.00    +0.000 OA
ATOM      3  H   UNL     1     -12.254   5.704 129.441  0.00  0.00    +0.000 HD
ENDBRANCH   1   2
BRANCH   1   4
ATOM      4  C   UNL     1     -10.978   7.922 129.373  0.00  0.00    +0.000 C 
BRANCH   4   5
ATOM      5  C   UNL     1     -12.418   8.190 128.953  0.00  0.00    +0.000 C 
ATOM      6  F   UNL     1     -12.729   9.492 129.195  0.00  0.00    +0.000 F 
BRANCH   5   7
ATOM      7  C   UNL     1     -12.641   7.791 127.520  0.00  0.00    +0.000 C 
ATOM      8  O   UNL     1     -12.412   6.668 127.064  0.00  0.00    +0.000 OA
ENDBRANCH   5   7
ENDBRANCH   4   5
BRANCH   4   9
ATOM      9  O   UNL     1     -10.120   7.950 128.221  0.00  0.00    +0.000 OA
ATOM     10  H   UNL     1      -9.293   7.499 128.478  0.00  0.00    +0.000 HD
ENDBRANCH   4   9
ENDBRANCH   1   4
BRANCH   1  11
ATOM     11  C   UNL     1      -9.241   6.336 130.488  0.00  0.00    +0.000 C 
BRANCH  11  12
ATOM     12  O   UNL     1      -8.354   7.425 130.265  0.00  0.00    +0.000 OA
ATOM     13  H   UNL     1      -8.791   8.276 130.424  0.00  0.00    +0.000 HD
ENDBRANCH  11  12
BRANCH  11  14
ATOM     14  C   UNL     1      -8.756   5.110 129.689  0.00  0.00    +0.000 C 
BRANCH  14  15
ATOM     15  O   UNL     1      -8.849   5.339 128.288  0.00  0.00    +0.000 OA
ATOM     16  H   UNL     1      -9.786   5.478 128.065  0.00  0.00    +0.000 HD
ENDBRANCH  14  15
ENDBRANCH  11  14
ENDBRANCH   1  11
TORSDOF 9
ENDMDL
MODEL 7
REMARK VINA RESULT:      -4.1      1.696      2.729
REMARK  Name = Fludeoxyglucose (18F)
REMARK  9 active torsions:
REMARK  status: ('A' for Active; 'I' for Inactive)
REMARK    1  A    between atoms: C_2  and  C_4
REMARK    2  A    between atoms: C_4  and  C_6
REMARK    3  A    between atoms: C_6  and  O_7
REMARK    4  A    between atoms: C_6  and  C_8
REMARK    5  A    between atoms: C_8  and  O_9
REMARK    6  A    between atoms: C_8  and  C_10
REMARK    7  A    between atoms: C_10  and  O_11
REMARK    8  A    between atoms: C_10  and  C_12
REMARK    9  A    between atoms: C_12  and  O_13
REMARK                            x       y       z     vdW  Elec       q    Type
REMARK                         _______ _______ _______ _____ _____    ______ ____
ROOT
ATOM      1  C   UNL     1     -12.880   6.840 130.561  0.00  0.00    +0.000 C 
ENDROOT
BRANCH   1   2
ATOM      2  O   UNL     1     -12.827   7.971 131.457  0.00  0.00    +0.000 OA
ATOM      3  H   UNL     1     -13.647   7.910 131.987  0.00  0.00    +0.000 HD
ENDBRANCH   1   2
BRANCH   1   4
ATOM      4  C   UNL     1     -11.607   5.954 130.759  0.00  0.00    +0.000 C 
BRANCH   4   5
ATOM      5  C   UNL     1     -10.274   6.682 130.635  0.00  0.00    +0.000 C 
ATOM      6  F   UNL     1      -9.645   6.692 131.841  0.00  0.00    +0.000 F 
BRANCH   5   7
ATOM      7  C   UNL     1      -9.434   6.079 129.542  0.00  0.00    +0.000 C 
ATOM      8  O   UNL     1      -9.645   6.230 128.336  0.00  0.00    +0.000 OA
ENDBRANCH   5   7
ENDBRANCH   4   5
BRANCH   4   9
ATOM      9  O   UNL     1     -11.614   4.798 129.906  0.00  0.00    +0.000 OA
ATOM     10  H   UNL     1     -12.515   4.729 129.537  0.00  0.00    +0.000 HD
ENDBRANCH   4   9
ENDBRANCH   1   4
BRANCH   1  11
ATOM     11  C   UNL     1     -12.990   7.419 129.111  0.00  0.00    +0.000 C 
BRANCH  11  12
ATOM     12  O   UNL     1     -12.494   6.577 128.077  0.00  0.00    +0.000 OA
ATOM     13  H   UNL     1     -13.217   6.177 127.569  0.00  0.00    +0.000 HD
ENDBRANCH  11  12
BRANCH  11  14
ATOM     14  C   UNL     1     -12.345   8.814 128.989  0.00  0.00    +0.000 C 
BRANCH  14  15
ATOM     15  O   UNL     1     -11.276   8.804 128.050  0.00  0.00    +0.000 OA
ATOM     16  H   UNL     1     -10.446   8.951 128.535  0.00  0.00    +0.000 HD
ENDBRANCH  14  15
ENDBRANCH  11  14
ENDBRANCH   1  11
TORSDOF 9
ENDMDL
MODEL 8
REMARK VINA RESULT:      -3.9      1.629      2.585
REMARK  Name = Fludeoxyglucose (18F)
REMARK  9 active torsions:
REMARK  status: ('A' for Active; 'I' for Inactive)
REMARK    1  A    between atoms: C_2  and  C_4
REMARK    2  A    between atoms: C_4  and  C_6
REMARK    3  A    between atoms: C_6  and  O_7
REMARK    4  A    between atoms: C_6  and  C_8
REMARK    5  A    between atoms: C_8  and  O_9
REMARK    6  A    between atoms: C_8  and  C_10
REMARK    7  A    between atoms: C_10  and  O_11
REMARK    8  A    between atoms: C_10  and  C_12
REMARK    9  A    between atoms: C_12  and  O_13
REMARK                            x       y       z     vdW  Elec       q    Type
REMARK                         _______ _______ _______ _____ _____    ______ ____
ROOT
ATOM      1  C   UNL     1     -11.017   8.190 129.010  0.00  0.00    +0.000 C 
ENDROOT
BRANCH   1   2
ATOM      2  O   UNL     1     -10.943   8.843 127.725  0.00  0.00    +0.000 OA
ATOM      3  H   UNL     1     -10.370   8.265 127.183  0.00  0.00    +0.000 HD
ENDBRANCH   1   2
BRANCH   1   4
ATOM      4  C   UNL     1     -10.548   6.705 128.872  0.00  0.00    +0.000 C 
BRANCH   4   5
ATOM      5  C   UNL     1      -9.793   6.140 130.069  0.00  0.00    +0.000 C 
ATOM      6  F   UNL     1      -9.571   7.128 130.976  0.00  0.00    +0.000 F 
BRANCH   5   7
ATOM      7  C   UNL     1     -10.523   4.961 130.654  0.00  0.00    +0.000 C 
ATOM      8  O   UNL     1     -11.007   4.041 129.992  0.00  0.00    +0.000 OA
ENDBRANCH   5   7
ENDBRANCH   4   5
BRANCH   4   9
ATOM      9  O   UNL     1      -9.792   6.485 127.670  0.00  0.00    +0.000 OA
ATOM     10  H   UNL     1      -8.992   7.040 127.738  0.00  0.00    +0.000 HD
ENDBRANCH   4   9
ENDBRANCH   1   4
BRANCH   1  11
ATOM     11  C   UNL     1     -12.501   8.310 129.493  0.00  0.00    +0.000 C 
BRANCH  11  12
ATOM     12  O   UNL     1     -13.221   7.085 129.567  0.00  0.00    +0.000 OA
ATOM     13  H   UNL     1     -12.776   6.447 130.147  0.00  0.00    +0.000 HD
ENDBRANCH  11  12
BRANCH  11  14
ATOM     14  C   UNL     1     -13.306   9.326 128.659  0.00  0.00    +0.000 C 
BRANCH  14  15
ATOM     15  O   UNL     1     -13.009  10.661 129.051  0.00  0.00    +0.000 OA
ATOM     16  H   UNL     1     -13.585  11.261 128.547  0.00  0.00    +0.000 HD
ENDBRANCH  14  15
ENDBRANCH  11  14
ENDBRANCH   1  11
TORSDOF 9
ENDMDL
MODEL 9
REMARK VINA RESULT:      -3.9      8.219      9.483
REMARK  Name = Fludeoxyglucose (18F)
REMARK  9 active torsions:
REMARK  status: ('A' for Active; 'I' for Inactive)
REMARK    1  A    between atoms: C_2  and  C_4
REMARK    2  A    between atoms: C_4  and  C_6
REMARK    3  A    between atoms: C_6  and  O_7
REMARK    4  A    between atoms: C_6  and  C_8
REMARK    5  A    between atoms: C_8  and  O_9
REMARK    6  A    between atoms: C_8  and  C_10
REMARK    7  A    between atoms: C_10  and  O_11
REMARK    8  A    between atoms: C_10  and  C_12
REMARK    9  A    between atoms: C_12  and  O_13
REMARK                            x       y       z     vdW  Elec       q    Type
REMARK                         _______ _______ _______ _____ _____    ______ ____
ROOT
ATOM      1  C   UNL     1      -8.750  -0.548 124.400  0.00  0.00    +0.000 C 
ENDROOT
BRANCH   1   2
ATOM      2  O   UNL     1      -9.782  -0.920 125.338  0.00  0.00    +0.000 OA
ATOM      3  H   UNL     1      -9.786  -0.204 126.003  0.00  0.00    +0.000 HD
ENDBRANCH   1   2
BRANCH   1   4
ATOM      4  C   UNL     1      -9.376   0.284 123.233  0.00  0.00    +0.000 C 
BRANCH   4   5
ATOM      5  C   UNL     1      -9.940   1.644 123.626  0.00  0.00    +0.000 C 
ATOM      6  F   UNL     1     -11.196   1.491 124.125  0.00  0.00    +0.000 F 
BRANCH   5   7
ATOM      7  C   UNL     1      -9.015   2.353 124.577  0.00  0.00    +0.000 C 
ATOM      8  O   UNL     1      -8.597   3.503 124.418  0.00  0.00    +0.000 OA
ENDBRANCH   5   7
ENDBRANCH   4   5
BRANCH   4   9
ATOM      9  O   UNL     1     -10.364  -0.462 122.505  0.00  0.00    +0.000 OA
ATOM     10  H   UNL     1     -10.129  -1.405 122.603  0.00  0.00    +0.000 HD
ENDBRANCH   4   9
ENDBRANCH   1   4
BRANCH   1  11
ATOM     11  C   UNL     1      -8.091  -1.878 123.904  0.00  0.00    +0.000 C 
BRANCH  11  12
ATOM     12  O   UNL     1      -7.785  -1.928 122.515  0.00  0.00    +0.000 OA
ATOM     13  H   UNL     1      -8.278  -1.256 122.020  0.00  0.00    +0.000 HD
ENDBRANCH  11  12
BRANCH  11  14
ATOM     14  C   UNL     1      -8.919  -3.119 124.290  0.00  0.00    +0.000 C 
BRANCH  14  15
ATOM     15  O   UNL     1     -10.047  -3.269 123.437  0.00  0.00    +0.000 OA
ATOM     16  H   UNL     1     -10.188  -2.429 122.968  0.00  0.00    +0.000 HD
ENDBRANCH  14  15
ENDBRANCH  11  14
ENDBRANCH   1  11
TORSDOF 9
ENDMDL
