MODEL 1
REMARK VINA RESULT:      -6.9      0.000      0.000
REMARK  Name = Fludarabine
REMARK  5 active torsions:
REMARK  status: ('A' for Active; 'I' for Inactive)
REMARK    1  A    between atoms: N_11  and  C1*_12
REMARK    2  A    between atoms: C4*_14  and  C5*_15
REMARK    3  A    between atoms: C5*_15  and  O5*_16
REMARK    4  A    between atoms: C3*_17  and  O3*_18
REMARK    5  A    between atoms: C2*_19  and  O2*_20
REMARK                            x       y       z     vdW  Elec       q    Type
REMARK                         _______ _______ _______ _____ _____    ______ ____
ROOT
ATOM      1  N   UNL     1      -6.975   4.964 118.657  0.00  0.00    +0.000 N 
ATOM      2  C   UNL     1      -6.560   4.589 119.916  0.00  0.00    +0.000 A 
ATOM      3  N   UNL     1      -5.286   4.876 120.256  0.00  0.00    +0.000 NA
ATOM      4  C   UNL     1      -4.848   4.517 121.474  0.00  0.00    +0.000 A 
ATOM      5  F   UNL     1      -3.562   4.753 121.757  0.00  0.00    +0.000 F 
ATOM      6  N   UNL     1      -5.560   3.895 122.426  0.00  0.00    +0.000 NA
ATOM      7  C   UNL     1      -6.800   3.602 122.056  0.00  0.00    +0.000 A 
ATOM      8  C   UNL     1      -7.378   3.897 120.832  0.00  0.00    +0.000 A 
ATOM      9  N   UNL     1      -8.659   3.397 120.779  0.00  0.00    +0.000 NA
ATOM     10  C   UNL     1      -8.835   2.771 121.928  0.00  0.00    +0.000 A 
ATOM     11  N   UNL     1      -7.732   2.862 122.743  0.00  0.00    +0.000 N 
ATOM     12  H   UNL     1      -6.359   5.574 118.139  0.00  0.00    +0.000 HD
ATOM     13  H   UNL     1      -7.949   4.866 118.418  0.00  0.00    +0.000 HD
ENDROOT
BRANCH  11  14
ATOM     14  C1* UNL     1      -7.518   2.074 123.956  0.00  0.00    +0.000 C 
ATOM     15  O4* UNL     1      -7.307   0.686 123.622  0.00  0.00    +0.000 OA
ATOM     16  C4* UNL     1      -8.376  -0.099 124.210  0.00  0.00    +0.000 C 
ATOM     17  C3* UNL     1      -9.488   0.874 124.613  0.00  0.00    +0.000 C 
ATOM     18  C2* UNL     1      -8.674   2.118 124.969  0.00  0.00    +0.000 C 
BRANCH  17  19
ATOM     19  O3* UNL     1     -10.363   0.423 125.636  0.00  0.00    +0.000 OA
ATOM     20  H3* UNL     1     -11.220   0.166 125.271  0.00  0.00    +0.000 HD
ENDBRANCH  17  19
BRANCH  18  21
ATOM     21  O2* UNL     1      -9.396   3.341 124.983  0.00  0.00    +0.000 OA
ATOM     22  H2* UNL     1      -9.662   3.535 125.901  0.00  0.00    +0.000 HD
ENDBRANCH  18  21
BRANCH  16  23
ATOM     23  C5* UNL     1      -8.813  -1.173 123.211  0.00  0.00    +0.000 C 
BRANCH  23  24
ATOM     24  O5* UNL     1     -10.132  -0.979 122.728  0.00  0.00    +0.000 OA
ATOM     25  H5* UNL     1     -10.725  -1.591 123.194  0.00  0.00    +0.000 HD
ENDBRANCH  23  24
ENDBRANCH  16  23
ENDBRANCH  11  14
TORSDOF 5
ENDMDL
MODEL 2
REMARK VINA RESULT:      -6.9      7.951      9.417
REMARK  Name = Fludarabine
REMARK  5 active torsions:
REMARK  status: ('A' for Active; 'I' for Inactive)
REMARK    1  A    between atoms: N_11  and  C1*_12
REMARK    2  A    between atoms: C4*_14  and  C5*_15
REMARK    3  A    between atoms: C5*_15  and  O5*_16
REMARK    4  A    between atoms: C3*_17  and  O3*_18
REMARK    5  A    between atoms: C2*_19  and  O2*_20
REMARK                            x       y       z     vdW  Elec       q    Type
REMARK                         _______ _______ _______ _____ _____    ______ ____
ROOT
ATOM      1  N   UNL     1     -12.971   9.402 129.581  0.00  0.00    +0.000 N 
ATOM      2  C   UNL     1     -12.049   8.478 129.141  0.00  0.00    +0.000 A 
ATOM      3  N   UNL     1     -11.663   8.558 127.850  0.00  0.00    +0.000 NA
ATOM      4  C   UNL     1     -10.772   7.667 127.388  0.00  0.00    +0.000 A 
ATOM      5  F   UNL     1     -10.461   7.729 126.088  0.00  0.00    +0.000 F 
ATOM      6  N   UNL     1     -10.193   6.681 128.089  0.00  0.00    +0.000 NA
ATOM      7  C   UNL     1     -10.609   6.608 129.347  0.00  0.00    +0.000 A 
ATOM      8  C   UNL     1     -11.531   7.448 129.951  0.00  0.00    +0.000 A 
ATOM      9  N   UNL     1     -11.762   7.044 131.247  0.00  0.00    +0.000 NA
ATOM     10  C   UNL     1     -11.032   5.956 131.407  0.00  0.00    +0.000 A 
ATOM     11  N   UNL     1     -10.311   5.643 130.279  0.00  0.00    +0.000 N 
ATOM     12  H   UNL     1     -13.168  10.176 128.964  0.00  0.00    +0.000 HD
ATOM     13  H   UNL     1     -13.191   9.438 130.564  0.00  0.00    +0.000 HD
ENDROOT
BRANCH  11  14
ATOM     14  C1* UNL     1      -9.614   4.378 130.052  0.00  0.00    +0.000 C 
ATOM     15  O4* UNL     1     -10.024   3.399 131.031  0.00  0.00    +0.000 OA
ATOM     16  C4* UNL     1      -8.866   3.023 131.820  0.00  0.00    +0.000 C 
ATOM     17  C3* UNL     1      -7.781   4.073 131.567  0.00  0.00    +0.000 C 
ATOM     18  C2* UNL     1      -8.081   4.461 130.120  0.00  0.00    +0.000 C 
BRANCH  17  19
ATOM     19  O3* UNL     1      -6.446   3.651 131.805  0.00  0.00    +0.000 OA
ATOM     20  H3* UNL     1      -6.009   3.398 130.981  0.00  0.00    +0.000 HD
ENDBRANCH  17  19
BRANCH  18  21
ATOM     21  O2* UNL     1      -7.542   5.705 129.693  0.00  0.00    +0.000 OA
ATOM     22  H2* UNL     1      -7.557   6.325 130.445  0.00  0.00    +0.000 HD
ENDBRANCH  18  21
BRANCH  16  23
ATOM     23  C5* UNL     1      -9.284   2.893 133.287  0.00  0.00    +0.000 C 
BRANCH  23  24
ATOM     24  O5* UNL     1      -9.708   4.121 133.855  0.00  0.00    +0.000 OA
ATOM     25  H5* UNL     1      -8.957   4.737 133.857  0.00  0.00    +0.000 HD
ENDBRANCH  23  24
ENDBRANCH  16  23
ENDBRANCH  11  14
TORSDOF 5
ENDMDL
MODEL 3
REMARK VINA RESULT:      -6.9      8.341      9.606
REMARK  Name = Fludarabine
REMARK  5 active torsions:
REMARK  status: ('A' for Active; 'I' for Inactive)
REMARK    1  A    between atoms: N_11  and  C1*_12
REMARK    2  A    between atoms: C4*_14  and  C5*_15
REMARK    3  A    between atoms: C5*_15  and  O5*_16
REMARK    4  A    between atoms: C3*_17  and  O3*_18
REMARK    5  A    between atoms: C2*_19  and  O2*_20
REMARK                            x       y       z     vdW  Elec       q    Type
REMARK                         _______ _______ _______ _____ _____    ______ ____
ROOT
ATOM      1  N   UNL     1     -11.414   7.581 126.026  0.00  0.00    +0.000 N 
ATOM      2  C   UNL     1     -11.405   7.689 127.400  0.00  0.00    +0.000 A 
ATOM      3  N   UNL     1     -12.246   8.588 127.952  0.00  0.00    +0.000 NA
ATOM      4  C   UNL     1     -12.256   8.724 129.288  0.00  0.00    +0.000 A 
ATOM      5  F   UNL     1     -13.050   9.671 129.802  0.00  0.00    +0.000 F 
ATOM      6  N   UNL     1     -11.510   8.036 130.166  0.00  0.00    +0.000 NA
ATOM      7  C   UNL     1     -10.674   7.178 129.594  0.00  0.00    +0.000 A 
ATOM      8  C   UNL     1     -10.546   6.946 128.234  0.00  0.00    +0.000 A 
ATOM      9  N   UNL     1      -9.544   6.031 128.001  0.00  0.00    +0.000 NA
ATOM     10  C   UNL     1      -9.046   5.751 129.191  0.00  0.00    +0.000 A 
ATOM     11  N   UNL     1      -9.696   6.426 130.198  0.00  0.00    +0.000 N 
ATOM     12  H   UNL     1     -12.161   8.053 125.538  0.00  0.00    +0.000 HD
ATOM     13  H   UNL     1     -10.882   6.841 125.594  0.00  0.00    +0.000 HD
ENDROOT
BRANCH  11  14
ATOM     14  C1* UNL     1      -9.226   6.527 131.579  0.00  0.00    +0.000 C 
ATOM     15  O4* UNL     1      -7.912   5.942 131.705  0.00  0.00    +0.000 OA
ATOM     16  C4* UNL     1      -7.994   4.815 132.614  0.00  0.00    +0.000 C 
ATOM     17  C3* UNL     1      -9.476   4.462 132.771  0.00  0.00    +0.000 C 
ATOM     18  C2* UNL     1     -10.122   5.838 132.620  0.00  0.00    +0.000 C 
BRANCH  17  19
ATOM     19  O3* UNL     1      -9.823   3.768 133.961  0.00  0.00    +0.000 OA
ATOM     20  H3* UNL     1     -10.657   3.291 133.854  0.00  0.00    +0.000 HD
ENDBRANCH  17  19
BRANCH  18  21
ATOM     21  O2* UNL     1     -11.505   5.835 132.294  0.00  0.00    +0.000 OA
ATOM     22  H2* UNL     1     -11.989   6.322 132.986  0.00  0.00    +0.000 HD
ENDBRANCH  18  21
BRANCH  16  23
ATOM     23  C5* UNL     1      -7.131   3.673 132.071  0.00  0.00    +0.000 C 
BRANCH  23  24
ATOM     24  O5* UNL     1      -7.804   2.426 132.056  0.00  0.00    +0.000 OA
ATOM     25  H5* UNL     1      -7.933   2.154 131.133  0.00  0.00    +0.000 HD
ENDBRANCH  23  24
ENDBRANCH  16  23
ENDBRANCH  11  14
TORSDOF 5
ENDMDL
MODEL 4
REMARK VINA RESULT:      -6.9      2.065      3.209
REMARK  Name = Fludarabine
REMARK  5 active torsions:
REMARK  status: ('A' for Active; 'I' for Inactive)
REMARK    1  A    between atoms: N_11  and  C1*_12
REMARK    2  A    between atoms: C4*_14  and  C5*_15
REMARK    3  A    between atoms: C5*_15  and  O5*_16
REMARK    4  A    between atoms: C3*_17  and  O3*_18
REMARK    5  A    between atoms: C2*_19  and  O2*_20
REMARK                            x       y       z     vdW  Elec       q    Type
REMARK                         _______ _______ _______ _____ _____    ______ ____
ROOT
ATOM      1  N   UNL     1      -5.263   4.593 120.281  0.00  0.00    +0.000 N 
ATOM      2  C   UNL     1      -6.491   4.137 120.707  0.00  0.00    +0.000 A 
ATOM      3  N   UNL     1      -7.538   4.318 119.875  0.00  0.00    +0.000 NA
ATOM      4  C   UNL     1      -8.750   3.893 120.264  0.00  0.00    +0.000 A 
ATOM      5  F   UNL     1      -9.780   4.147 119.448  0.00  0.00    +0.000 F 
ATOM      6  N   UNL     1      -9.047   3.277 121.419  0.00  0.00    +0.000 NA
ATOM      7  C   UNL     1      -8.005   3.137 122.229  0.00  0.00    +0.000 A 
ATOM      8  C   UNL     1      -6.706   3.540 121.965  0.00  0.00    +0.000 A 
ATOM      9  N   UNL     1      -5.901   3.283 123.051  0.00  0.00    +0.000 NA
ATOM     10  C   UNL     1      -6.704   2.779 123.969  0.00  0.00    +0.000 A 
ATOM     11  N   UNL     1      -8.000   2.671 123.521  0.00  0.00    +0.000 N 
ATOM     12  H   UNL     1      -5.193   4.875 119.314  0.00  0.00    +0.000 HD
ATOM     13  H   UNL     1      -4.446   4.372 120.829  0.00  0.00    +0.000 HD
ENDROOT
BRANCH  11  14
ATOM     14  C1* UNL     1      -9.159   2.392 124.368  0.00  0.00    +0.000 C 
ATOM     15  O4* UNL     1      -8.797   2.491 125.761  0.00  0.00    +0.000 OA
ATOM     16  C4* UNL     1      -8.985   1.192 126.380  0.00  0.00    +0.000 C 
ATOM     17  C3* UNL     1      -9.117   0.164 125.253  0.00  0.00    +0.000 C 
ATOM     18  C2* UNL     1      -9.789   1.005 124.168  0.00  0.00    +0.000 C 
BRANCH  17  19
ATOM     19  O3* UNL     1      -9.802  -1.034 125.587  0.00  0.00    +0.000 OA
ATOM     20  H3* UNL     1      -9.632  -1.725 124.932  0.00  0.00    +0.000 HD
ENDBRANCH  17  19
BRANCH  18  21
ATOM     21  O2* UNL     1      -9.684   0.498 122.845  0.00  0.00    +0.000 OA
ATOM     22  H2* UNL     1     -10.575   0.477 122.448  0.00  0.00    +0.000 HD
ENDBRANCH  18  21
BRANCH  16  23
ATOM     23  C5* UNL     1      -7.824   0.925 127.340  0.00  0.00    +0.000 C 
BRANCH  23  24
ATOM     24  O5* UNL     1      -7.785  -0.413 127.808  0.00  0.00    +0.000 OA
ATOM     25  H5* UNL     1      -6.858  -0.664 127.952  0.00  0.00    +0.000 HD
ENDBRANCH  23  24
ENDBRANCH  16  23
ENDBRANCH  11  14
TORSDOF 5
ENDMDL
MODEL 5
REMARK VINA RESULT:      -6.9      3.927      5.817
REMARK  Name = Fludarabine
REMARK  5 active torsions:
REMARK  status: ('A' for Active; 'I' for Inactive)
REMARK    1  A    between atoms: N_11  and  C1*_12
REMARK    2  A    between atoms: C4*_14  and  C5*_15
REMARK    3  A    between atoms: C5*_15  and  O5*_16
REMARK    4  A    between atoms: C3*_17  and  O3*_18
REMARK    5  A    between atoms: C2*_19  and  O2*_20
REMARK                            x       y       z     vdW  Elec       q    Type
REMARK                         _______ _______ _______ _____ _____    ______ ____
ROOT
ATOM      1  N   UNL     1      -9.699  -3.147 124.258  0.00  0.00    +0.000 N 
ATOM      2  C   UNL     1      -8.784  -2.164 123.949  0.00  0.00    +0.000 A 
ATOM      3  N   UNL     1      -7.787  -2.496 123.101  0.00  0.00    +0.000 NA
ATOM      4  C   UNL     1      -6.873  -1.563 122.786  0.00  0.00    +0.000 A 
ATOM      5  F   UNL     1      -5.860  -1.940 121.998  0.00  0.00    +0.000 F 
ATOM      6  N   UNL     1      -6.845  -0.295 123.223  0.00  0.00    +0.000 NA
ATOM      7  C   UNL     1      -7.820  -0.005 124.075  0.00  0.00    +0.000 A 
ATOM      8  C   UNL     1      -8.817  -0.868 124.499  0.00  0.00    +0.000 A 
ATOM      9  N   UNL     1      -9.624  -0.243 125.423  0.00  0.00    +0.000 NA
ATOM     10  C   UNL     1      -9.097   0.956 125.589  0.00  0.00    +0.000 A 
ATOM     11  N   UNL     1      -7.993   1.154 124.793  0.00  0.00    +0.000 N 
ATOM     12  H   UNL     1      -9.664  -3.990 123.704  0.00  0.00    +0.000 HD
ATOM     13  H   UNL     1     -10.514  -2.898 124.795  0.00  0.00    +0.000 HD
ENDROOT
BRANCH  11  14
ATOM     14  C1* UNL     1      -7.051   2.263 124.927  0.00  0.00    +0.000 C 
ATOM     15  O4* UNL     1      -6.760   2.508 126.319  0.00  0.00    +0.000 OA
ATOM     16  C4* UNL     1      -7.210   3.845 126.657  0.00  0.00    +0.000 C 
ATOM     17  C3* UNL     1      -8.144   4.309 125.535  0.00  0.00    +0.000 C 
ATOM     18  C2* UNL     1      -7.530   3.596 124.331  0.00  0.00    +0.000 C 
BRANCH  17  19
ATOM     19  O3* UNL     1      -8.282   5.715 125.388  0.00  0.00    +0.000 OA
ATOM     20  H3* UNL     1      -7.653   6.187 125.950  0.00  0.00    +0.000 HD
ENDBRANCH  17  19
BRANCH  18  21
ATOM     21  O2* UNL     1      -8.378   3.461 123.199  0.00  0.00    +0.000 OA
ATOM     22  H2* UNL     1      -8.021   2.758 122.624  0.00  0.00    +0.000 HD
ENDBRANCH  18  21
BRANCH  16  23
ATOM     23  C5* UNL     1      -7.861   3.816 128.042  0.00  0.00    +0.000 C 
BRANCH  23  24
ATOM     24  O5* UNL     1      -8.646   4.965 128.312  0.00  0.00    +0.000 OA
ATOM     25  H5* UNL     1      -8.900   5.373 127.468  0.00  0.00    +0.000 HD
ENDBRANCH  23  24
ENDBRANCH  16  23
ENDBRANCH  11  14
TORSDOF 5
ENDMDL
MODEL 6
REMARK VINA RESULT:      -6.7      8.766     10.531
REMARK  Name = Fludarabine
REMARK  5 active torsions:
REMARK  status: ('A' for Active; 'I' for Inactive)
REMARK    1  A    between atoms: N_11  and  C1*_12
REMARK    2  A    between atoms: C4*_14  and  C5*_15
REMARK    3  A    between atoms: C5*_15  and  O5*_16
REMARK    4  A    between atoms: C3*_17  and  O3*_18
REMARK    5  A    between atoms: C2*_19  and  O2*_20
REMARK                            x       y       z     vdW  Elec       q    Type
REMARK                         _______ _______ _______ _____ _____    ______ ____
ROOT
ATOM      1  N   UNL     1      -6.099   6.031 132.691  0.00  0.00    +0.000 N 
ATOM      2  C   UNL     1      -7.440   5.737 132.575  0.00  0.00    +0.000 A 
ATOM      3  N   UNL     1      -7.938   4.793 133.401  0.00  0.00    +0.000 NA
ATOM      4  C   UNL     1      -9.239   4.477 133.307  0.00  0.00    +0.000 A 
ATOM      5  F   UNL     1      -9.688   3.491 134.092  0.00  0.00    +0.000 F 
ATOM      6  N   UNL     1     -10.133   5.018 132.466  0.00  0.00    +0.000 NA
ATOM      7  C   UNL     1      -9.611   5.923 131.647  0.00  0.00    +0.000 A 
ATOM      8  C   UNL     1      -8.288   6.335 131.622  0.00  0.00    +0.000 A 
ATOM      9  N   UNL     1      -8.095   7.246 130.608  0.00  0.00    +0.000 NA
ATOM     10  C   UNL     1      -9.264   7.347 130.004  0.00  0.00    +0.000 A 
ATOM     11  N   UNL     1     -10.224   6.559 130.594  0.00  0.00    +0.000 N 
ATOM     12  H   UNL     1      -5.618   5.651 133.493  0.00  0.00    +0.000 HD
ATOM     13  H   UNL     1      -5.725   6.808 132.168  0.00  0.00    +0.000 HD
ENDROOT
BRANCH  11  14
ATOM     14  C1* UNL     1     -11.533   6.258 130.018  0.00  0.00    +0.000 C 
ATOM     15  O4* UNL     1     -11.412   6.016 128.600  0.00  0.00    +0.000 OA
ATOM     16  C4* UNL     1     -12.175   7.026 127.892  0.00  0.00    +0.000 C 
ATOM     17  C3* UNL     1     -12.479   8.150 128.887  0.00  0.00    +0.000 C 
ATOM     18  C2* UNL     1     -12.587   7.363 130.192  0.00  0.00    +0.000 C 
BRANCH  17  19
ATOM     19  O3* UNL     1     -13.607   8.957 128.583  0.00  0.00    +0.000 OA
ATOM     20  H3* UNL     1     -13.871   9.488 129.347  0.00  0.00    +0.000 HD
ENDBRANCH  17  19
BRANCH  18  21
ATOM     21  O2* UNL     1     -12.447   8.125 131.383  0.00  0.00    +0.000 OA
ATOM     22  H2* UNL     1     -12.202   9.037 131.142  0.00  0.00    +0.000 HD
ENDBRANCH  18  21
BRANCH  16  23
ATOM     23  C5* UNL     1     -11.385   7.476 126.660  0.00  0.00    +0.000 C 
BRANCH  23  24
ATOM     24  O5* UNL     1     -10.511   6.475 126.165  0.00  0.00    +0.000 OA
ATOM     25  H5* UNL     1     -11.040   5.797 125.715  0.00  0.00    +0.000 HD
ENDBRANCH  23  24
ENDBRANCH  16  23
ENDBRANCH  11  14
TORSDOF 5
ENDMDL
MODEL 7
REMARK VINA RESULT:      -6.6      9.724     10.755
REMARK  Name = Fludarabine
REMARK  5 active torsions:
REMARK  status: ('A' for Active; 'I' for Inactive)
REMARK    1  A    between atoms: N_11  and  C1*_12
REMARK    2  A    between atoms: C4*_14  and  C5*_15
REMARK    3  A    between atoms: C5*_15  and  O5*_16
REMARK    4  A    between atoms: C3*_17  and  O3*_18
REMARK    5  A    between atoms: C2*_19  and  O2*_20
REMARK                            x       y       z     vdW  Elec       q    Type
REMARK                         _______ _______ _______ _____ _____    ______ ____
ROOT
ATOM      1  N   UNL     1     -10.526   8.661 128.307  0.00  0.00    +0.000 N 
ATOM      2  C   UNL     1     -10.788   7.911 129.433  0.00  0.00    +0.000 A 
ATOM      3  N   UNL     1     -12.072   7.844 129.844  0.00  0.00    +0.000 NA
ATOM      4  C   UNL     1     -12.359   7.128 130.942  0.00  0.00    +0.000 A 
ATOM      5  F   UNL     1     -13.629   7.136 131.364  0.00  0.00    +0.000 F 
ATOM      6  N   UNL     1     -11.489   6.438 131.696  0.00  0.00    +0.000 NA
ATOM      7  C   UNL     1     -10.232   6.543 131.284  0.00  0.00    +0.000 A 
ATOM      8  C   UNL     1      -9.790   7.257 130.182  0.00  0.00    +0.000 A 
ATOM      9  N   UNL     1      -8.418   7.187 130.091  0.00  0.00    +0.000 NA
ATOM     10  C   UNL     1      -8.036   6.485 131.141  0.00  0.00    +0.000 A 
ATOM     11  N   UNL     1      -9.101   6.070 131.905  0.00  0.00    +0.000 N 
ATOM     12  H   UNL     1     -11.324   8.968 127.770  0.00  0.00    +0.000 HD
ATOM     13  H   UNL     1      -9.599   8.636 127.913  0.00  0.00    +0.000 HD
ENDROOT
BRANCH  11  14
ATOM     14  C1* UNL     1      -8.999   5.502 133.248  0.00  0.00    +0.000 C 
ATOM     15  O4* UNL     1      -7.691   5.760 133.803  0.00  0.00    +0.000 OA
ATOM     16  C4* UNL     1      -7.030   4.490 134.037  0.00  0.00    +0.000 C 
ATOM     17  C3* UNL     1      -7.806   3.422 133.261  0.00  0.00    +0.000 C 
ATOM     18  C2* UNL     1      -9.225   3.984 133.328  0.00  0.00    +0.000 C 
BRANCH  17  19
ATOM     19  O3* UNL     1      -7.669   2.091 133.736  0.00  0.00    +0.000 OA
ATOM     20  H3* UNL     1      -6.875   1.996 134.279  0.00  0.00    +0.000 HD
ENDBRANCH  17  19
BRANCH  18  21
ATOM     21  O2* UNL     1     -10.134   3.475 132.362  0.00  0.00    +0.000 OA
ATOM     22  H2* UNL     1     -10.936   3.164 132.823  0.00  0.00    +0.000 HD
ENDBRANCH  18  21
BRANCH  16  23
ATOM     23  C5* UNL     1      -5.558   4.613 133.635  0.00  0.00    +0.000 C 
BRANCH  23  24
ATOM     24  O5* UNL     1      -5.059   3.454 132.990  0.00  0.00    +0.000 OA
ATOM     25  H5* UNL     1      -5.755   2.778 132.986  0.00  0.00    +0.000 HD
ENDBRANCH  23  24
ENDBRANCH  16  23
ENDBRANCH  11  14
TORSDOF 5
ENDMDL
MODEL 8
REMARK VINA RESULT:      -6.5      4.480      6.937
REMARK  Name = Fludarabine
REMARK  5 active torsions:
REMARK  status: ('A' for Active; 'I' for Inactive)
REMARK    1  A    between atoms: N_11  and  C1*_12
REMARK    2  A    between atoms: C4*_14  and  C5*_15
REMARK    3  A    between atoms: C5*_15  and  O5*_16
REMARK    4  A    between atoms: C3*_17  and  O3*_18
REMARK    5  A    between atoms: C2*_19  and  O2*_20
REMARK                            x       y       z     vdW  Elec       q    Type
REMARK                         _______ _______ _______ _____ _____    ______ ____
ROOT
ATOM      1  N   UNL     1      -8.665  -3.696 127.554  0.00  0.00    +0.000 N 
ATOM      2  C   UNL     1      -8.756  -2.897 126.434  0.00  0.00    +0.000 A 
ATOM      3  N   UNL     1      -9.183  -3.481 125.295  0.00  0.00    +0.000 NA
ATOM      4  C   UNL     1      -9.274  -2.732 124.184  0.00  0.00    +0.000 A 
ATOM      5  F   UNL     1      -9.635  -3.353 123.055  0.00  0.00    +0.000 F 
ATOM      6  N   UNL     1      -8.992  -1.425 124.077  0.00  0.00    +0.000 NA
ATOM      7  C   UNL     1      -8.549  -0.884 125.205  0.00  0.00    +0.000 A 
ATOM      8  C   UNL     1      -8.390  -1.537 126.417  0.00  0.00    +0.000 A 
ATOM      9  N   UNL     1      -7.859  -0.678 127.352  0.00  0.00    +0.000 NA
ATOM     10  C   UNL     1      -7.657   0.456 126.708  0.00  0.00    +0.000 A 
ATOM     11  N   UNL     1      -8.057   0.385 125.394  0.00  0.00    +0.000 N 
ATOM     12  H   UNL     1      -9.082  -4.613 127.493  0.00  0.00    +0.000 HD
ATOM     13  H   UNL     1      -8.459  -3.265 128.441  0.00  0.00    +0.000 HD
ENDROOT
BRANCH  11  14
ATOM     14  C1* UNL     1      -7.737   1.374 124.365  0.00  0.00    +0.000 C 
ATOM     15  O4* UNL     1      -6.413   1.907 124.578  0.00  0.00    +0.000 OA
ATOM     16  C4* UNL     1      -6.524   3.330 124.838  0.00  0.00    +0.000 C 
ATOM     17  C3* UNL     1      -7.992   3.621 125.162  0.00  0.00    +0.000 C 
ATOM     18  C2* UNL     1      -8.696   2.574 124.300  0.00  0.00    +0.000 C 
BRANCH  17  19
ATOM     19  O3* UNL     1      -8.420   4.957 124.943  0.00  0.00    +0.000 OA
ATOM     20  H3* UNL     1      -8.955   5.277 125.682  0.00  0.00    +0.000 HD
ENDBRANCH  17  19
BRANCH  18  21
ATOM     21  O2* UNL     1     -10.035   2.275 124.666  0.00  0.00    +0.000 OA
ATOM     22  H2* UNL     1     -10.617   2.978 124.321  0.00  0.00    +0.000 HD
ENDBRANCH  18  21
BRANCH  16  23
ATOM     23  C5* UNL     1      -5.548   3.710 125.954  0.00  0.00    +0.000 C 
BRANCH  23  24
ATOM     24  O5* UNL     1      -5.840   4.966 126.544  0.00  0.00    +0.000 OA
ATOM     25  H5* UNL     1      -5.353   5.035 127.382  0.00  0.00    +0.000 HD
ENDBRANCH  23  24
ENDBRANCH  16  23
ENDBRANCH  11  14
TORSDOF 5
ENDMDL
MODEL 9
REMARK VINA RESULT:      -6.3      7.433      9.292
REMARK  Name = Fludarabine
REMARK  5 active torsions:
REMARK  status: ('A' for Active; 'I' for Inactive)
REMARK    1  A    between atoms: N_11  and  C1*_12
REMARK    2  A    between atoms: C4*_14  and  C5*_15
REMARK    3  A    between atoms: C5*_15  and  O5*_16
REMARK    4  A    between atoms: C3*_17  and  O3*_18
REMARK    5  A    between atoms: C2*_19  and  O2*_20
REMARK                            x       y       z     vdW  Elec       q    Type
REMARK                         _______ _______ _______ _____ _____    ______ ____
ROOT
ATOM      1  N   UNL     1      -5.447   4.383 128.951  0.00  0.00    +0.000 N 
ATOM      2  C   UNL     1      -6.756   3.998 129.139  0.00  0.00    +0.000 A 
ATOM      3  N   UNL     1      -7.090   2.746 128.762  0.00  0.00    +0.000 NA
ATOM      4  C   UNL     1      -8.360   2.342 128.924  0.00  0.00    +0.000 A 
ATOM      5  F   UNL     1      -8.676   1.120 128.479  0.00  0.00    +0.000 F 
ATOM      6  N   UNL     1      -9.365   3.061 129.446  0.00  0.00    +0.000 NA
ATOM      7  C   UNL     1      -9.015   4.296 129.783  0.00  0.00    +0.000 A 
ATOM      8  C   UNL     1      -7.751   4.849 129.658  0.00  0.00    +0.000 A 
ATOM      9  N   UNL     1      -7.769   6.167 130.056  0.00  0.00    +0.000 NA
ATOM     10  C   UNL     1      -9.027   6.418 130.369  0.00  0.00    +0.000 A 
ATOM     11  N   UNL     1      -9.831   5.313 130.218  0.00  0.00    +0.000 N 
ATOM     12  H   UNL     1      -4.790   3.657 128.706  0.00  0.00    +0.000 HD
ATOM     13  H   UNL     1      -5.143   5.268 129.326  0.00  0.00    +0.000 HD
ENDROOT
BRANCH  11  14
ATOM     14  C1* UNL     1     -11.292   5.330 130.240  0.00  0.00    +0.000 C 
ATOM     15  O4* UNL     1     -11.805   5.897 129.015  0.00  0.00    +0.000 OA
ATOM     16  C4* UNL     1     -12.541   7.105 129.339  0.00  0.00    +0.000 C 
ATOM     17  C3* UNL     1     -12.163   7.500 130.770  0.00  0.00    +0.000 C 
ATOM     18  C2* UNL     1     -11.914   6.129 131.396  0.00  0.00    +0.000 C 
BRANCH  17  19
ATOM     19  O3* UNL     1     -13.108   8.306 131.458  0.00  0.00    +0.000 OA
ATOM     20  H3* UNL     1     -13.375   9.064 130.921  0.00  0.00    +0.000 HD
ENDBRANCH  17  19
BRANCH  18  21
ATOM     21  O2* UNL     1     -11.144   6.129 132.589  0.00  0.00    +0.000 OA
ATOM     22  H2* UNL     1     -11.752   6.150 133.352  0.00  0.00    +0.000 HD
ENDBRANCH  18  21
BRANCH  16  23
ATOM     23  C5* UNL     1     -12.229   8.174 128.289  0.00  0.00    +0.000 C 
BRANCH  23  24
ATOM     24  O5* UNL     1     -12.447   9.494 128.759  0.00  0.00    +0.000 OA
ATOM     25  H5* UNL     1     -13.272   9.829 128.372  0.00  0.00    +0.000 HD
ENDBRANCH  23  24
ENDBRANCH  16  23
ENDBRANCH  11  14
TORSDOF 5
ENDMDL
