MODEL 1
REMARK VINA RESULT:      -7.6      0.000      0.000
REMARK  Name = Flufenamic acid
REMARK  5 active torsions:
REMARK  status: ('A' for Active; 'I' for Inactive)
REMARK    1  A    between atoms: O_1  and  C_2
REMARK    2  A    between atoms: C_2  and  C_4
REMARK    3  A    between atoms: C_9  and  N_10
REMARK    4  A    between atoms: N_10  and  C_11
REMARK    5  A    between atoms: C_13  and  C_17
REMARK                            x       y       z     vdW  Elec       q    Type
REMARK                         _______ _______ _______ _____ _____    ______ ____
ROOT
ATOM      1  N   UNL     1     -10.598   5.935 130.059  0.00  0.00    +0.000 N 
ATOM      2  H   UNL     1     -10.594   5.109 129.467  0.00  0.00    +0.000 HD
ENDROOT
BRANCH   1   8
ATOM      3  C   UNL     1     -11.451   7.513 128.287  0.00  0.00    +0.000 A 
ATOM      4  C   UNL     1     -12.265   8.613 127.968  0.00  0.00    +0.000 A 
ATOM      5  C   UNL     1     -12.987   9.274 128.951  0.00  0.00    +0.000 A 
ATOM      6  C   UNL     1     -12.969   8.792 130.252  0.00  0.00    +0.000 A 
ATOM      7  C   UNL     1     -12.190   7.674 130.577  0.00  0.00    +0.000 A 
ATOM      8  C   UNL     1     -11.409   7.004 129.606  0.00  0.00    +0.000 A 
BRANCH   3   9
ATOM      9  C   UNL     1     -10.624   7.096 127.132  0.00  0.00    +0.000 C 
ATOM     10  O   UNL     1      -9.692   6.306 127.260  0.00  0.00    +0.000 OA
BRANCH   9  11
ATOM     11  O   UNL     1     -10.869   7.760 125.989  0.00  0.00    +0.000 OA
ATOM     12  H   UNL     1     -10.077   8.229 125.669  0.00  0.00    +0.000 HD
ENDBRANCH   9  11
ENDBRANCH   3   9
ENDBRANCH   1   8
BRANCH   1  13
ATOM     13  C   UNL     1      -9.578   5.971 131.020  0.00  0.00    +0.000 A 
ATOM     14  C   UNL     1      -9.544   5.036 132.060  0.00  0.00    +0.000 A 
ATOM     15  C   UNL     1      -8.425   4.967 132.909  0.00  0.00    +0.000 A 
ATOM     16  C   UNL     1      -7.280   5.718 132.608  0.00  0.00    +0.000 A 
ATOM     17  C   UNL     1      -7.306   6.640 131.572  0.00  0.00    +0.000 A 
ATOM     18  C   UNL     1      -8.468   6.804 130.824  0.00  0.00    +0.000 A 
BRANCH  15  19
ATOM     19  C   UNL     1      -8.487   4.167 134.181  0.00  0.00    +0.000 C 
ATOM     20  F   UNL     1      -9.736   3.658 134.372  0.00  0.00    +0.000 F 
ATOM     21  F   UNL     1      -7.639   3.104 134.199  0.00  0.00    +0.000 F 
ATOM     22  F   UNL     1      -8.211   4.898 135.295  0.00  0.00    +0.000 F 
ENDBRANCH  15  19
ENDBRANCH   1  13
TORSDOF 5
ENDMDL
MODEL 2
REMARK VINA RESULT:      -7.5      9.388     10.672
REMARK  Name = Flufenamic acid
REMARK  5 active torsions:
REMARK  status: ('A' for Active; 'I' for Inactive)
REMARK    1  A    between atoms: O_1  and  C_2
REMARK    2  A    between atoms: C_2  and  C_4
REMARK    3  A    between atoms: C_9  and  N_10
REMARK    4  A    between atoms: N_10  and  C_11
REMARK    5  A    between atoms: C_13  and  C_17
REMARK                            x       y       z     vdW  Elec       q    Type
REMARK                         _______ _______ _______ _____ _____    ______ ____
ROOT
ATOM      1  N   UNL     1      -7.276   3.555 122.501  0.00  0.00    +0.000 N 
ATOM      2  H   UNL     1      -7.317   4.283 123.209  0.00  0.00    +0.000 HD
ENDROOT
BRANCH   1   8
ATOM      3  C   UNL     1      -5.809   4.635 120.757  0.00  0.00    +0.000 A 
ATOM      4  C   UNL     1      -5.670   5.080 119.432  0.00  0.00    +0.000 A 
ATOM      5  C   UNL     1      -6.722   4.981 118.532  0.00  0.00    +0.000 A 
ATOM      6  C   UNL     1      -7.899   4.359 118.924  0.00  0.00    +0.000 A 
ATOM      7  C   UNL     1      -8.039   3.879 120.232  0.00  0.00    +0.000 A 
ATOM      8  C   UNL     1      -7.000   4.003 121.185  0.00  0.00    +0.000 A 
BRANCH   3   9
ATOM      9  C   UNL     1      -4.644   5.021 121.585  0.00  0.00    +0.000 C 
ATOM     10  O   UNL     1      -4.402   4.466 122.653  0.00  0.00    +0.000 OA
BRANCH   9  11
ATOM     11  O   UNL     1      -3.982   6.111 121.160  0.00  0.00    +0.000 OA
ATOM     12  H   UNL     1      -4.571   6.731 120.693  0.00  0.00    +0.000 HD
ENDBRANCH   9  11
ENDBRANCH   3   9
ENDBRANCH   1   8
BRANCH   1  13
ATOM     13  C   UNL     1      -7.801   2.319 122.900  0.00  0.00    +0.000 A 
ATOM     14  C   UNL     1      -6.973   1.198 123.020  0.00  0.00    +0.000 A 
ATOM     15  C   UNL     1      -7.469   0.012 123.593  0.00  0.00    +0.000 A 
ATOM     16  C   UNL     1      -8.737   0.012 124.192  0.00  0.00    +0.000 A 
ATOM     17  C   UNL     1      -9.558   1.124 124.084  0.00  0.00    +0.000 A 
ATOM     18  C   UNL     1      -9.112   2.246 123.391  0.00  0.00    +0.000 A 
BRANCH  15  19
ATOM     19  C   UNL     1      -6.689  -1.268 123.481  0.00  0.00    +0.000 C 
ATOM     20  F   UNL     1      -7.498  -2.346 123.674  0.00  0.00    +0.000 F 
ATOM     21  F   UNL     1      -6.104  -1.446 122.267  0.00  0.00    +0.000 F 
ATOM     22  F   UNL     1      -5.697  -1.380 124.406  0.00  0.00    +0.000 F 
ENDBRANCH  15  19
ENDBRANCH   1  13
TORSDOF 5
ENDMDL
MODEL 3
REMARK VINA RESULT:      -7.3      9.810     10.986
REMARK  Name = Flufenamic acid
REMARK  5 active torsions:
REMARK  status: ('A' for Active; 'I' for Inactive)
REMARK    1  A    between atoms: O_1  and  C_2
REMARK    2  A    between atoms: C_2  and  C_4
REMARK    3  A    between atoms: C_9  and  N_10
REMARK    4  A    between atoms: N_10  and  C_11
REMARK    5  A    between atoms: C_13  and  C_17
REMARK                            x       y       z     vdW  Elec       q    Type
REMARK                         _______ _______ _______ _____ _____    ______ ____
ROOT
ATOM      1  N   UNL     1      -7.344   0.249 124.602  0.00  0.00    +0.000 N 
ATOM      2  H   UNL     1      -7.456   0.483 125.584  0.00  0.00    +0.000 HD
ENDROOT
BRANCH   1   8
ATOM      3  C   UNL     1      -8.863   1.708 123.214  0.00  0.00    +0.000 A 
ATOM      4  C   UNL     1      -8.979   2.745 122.274  0.00  0.00    +0.000 A 
ATOM      5  C   UNL     1      -7.852   3.348 121.733  0.00  0.00    +0.000 A 
ATOM      6  C   UNL     1      -6.595   2.978 122.190  0.00  0.00    +0.000 A 
ATOM      7  C   UNL     1      -6.465   1.970 123.153  0.00  0.00    +0.000 A 
ATOM      8  C   UNL     1      -7.593   1.307 123.693  0.00  0.00    +0.000 A 
BRANCH   3   9
ATOM      9  C   UNL     1     -10.173   1.082 123.498  0.00  0.00    +0.000 C 
ATOM     10  O   UNL     1     -10.594   0.962 124.646  0.00  0.00    +0.000 OA
BRANCH   9  11
ATOM     11  O   UNL     1     -10.778   0.524 122.435  0.00  0.00    +0.000 OA
ATOM     12  H   UNL     1     -10.871   1.157 121.700  0.00  0.00    +0.000 HD
ENDBRANCH   9  11
ENDBRANCH   3   9
ENDBRANCH   1   8
BRANCH   1  13
ATOM     13  C   UNL     1      -7.274  -1.125 124.331  0.00  0.00    +0.000 A 
ATOM     14  C   UNL     1      -6.044  -1.790 124.335  0.00  0.00    +0.000 A 
ATOM     15  C   UNL     1      -6.001  -3.193 124.243  0.00  0.00    +0.000 A 
ATOM     16  C   UNL     1      -7.193  -3.928 124.316  0.00  0.00    +0.000 A 
ATOM     17  C   UNL     1      -8.415  -3.272 124.322  0.00  0.00    +0.000 A 
ATOM     18  C   UNL     1      -8.452  -1.881 124.269  0.00  0.00    +0.000 A 
BRANCH  15  19
ATOM     19  C   UNL     1      -4.699  -3.896 123.974  0.00  0.00    +0.000 C 
ATOM     20  F   UNL     1      -3.860  -3.102 123.253  0.00  0.00    +0.000 F 
ATOM     21  F   UNL     1      -4.021  -4.237 125.102  0.00  0.00    +0.000 F 
ATOM     22  F   UNL     1      -4.841  -5.039 123.249  0.00  0.00    +0.000 F 
ENDBRANCH  15  19
ENDBRANCH   1  13
TORSDOF 5
ENDMDL
MODEL 4
REMARK VINA RESULT:      -7.2      9.767     11.430
REMARK  Name = Flufenamic acid
REMARK  5 active torsions:
REMARK  status: ('A' for Active; 'I' for Inactive)
REMARK    1  A    between atoms: O_1  and  C_2
REMARK    2  A    between atoms: C_2  and  C_4
REMARK    3  A    between atoms: C_9  and  N_10
REMARK    4  A    between atoms: N_10  and  C_11
REMARK    5  A    between atoms: C_13  and  C_17
REMARK                            x       y       z     vdW  Elec       q    Type
REMARK                         _______ _______ _______ _____ _____    ______ ____
ROOT
ATOM      1  N   UNL     1      -7.658   0.598 124.149  0.00  0.00    +0.000 N 
ATOM      2  H   UNL     1      -8.594   0.735 124.520  0.00  0.00    +0.000 HD
ENDROOT
BRANCH   1   8
ATOM      3  C   UNL     1      -7.950  -1.858 123.654  0.00  0.00    +0.000 A 
ATOM      4  C   UNL     1      -7.412  -3.154 123.716  0.00  0.00    +0.000 A 
ATOM      5  C   UNL     1      -6.175  -3.385 124.301  0.00  0.00    +0.000 A 
ATOM      6  C   UNL     1      -5.424  -2.311 124.756  0.00  0.00    +0.000 A 
ATOM      7  C   UNL     1      -5.932  -1.009 124.668  0.00  0.00    +0.000 A 
ATOM      8  C   UNL     1      -7.208  -0.745 124.116  0.00  0.00    +0.000 A 
BRANCH   3   9
ATOM      9  C   UNL     1      -9.351  -1.873 123.179  0.00  0.00    +0.000 C 
ATOM     10  O   UNL     1      -9.878  -0.875 122.695  0.00  0.00    +0.000 OA
BRANCH   9  11
ATOM     11  O   UNL     1     -10.034  -2.996 123.461  0.00  0.00    +0.000 OA
ATOM     12  H   UNL     1      -9.686  -3.439 124.256  0.00  0.00    +0.000 HD
ENDBRANCH   9  11
ENDBRANCH   3   9
ENDBRANCH   1   8
BRANCH   1  13
ATOM     13  C   UNL     1      -6.894   1.768 124.038  0.00  0.00    +0.000 A 
ATOM     14  C   UNL     1      -6.632   2.331 122.785  0.00  0.00    +0.000 A 
ATOM     15  C   UNL     1      -6.023   3.597 122.694  0.00  0.00    +0.000 A 
ATOM     16  C   UNL     1      -5.836   4.359 123.856  0.00  0.00    +0.000 A 
ATOM     17  C   UNL     1      -6.105   3.808 125.100  0.00  0.00    +0.000 A 
ATOM     18  C   UNL     1      -6.574   2.500 125.189  0.00  0.00    +0.000 A 
BRANCH  15  19
ATOM     19  C   UNL     1      -5.492   4.090 121.377  0.00  0.00    +0.000 C 
ATOM     20  F   UNL     1      -4.804   3.106 120.734  0.00  0.00    +0.000 F 
ATOM     21  F   UNL     1      -6.462   4.498 120.516  0.00  0.00    +0.000 F 
ATOM     22  F   UNL     1      -4.623   5.130 121.499  0.00  0.00    +0.000 F 
ENDBRANCH  15  19
ENDBRANCH   1  13
TORSDOF 5
ENDMDL
MODEL 5
REMARK VINA RESULT:      -7.1      9.253     10.192
REMARK  Name = Flufenamic acid
REMARK  5 active torsions:
REMARK  status: ('A' for Active; 'I' for Inactive)
REMARK    1  A    between atoms: O_1  and  C_2
REMARK    2  A    between atoms: C_2  and  C_4
REMARK    3  A    between atoms: C_9  and  N_10
REMARK    4  A    between atoms: N_10  and  C_11
REMARK    5  A    between atoms: C_13  and  C_17
REMARK                            x       y       z     vdW  Elec       q    Type
REMARK                         _______ _______ _______ _____ _____    ______ ____
ROOT
ATOM      1  N   UNL     1      -7.486   1.244 124.903  0.00  0.00    +0.000 N 
ATOM      2  H   UNL     1      -7.817   1.654 125.771  0.00  0.00    +0.000 HD
ENDROOT
BRANCH   1   8
ATOM      3  C   UNL     1      -8.937   2.061 123.009  0.00  0.00    +0.000 A 
ATOM      4  C   UNL     1      -9.039   2.827 121.836  0.00  0.00    +0.000 A 
ATOM      5  C   UNL     1      -7.935   3.491 121.320  0.00  0.00    +0.000 A 
ATOM      6  C   UNL     1      -6.736   3.465 122.017  0.00  0.00    +0.000 A 
ATOM      7  C   UNL     1      -6.629   2.735 123.207  0.00  0.00    +0.000 A 
ATOM      8  C   UNL     1      -7.725   2.013 123.737  0.00  0.00    +0.000 A 
BRANCH   3   9
ATOM      9  C   UNL     1     -10.172   1.284 123.260  0.00  0.00    +0.000 C 
ATOM     10  O   UNL     1     -10.651   0.543 122.406  0.00  0.00    +0.000 OA
BRANCH   9  11
ATOM     11  O   UNL     1     -10.799   1.573 124.414  0.00  0.00    +0.000 OA
ATOM     12  H   UNL     1     -10.708   2.515 124.647  0.00  0.00    +0.000 HD
ENDBRANCH   9  11
ENDBRANCH   3   9
ENDBRANCH   1   8
BRANCH   1  13
ATOM     13  C   UNL     1      -7.147  -0.113 124.988  0.00  0.00    +0.000 A 
ATOM     14  C   UNL     1      -8.105  -1.104 124.750  0.00  0.00    +0.000 A 
ATOM     15  C   UNL     1      -7.716  -2.453 124.659  0.00  0.00    +0.000 A 
ATOM     16  C   UNL     1      -6.353  -2.781 124.640  0.00  0.00    +0.000 A 
ATOM     17  C   UNL     1      -5.399  -1.800 124.866  0.00  0.00    +0.000 A 
ATOM     18  C   UNL     1      -5.801  -0.487 125.097  0.00  0.00    +0.000 A 
BRANCH  15  19
ATOM     19  C   UNL     1      -8.752  -3.543 124.677  0.00  0.00    +0.000 C 
ATOM     20  F   UNL     1      -8.168  -4.763 124.838  0.00  0.00    +0.000 F 
ATOM     21  F   UNL     1      -9.656  -3.421 125.685  0.00  0.00    +0.000 F 
ATOM     22  F   UNL     1      -9.470  -3.627 123.524  0.00  0.00    +0.000 F 
ENDBRANCH  15  19
ENDBRANCH   1  13
TORSDOF 5
ENDMDL
MODEL 6
REMARK VINA RESULT:      -7.1      4.107      6.650
REMARK  Name = Flufenamic acid
REMARK  5 active torsions:
REMARK  status: ('A' for Active; 'I' for Inactive)
REMARK    1  A    between atoms: O_1  and  C_2
REMARK    2  A    between atoms: C_2  and  C_4
REMARK    3  A    between atoms: C_9  and  N_10
REMARK    4  A    between atoms: N_10  and  C_11
REMARK    5  A    between atoms: C_13  and  C_17
REMARK                            x       y       z     vdW  Elec       q    Type
REMARK                         _______ _______ _______ _____ _____    ______ ____
ROOT
ATOM      1  N   UNL     1      -9.019   6.030 131.022  0.00  0.00    +0.000 N 
ATOM      2  H   UNL     1      -8.423   5.966 130.201  0.00  0.00    +0.000 HD
ENDROOT
BRANCH   1   8
ATOM      3  C   UNL     1      -8.923   3.840 132.269  0.00  0.00    +0.000 A 
ATOM      4  C   UNL     1      -8.530   3.149 133.427  0.00  0.00    +0.000 A 
ATOM      5  C   UNL     1      -7.918   3.813 134.480  0.00  0.00    +0.000 A 
ATOM      6  C   UNL     1      -7.617   5.161 134.354  0.00  0.00    +0.000 A 
ATOM      7  C   UNL     1      -7.972   5.856 133.191  0.00  0.00    +0.000 A 
ATOM      8  C   UNL     1      -8.635   5.216 132.116  0.00  0.00    +0.000 A 
BRANCH   3   9
ATOM      9  C   UNL     1      -9.731   2.983 131.372  0.00  0.00    +0.000 C 
ATOM     10  O   UNL     1      -9.833   3.223 130.172  0.00  0.00    +0.000 OA
BRANCH   9  11
ATOM     11  O   UNL     1     -10.455   2.035 131.993  0.00  0.00    +0.000 OA
ATOM     12  H   UNL     1     -11.064   2.420 132.649  0.00  0.00    +0.000 HD
ENDBRANCH   9  11
ENDBRANCH   3   9
ENDBRANCH   1   8
BRANCH   1  13
ATOM     13  C   UNL     1     -10.253   6.657 130.802  0.00  0.00    +0.000 A 
ATOM     14  C   UNL     1     -10.599   7.124 129.530  0.00  0.00    +0.000 A 
ATOM     15  C   UNL     1     -11.905   7.585 129.280  0.00  0.00    +0.000 A 
ATOM     16  C   UNL     1     -12.896   7.419 130.257  0.00  0.00    +0.000 A 
ATOM     17  C   UNL     1     -12.559   6.947 131.516  0.00  0.00    +0.000 A 
ATOM     18  C   UNL     1     -11.235   6.625 131.801  0.00  0.00    +0.000 A 
BRANCH  15  19
ATOM     19  C   UNL     1     -12.214   8.334 128.014  0.00  0.00    +0.000 C 
ATOM     20  F   UNL     1     -12.946   7.564 127.162  0.00  0.00    +0.000 F 
ATOM     21  F   UNL     1     -12.935   9.469 128.213  0.00  0.00    +0.000 F 
ATOM     22  F   UNL     1     -11.104   8.702 127.317  0.00  0.00    +0.000 F 
ENDBRANCH  15  19
ENDBRANCH   1  13
TORSDOF 5
ENDMDL
MODEL 7
REMARK VINA RESULT:      -6.9      9.353     10.525
REMARK  Name = Flufenamic acid
REMARK  5 active torsions:
REMARK  status: ('A' for Active; 'I' for Inactive)
REMARK    1  A    between atoms: O_1  and  C_2
REMARK    2  A    between atoms: C_2  and  C_4
REMARK    3  A    between atoms: C_9  and  N_10
REMARK    4  A    between atoms: N_10  and  C_11
REMARK    5  A    between atoms: C_13  and  C_17
REMARK                            x       y       z     vdW  Elec       q    Type
REMARK                         _______ _______ _______ _____ _____    ______ ____
ROOT
ATOM      1  N   UNL     1      -7.335   2.939 123.567  0.00  0.00    +0.000 N 
ATOM      2  H   UNL     1      -8.189   3.360 123.921  0.00  0.00    +0.000 HD
ENDROOT
BRANCH   1   8
ATOM      3  C   UNL     1      -7.445   3.798 121.199  0.00  0.00    +0.000 A 
ATOM      4  C   UNL     1      -6.770   4.384 120.115  0.00  0.00    +0.000 A 
ATOM      5  C   UNL     1      -5.415   4.674 120.192  0.00  0.00    +0.000 A 
ATOM      6  C   UNL     1      -4.737   4.459 121.383  0.00  0.00    +0.000 A 
ATOM      7  C   UNL     1      -5.407   3.908 122.484  0.00  0.00    +0.000 A 
ATOM      8  C   UNL     1      -6.778   3.562 122.424  0.00  0.00    +0.000 A 
BRANCH   3   9
ATOM      9  C   UNL     1      -8.820   3.393 120.828  0.00  0.00    +0.000 C 
ATOM     10  O   UNL     1      -9.404   3.898 119.873  0.00  0.00    +0.000 OA
BRANCH   9  11
ATOM     11  O   UNL     1      -9.421   2.564 121.699  0.00  0.00    +0.000 OA
ATOM     12  H   UNL     1      -8.789   1.933 122.090  0.00  0.00    +0.000 HD
ENDBRANCH   9  11
ENDBRANCH   3   9
ENDBRANCH   1   8
BRANCH   1  13
ATOM     13  C   UNL     1      -7.055   1.664 124.079  0.00  0.00    +0.000 A 
ATOM     14  C   UNL     1      -7.038   0.546 123.238  0.00  0.00    +0.000 A 
ATOM     15  C   UNL     1      -6.581  -0.693 123.722  0.00  0.00    +0.000 A 
ATOM     16  C   UNL     1      -5.988  -0.764 124.991  0.00  0.00    +0.000 A 
ATOM     17  C   UNL     1      -5.993   0.345 125.824  0.00  0.00    +0.000 A 
ATOM     18  C   UNL     1      -6.576   1.531 125.389  0.00  0.00    +0.000 A 
BRANCH  15  19
ATOM     19  C   UNL     1      -6.809  -1.949 122.927  0.00  0.00    +0.000 C 
ATOM     20  F   UNL     1      -6.859  -3.037 123.745  0.00  0.00    +0.000 F 
ATOM     21  F   UNL     1      -7.976  -1.947 122.229  0.00  0.00    +0.000 F 
ATOM     22  F   UNL     1      -5.822  -2.207 122.027  0.00  0.00    +0.000 F 
ENDBRANCH  15  19
ENDBRANCH   1  13
TORSDOF 5
ENDMDL
MODEL 8
REMARK VINA RESULT:      -6.9      8.835     10.199
REMARK  Name = Flufenamic acid
REMARK  5 active torsions:
REMARK  status: ('A' for Active; 'I' for Inactive)
REMARK    1  A    between atoms: O_1  and  C_2
REMARK    2  A    between atoms: C_2  and  C_4
REMARK    3  A    between atoms: C_9  and  N_10
REMARK    4  A    between atoms: N_10  and  C_11
REMARK    5  A    between atoms: C_13  and  C_17
REMARK                            x       y       z     vdW  Elec       q    Type
REMARK                         _______ _______ _______ _____ _____    ______ ____
ROOT
ATOM      1  N   UNL     1      -7.538   1.814 123.811  0.00  0.00    +0.000 N 
ATOM      2  H   UNL     1      -8.525   2.030 123.697  0.00  0.00    +0.000 HD
ENDROOT
BRANCH   1   8
ATOM      3  C   UNL     1      -6.062   3.851 123.637  0.00  0.00    +0.000 A 
ATOM      4  C   UNL     1      -5.225   4.647 122.837  0.00  0.00    +0.000 A 
ATOM      5  C   UNL     1      -5.012   4.338 121.501  0.00  0.00    +0.000 A 
ATOM      6  C   UNL     1      -5.567   3.182 120.971  0.00  0.00    +0.000 A 
ATOM      7  C   UNL     1      -6.374   2.360 121.767  0.00  0.00    +0.000 A 
ATOM      8  C   UNL     1      -6.645   2.670 123.121  0.00  0.00    +0.000 A 
BRANCH   3   9
ATOM      9  C   UNL     1      -6.304   4.474 124.958  0.00  0.00    +0.000 C 
ATOM     10  O   UNL     1      -6.520   3.797 125.959  0.00  0.00    +0.000 OA
BRANCH   9  11
ATOM     11  O   UNL     1      -6.426   5.813 124.940  0.00  0.00    +0.000 OA
ATOM     12  H   UNL     1      -7.359   6.089 124.900  0.00  0.00    +0.000 HD
ENDBRANCH   9  11
ENDBRANCH   3   9
ENDBRANCH   1   8
BRANCH   1  13
ATOM     13  C   UNL     1      -7.274   0.551 124.360  0.00  0.00    +0.000 A 
ATOM     14  C   UNL     1      -7.988  -0.574 123.936  0.00  0.00    +0.000 A 
ATOM     15  C   UNL     1      -7.595  -1.858 124.356  0.00  0.00    +0.000 A 
ATOM     16  C   UNL     1      -6.393  -2.018 125.060  0.00  0.00    +0.000 A 
ATOM     17  C   UNL     1      -5.676  -0.905 125.474  0.00  0.00    +0.000 A 
ATOM     18  C   UNL     1      -6.149   0.370 125.175  0.00  0.00    +0.000 A 
BRANCH  15  19
ATOM     19  C   UNL     1      -8.501  -3.038 124.136  0.00  0.00    +0.000 C 
ATOM     20  F   UNL     1      -8.884  -3.117 122.831  0.00  0.00    +0.000 F 
ATOM     21  F   UNL     1      -7.924  -4.232 124.434  0.00  0.00    +0.000 F 
ATOM     22  F   UNL     1      -9.654  -2.977 124.856  0.00  0.00    +0.000 F 
ENDBRANCH  15  19
ENDBRANCH   1  13
TORSDOF 5
ENDMDL
MODEL 9
REMARK VINA RESULT:      -6.9      8.517      9.533
REMARK  Name = Flufenamic acid
REMARK  5 active torsions:
REMARK  status: ('A' for Active; 'I' for Inactive)
REMARK    1  A    between atoms: O_1  and  C_2
REMARK    2  A    between atoms: C_2  and  C_4
REMARK    3  A    between atoms: C_9  and  N_10
REMARK    4  A    between atoms: N_10  and  C_11
REMARK    5  A    between atoms: C_13  and  C_17
REMARK                            x       y       z     vdW  Elec       q    Type
REMARK                         _______ _______ _______ _____ _____    ______ ____
ROOT
ATOM      1  N   UNL     1      -8.480   0.528 125.627  0.00  0.00    +0.000 N 
ATOM      2  H   UNL     1      -9.000   0.914 126.411  0.00  0.00    +0.000 HD
ENDROOT
BRANCH   1   8
ATOM      3  C   UNL     1      -9.192   1.651 123.485  0.00  0.00    +0.000 A 
ATOM      4  C   UNL     1      -8.858   2.516 122.429  0.00  0.00    +0.000 A 
ATOM      5  C   UNL     1      -7.598   3.093 122.352  0.00  0.00    +0.000 A 
ATOM      6  C   UNL     1      -6.685   2.879 123.374  0.00  0.00    +0.000 A 
ATOM      7  C   UNL     1      -7.017   2.047 124.451  0.00  0.00    +0.000 A 
ATOM      8  C   UNL     1      -8.278   1.410 124.537  0.00  0.00    +0.000 A 
BRANCH   3   9
ATOM      9  C   UNL     1     -10.501   0.998 123.259  0.00  0.00    +0.000 C 
ATOM     10  O   UNL     1     -10.685   0.235 122.315  0.00  0.00    +0.000 OA
BRANCH   9  11
ATOM     11  O   UNL     1     -11.493   1.424 124.061  0.00  0.00    +0.000 OA
ATOM     12  H   UNL     1     -12.167   0.734 124.196  0.00  0.00    +0.000 HD
ENDBRANCH   9  11
ENDBRANCH   3   9
ENDBRANCH   1   8
BRANCH   1  13
ATOM     13  C   UNL     1      -8.340  -0.867 125.648  0.00  0.00    +0.000 A 
ATOM     14  C   UNL     1      -8.719  -1.605 126.773  0.00  0.00    +0.000 A 
ATOM     15  C   UNL     1      -8.746  -3.011 126.718  0.00  0.00    +0.000 A 
ATOM     16  C   UNL     1      -8.555  -3.659 125.489  0.00  0.00    +0.000 A 
ATOM     17  C   UNL     1      -8.188  -2.930 124.368  0.00  0.00    +0.000 A 
ATOM     18  C   UNL     1      -8.025  -1.550 124.465  0.00  0.00    +0.000 A 
BRANCH  15  19
ATOM     19  C   UNL     1      -8.885  -3.817 127.980  0.00  0.00    +0.000 C 
ATOM     20  F   UNL     1      -8.777  -3.018 129.078  0.00  0.00    +0.000 F 
ATOM     21  F   UNL     1     -10.080  -4.454 128.092  0.00  0.00    +0.000 F 
ATOM     22  F   UNL     1      -7.925  -4.771 128.121  0.00  0.00    +0.000 F 
ENDBRANCH  15  19
ENDBRANCH   1  13
TORSDOF 5
ENDMDL
