MODEL 1
REMARK VINA RESULT:      -7.8      0.000      0.000
REMARK  Name = Fluindione
REMARK  1 active torsions:
REMARK  status: ('A' for Active; 'I' for Inactive)
REMARK    1  A    between atoms: C_5  and  C_8
REMARK                            x       y       z     vdW  Elec       q    Type
REMARK                         _______ _______ _______ _____ _____    ______ ____
ROOT
ATOM      1  C   UNL     1     -10.045   6.369 131.686  0.00  0.00    +0.000 C 
ATOM      2  C   UNL     1     -11.517   6.677 131.460  0.00  0.00    +0.000 C 
ATOM      3  O   UNL     1     -12.463   6.378 132.164  0.00  0.00    +0.000 OA
ATOM      4  C   UNL     1     -11.647   7.411 130.201  0.00  0.00    +0.000 A 
ATOM      5  C   UNL     1     -12.792   7.921 129.617  0.00  0.00    +0.000 A 
ATOM      6  C   UNL     1     -12.656   8.558 128.380  0.00  0.00    +0.000 A 
ATOM      7  C   UNL     1     -11.395   8.675 127.762  0.00  0.00    +0.000 A 
ATOM      8  C   UNL     1     -10.249   8.158 128.371  0.00  0.00    +0.000 A 
ATOM      9  C   UNL     1     -10.404   7.530 129.593  0.00  0.00    +0.000 A 
ATOM     10  C   UNL     1      -9.384   6.885 130.417  0.00  0.00    +0.000 C 
ATOM     11  O   UNL     1      -8.217   6.787 130.086  0.00  0.00    +0.000 OA
ENDROOT
BRANCH   1  16
ATOM     12  F   UNL     1      -9.074   0.894 132.600  0.00  0.00    +0.000 F 
ATOM     13  C   UNL     1      -9.303   2.195 132.382  0.00  0.00    +0.000 A 
ATOM     14  C   UNL     1      -9.820   2.605 131.160  0.00  0.00    +0.000 A 
ATOM     15  C   UNL     1     -10.056   3.961 130.931  0.00  0.00    +0.000 A 
ATOM     16  C   UNL     1      -9.781   4.904 131.934  0.00  0.00    +0.000 A 
ATOM     17  C   UNL     1      -9.260   4.466 133.163  0.00  0.00    +0.000 A 
ATOM     18  C   UNL     1      -9.019   3.113 133.385  0.00  0.00    +0.000 A 
ENDBRANCH   1  16
TORSDOF 1
ENDMDL
MODEL 2
REMARK VINA RESULT:      -7.7      2.824      5.770
REMARK  Name = Fluindione
REMARK  1 active torsions:
REMARK  status: ('A' for Active; 'I' for Inactive)
REMARK    1  A    between atoms: C_5  and  C_8
REMARK                            x       y       z     vdW  Elec       q    Type
REMARK                         _______ _______ _______ _____ _____    ______ ____
ROOT
ATOM      1  C   UNL     1      -9.494   5.883 129.800  0.00  0.00    +0.000 C 
ATOM      2  C   UNL     1     -10.074   4.699 130.559  0.00  0.00    +0.000 C 
ATOM      3  O   UNL     1     -10.994   3.974 130.230  0.00  0.00    +0.000 OA
ATOM      4  C   UNL     1      -9.339   4.553 131.816  0.00  0.00    +0.000 A 
ATOM      5  C   UNL     1      -9.502   3.596 132.801  0.00  0.00    +0.000 A 
ATOM      6  C   UNL     1      -8.693   3.694 133.936  0.00  0.00    +0.000 A 
ATOM      7  C   UNL     1      -7.747   4.731 134.062  0.00  0.00    +0.000 A 
ATOM      8  C   UNL     1      -7.594   5.686 133.052  0.00  0.00    +0.000 A 
ATOM      9  C   UNL     1      -8.405   5.572 131.938  0.00  0.00    +0.000 A 
ATOM     10  C   UNL     1      -8.466   6.446 130.769  0.00  0.00    +0.000 C 
ATOM     11  O   UNL     1      -7.797   7.456 130.650  0.00  0.00    +0.000 OA
ENDROOT
BRANCH   1  16
ATOM     12  F   UNL     1     -13.389   9.662 128.283  0.00  0.00    +0.000 F 
ATOM     13  C   UNL     1     -12.465   8.763 128.644  0.00  0.00    +0.000 A 
ATOM     14  C   UNL     1     -11.523   8.338 127.715  0.00  0.00    +0.000 A 
ATOM     15  C   UNL     1     -10.562   7.399 128.088  0.00  0.00    +0.000 A 
ATOM     16  C   UNL     1     -10.540   6.893 129.397  0.00  0.00    +0.000 A 
ATOM     17  C   UNL     1     -11.501   7.339 130.321  0.00  0.00    +0.000 A 
ATOM     18  C   UNL     1     -12.464   8.270 129.942  0.00  0.00    +0.000 A 
ENDBRANCH   1  16
TORSDOF 1
ENDMDL
MODEL 3
REMARK VINA RESULT:      -7.4      2.714      5.973
REMARK  Name = Fluindione
REMARK  1 active torsions:
REMARK  status: ('A' for Active; 'I' for Inactive)
REMARK    1  A    between atoms: C_5  and  C_8
REMARK                            x       y       z     vdW  Elec       q    Type
REMARK                         _______ _______ _______ _____ _____    ______ ____
ROOT
ATOM      1  C   UNL     1      -9.408   6.283 130.395  0.00  0.00    +0.000 C 
ATOM      2  C   UNL     1      -9.086   4.979 129.681  0.00  0.00    +0.000 C 
ATOM      3  O   UNL     1      -8.923   4.797 128.489  0.00  0.00    +0.000 OA
ATOM      4  C   UNL     1      -9.010   3.913 130.680  0.00  0.00    +0.000 A 
ATOM      5  C   UNL     1      -8.710   2.577 130.490  0.00  0.00    +0.000 A 
ATOM      6  C   UNL     1      -8.737   1.744 131.612  0.00  0.00    +0.000 A 
ATOM      7  C   UNL     1      -9.054   2.257 132.886  0.00  0.00    +0.000 A 
ATOM      8  C   UNL     1      -9.348   3.612 133.057  0.00  0.00    +0.000 A 
ATOM      9  C   UNL     1      -9.318   4.419 131.935  0.00  0.00    +0.000 A 
ATOM     10  C   UNL     1      -9.612   5.848 131.838  0.00  0.00    +0.000 C 
ATOM     11  O   UNL     1      -9.975   6.525 132.782  0.00  0.00    +0.000 OA
ENDROOT
BRANCH   1  16
ATOM     12  F   UNL     1     -13.888   8.935 128.235  0.00  0.00    +0.000 F 
ATOM     13  C   UNL     1     -12.824   8.303 128.747  0.00  0.00    +0.000 A 
ATOM     14  C   UNL     1     -11.546   8.687 128.359  0.00  0.00    +0.000 A 
ATOM     15  C   UNL     1     -10.437   8.029 128.890  0.00  0.00    +0.000 A 
ATOM     16  C   UNL     1     -10.611   6.989 129.817  0.00  0.00    +0.000 A 
ATOM     17  C   UNL     1     -11.912   6.619 130.197  0.00  0.00    +0.000 A 
ATOM     18  C   UNL     1     -13.017   7.274 129.659  0.00  0.00    +0.000 A 
ENDBRANCH   1  16
TORSDOF 1
ENDMDL
MODEL 4
REMARK VINA RESULT:      -7.2      1.704      2.886
REMARK  Name = Fluindione
REMARK  1 active torsions:
REMARK  status: ('A' for Active; 'I' for Inactive)
REMARK    1  A    between atoms: C_5  and  C_8
REMARK                            x       y       z     vdW  Elec       q    Type
REMARK                         _______ _______ _______ _____ _____    ______ ____
ROOT
ATOM      1  C   UNL     1     -10.598   5.115 131.060  0.00  0.00    +0.000 C 
ATOM      2  C   UNL     1      -9.967   5.407 129.707  0.00  0.00    +0.000 C 
ATOM      3  O   UNL     1      -9.071   4.801 129.151  0.00  0.00    +0.000 OA
ATOM      4  C   UNL     1     -10.612   6.593 129.144  0.00  0.00    +0.000 A 
ATOM      5  C   UNL     1     -10.381   7.199 127.923  0.00  0.00    +0.000 A 
ATOM      6  C   UNL     1     -11.110   8.355 127.628  0.00  0.00    +0.000 A 
ATOM      7  C   UNL     1     -12.046   8.873 128.545  0.00  0.00    +0.000 A 
ATOM      8  C   UNL     1     -12.268   8.242 129.772  0.00  0.00    +0.000 A 
ATOM      9  C   UNL     1     -11.537   7.101 130.046  0.00  0.00    +0.000 A 
ATOM     10  C   UNL     1     -11.557   6.279 131.254  0.00  0.00    +0.000 C 
ATOM     11  O   UNL     1     -12.233   6.540 132.232  0.00  0.00    +0.000 OA
ENDROOT
BRANCH   1  16
ATOM     12  F   UNL     1      -6.819   4.660 135.216  0.00  0.00    +0.000 F 
ATOM     13  C   UNL     1      -7.716   4.768 134.227  0.00  0.00    +0.000 A 
ATOM     14  C   UNL     1      -8.639   3.750 134.025  0.00  0.00    +0.000 A 
ATOM     15  C   UNL     1      -9.572   3.859 132.994  0.00  0.00    +0.000 A 
ATOM     16  C   UNL     1      -9.583   4.996 132.171  0.00  0.00    +0.000 A 
ATOM     17  C   UNL     1      -8.641   6.015 132.395  0.00  0.00    +0.000 A 
ATOM     18  C   UNL     1      -7.707   5.899 133.420  0.00  0.00    +0.000 A 
ENDBRANCH   1  16
TORSDOF 1
ENDMDL
MODEL 5
REMARK VINA RESULT:      -7.2      3.248      5.647
REMARK  Name = Fluindione
REMARK  1 active torsions:
REMARK  status: ('A' for Active; 'I' for Inactive)
REMARK    1  A    between atoms: C_5  and  C_8
REMARK                            x       y       z     vdW  Elec       q    Type
REMARK                         _______ _______ _______ _____ _____    ______ ____
ROOT
ATOM      1  C   UNL     1     -10.405   5.564 130.275  0.00  0.00    +0.000 C 
ATOM      2  C   UNL     1      -9.917   5.976 131.656  0.00  0.00    +0.000 C 
ATOM      3  O   UNL     1     -10.583   6.323 132.614  0.00  0.00    +0.000 OA
ATOM      4  C   UNL     1      -8.456   5.905 131.670  0.00  0.00    +0.000 A 
ATOM      5  C   UNL     1      -7.593   6.159 132.719  0.00  0.00    +0.000 A 
ATOM      6  C   UNL     1      -6.222   6.056 132.466  0.00  0.00    +0.000 A 
ATOM      7  C   UNL     1      -5.748   5.703 131.188  0.00  0.00    +0.000 A 
ATOM      8  C   UNL     1      -6.637   5.445 130.141  0.00  0.00    +0.000 A 
ATOM      9  C   UNL     1      -7.989   5.553 130.411  0.00  0.00    +0.000 A 
ATOM     10  C   UNL     1      -9.113   5.368 129.496  0.00  0.00    +0.000 C 
ATOM     11  O   UNL     1      -8.982   5.119 128.312  0.00  0.00    +0.000 OA
ENDROOT
BRANCH   1  16
ATOM     12  F   UNL     1     -13.825   9.385 127.937  0.00  0.00    +0.000 F 
ATOM     13  C   UNL     1     -13.012   8.476 128.491  0.00  0.00    +0.000 A 
ATOM     14  C   UNL     1     -11.721   8.841 128.851  0.00  0.00    +0.000 A 
ATOM     15  C   UNL     1     -10.872   7.894 129.426  0.00  0.00    +0.000 A 
ATOM     16  C   UNL     1     -11.323   6.584 129.647  0.00  0.00    +0.000 A 
ATOM     17  C   UNL     1     -12.634   6.238 129.276  0.00  0.00    +0.000 A 
ATOM     18  C   UNL     1     -13.476   7.183 128.696  0.00  0.00    +0.000 A 
ENDBRANCH   1  16
TORSDOF 1
ENDMDL
MODEL 6
REMARK VINA RESULT:      -7.2      8.251      9.351
REMARK  Name = Fluindione
REMARK  1 active torsions:
REMARK  status: ('A' for Active; 'I' for Inactive)
REMARK    1  A    between atoms: C_5  and  C_8
REMARK                            x       y       z     vdW  Elec       q    Type
REMARK                         _______ _______ _______ _____ _____    ______ ____
ROOT
ATOM      1  C   UNL     1      -7.909   2.537 123.887  0.00  0.00    +0.000 C 
ATOM      2  C   UNL     1      -8.431   2.735 122.471  0.00  0.00    +0.000 C 
ATOM      3  O   UNL     1      -9.495   2.374 122.006  0.00  0.00    +0.000 OA
ATOM      4  C   UNL     1      -7.411   3.447 121.700  0.00  0.00    +0.000 A 
ATOM      5  C   UNL     1      -7.467   3.866 120.383  0.00  0.00    +0.000 A 
ATOM      6  C   UNL     1      -6.337   4.501 119.861  0.00  0.00    +0.000 A 
ATOM      7  C   UNL     1      -5.190   4.705 120.654  0.00  0.00    +0.000 A 
ATOM      8  C   UNL     1      -5.156   4.278 121.984  0.00  0.00    +0.000 A 
ATOM      9  C   UNL     1      -6.284   3.651 122.482  0.00  0.00    +0.000 A 
ATOM     10  C   UNL     1      -6.494   3.090 123.816  0.00  0.00    +0.000 C 
ATOM     11  O   UNL     1      -5.638   3.074 124.681  0.00  0.00    +0.000 OA
ENDROOT
BRANCH   1  16
ATOM     12  F   UNL     1      -8.097  -2.833 125.583  0.00  0.00    +0.000 F 
ATOM     13  C   UNL     1      -8.054  -1.557 125.179  0.00  0.00    +0.000 A 
ATOM     14  C   UNL     1      -8.840  -0.608 125.818  0.00  0.00    +0.000 A 
ATOM     15  C   UNL     1      -8.798   0.721 125.396  0.00  0.00    +0.000 A 
ATOM     16  C   UNL     1      -7.958   1.098 124.337  0.00  0.00    +0.000 A 
ATOM     17  C   UNL     1      -7.170   0.121 123.705  0.00  0.00    +0.000 A 
ATOM     18  C   UNL     1      -7.220  -1.206 124.124  0.00  0.00    +0.000 A 
ENDBRANCH   1  16
TORSDOF 1
ENDMDL
MODEL 7
REMARK VINA RESULT:      -7.2      2.475      3.444
REMARK  Name = Fluindione
REMARK  1 active torsions:
REMARK  status: ('A' for Active; 'I' for Inactive)
REMARK    1  A    between atoms: C_5  and  C_8
REMARK                            x       y       z     vdW  Elec       q    Type
REMARK                         _______ _______ _______ _____ _____    ______ ____
ROOT
ATOM      1  C   UNL     1      -9.678   5.522 130.637  0.00  0.00    +0.000 C 
ATOM      2  C   UNL     1      -9.757   5.937 129.175  0.00  0.00    +0.000 C 
ATOM      3  O   UNL     1      -9.075   5.548 128.246  0.00  0.00    +0.000 OA
ATOM      4  C   UNL     1     -10.817   6.937 129.037  0.00  0.00    +0.000 A 
ATOM      5  C   UNL     1     -11.260   7.567 127.888  0.00  0.00    +0.000 A 
ATOM      6  C   UNL     1     -12.272   8.520 128.026  0.00  0.00    +0.000 A 
ATOM      7  C   UNL     1     -12.818   8.819 129.290  0.00  0.00    +0.000 A 
ATOM      8  C   UNL     1     -12.360   8.167 130.438  0.00  0.00    +0.000 A 
ATOM      9  C   UNL     1     -11.357   7.228 130.282  0.00  0.00    +0.000 A 
ATOM     10  C   UNL     1     -10.688   6.436 131.313  0.00  0.00    +0.000 C 
ATOM     11  O   UNL     1     -10.925   6.544 132.501  0.00  0.00    +0.000 OA
ENDROOT
BRANCH   1  16
ATOM     12  F   UNL     1      -4.485   6.017 132.768  0.00  0.00    +0.000 F 
ATOM     13  C   UNL     1      -5.720   5.899 132.263  0.00  0.00    +0.000 A 
ATOM     14  C   UNL     1      -6.229   6.909 131.456  0.00  0.00    +0.000 A 
ATOM     15  C   UNL     1      -7.516   6.790 130.932  0.00  0.00    +0.000 A 
ATOM     16  C   UNL     1      -8.289   5.652 131.211  0.00  0.00    +0.000 A 
ATOM     17  C   UNL     1      -7.752   4.641 132.028  0.00  0.00    +0.000 A 
ATOM     18  C   UNL     1      -6.470   4.768 132.556  0.00  0.00    +0.000 A 
ENDBRANCH   1  16
TORSDOF 1
ENDMDL
MODEL 8
REMARK VINA RESULT:      -6.9      9.166     10.089
REMARK  Name = Fluindione
REMARK  1 active torsions:
REMARK  status: ('A' for Active; 'I' for Inactive)
REMARK    1  A    between atoms: C_5  and  C_8
REMARK                            x       y       z     vdW  Elec       q    Type
REMARK                         _______ _______ _______ _____ _____    ______ ____
ROOT
ATOM      1  C   UNL     1      -7.747  -2.371 128.883  0.00  0.00    +0.000 C 
ATOM      2  C   UNL     1      -8.504  -3.318 127.964  0.00  0.00    +0.000 C 
ATOM      3  O   UNL     1      -9.369  -4.120 128.261  0.00  0.00    +0.000 OA
ATOM      4  C   UNL     1      -8.010  -3.130 126.600  0.00  0.00    +0.000 A 
ATOM      5  C   UNL     1      -8.431  -3.754 125.440  0.00  0.00    +0.000 A 
ATOM      6  C   UNL     1      -7.769  -3.425 124.254  0.00  0.00    +0.000 A 
ATOM      7  C   UNL     1      -6.715  -2.489 124.250  0.00  0.00    +0.000 A 
ATOM      8  C   UNL     1      -6.308  -1.866 125.433  0.00  0.00    +0.000 A 
ATOM      9  C   UNL     1      -6.975  -2.206 126.595  0.00  0.00    +0.000 A 
ATOM     10  C   UNL     1      -6.728  -1.728 127.954  0.00  0.00    +0.000 C 
ATOM     11  O   UNL     1      -5.831  -0.958 128.243  0.00  0.00    +0.000 OA
ENDROOT
BRANCH   1  16
ATOM     12  F   UNL     1      -5.375  -5.007 133.263  0.00  0.00    +0.000 F 
ATOM     13  C   UNL     1      -5.938  -4.379 132.222  0.00  0.00    +0.000 A 
ATOM     14  C   UNL     1      -5.610  -4.766 130.929  0.00  0.00    +0.000 A 
ATOM     15  C   UNL     1      -6.193  -4.111 129.844  0.00  0.00    +0.000 A 
ATOM     16  C   UNL     1      -7.112  -3.073 130.058  0.00  0.00    +0.000 A 
ATOM     17  C   UNL     1      -7.431  -2.699 131.375  0.00  0.00    +0.000 A 
ATOM     18  C   UNL     1      -6.841  -3.350 132.455  0.00  0.00    +0.000 A 
ENDBRANCH   1  16
TORSDOF 1
ENDMDL
MODEL 9
REMARK VINA RESULT:      -6.9      3.092      5.872
REMARK  Name = Fluindione
REMARK  1 active torsions:
REMARK  status: ('A' for Active; 'I' for Inactive)
REMARK    1  A    between atoms: C_5  and  C_8
REMARK                            x       y       z     vdW  Elec       q    Type
REMARK                         _______ _______ _______ _____ _____    ______ ____
ROOT
ATOM      1  C   UNL     1     -10.534   5.613 131.294  0.00  0.00    +0.000 C 
ATOM      2  C   UNL     1      -9.032   5.821 131.421  0.00  0.00    +0.000 C 
ATOM      3  O   UNL     1      -8.443   6.776 131.891  0.00  0.00    +0.000 OA
ATOM      4  C   UNL     1      -8.356   4.654 130.853  0.00  0.00    +0.000 A 
ATOM      5  C   UNL     1      -7.000   4.396 130.783  0.00  0.00    +0.000 A 
ATOM      6  C   UNL     1      -6.600   3.214 130.154  0.00  0.00    +0.000 A 
ATOM      7  C   UNL     1      -7.551   2.322 129.618  0.00  0.00    +0.000 A 
ATOM      8  C   UNL     1      -8.918   2.599 129.705  0.00  0.00    +0.000 A 
ATOM      9  C   UNL     1      -9.293   3.774 130.330  0.00  0.00    +0.000 A 
ATOM     10  C   UNL     1     -10.640   4.307 130.523  0.00  0.00    +0.000 C 
ATOM     11  O   UNL     1     -11.644   3.765 130.100  0.00  0.00    +0.000 OA
ENDROOT
BRANCH   1  16
ATOM     12  F   UNL     1     -13.153   9.897 128.736  0.00  0.00    +0.000 F 
ATOM     13  C   UNL     1     -12.529   8.880 129.344  0.00  0.00    +0.000 A 
ATOM     14  C   UNL     1     -13.033   8.385 130.541  0.00  0.00    +0.000 A 
ATOM     15  C   UNL     1     -12.382   7.327 131.177  0.00  0.00    +0.000 A 
ATOM     16  C   UNL     1     -11.231   6.762 130.607  0.00  0.00    +0.000 A 
ATOM     17  C   UNL     1     -10.741   7.278 129.395  0.00  0.00    +0.000 A 
ATOM     18  C   UNL     1     -11.388   8.339 128.767  0.00  0.00    +0.000 A 
ENDBRANCH   1  16
TORSDOF 1
ENDMDL
