MODEL 1
REMARK VINA RESULT:      -6.6      0.000      0.000
REMARK  Name = Flumazenil
REMARK  5 active torsions:
REMARK  status: ('A' for Active; 'I' for Inactive)
REMARK    1  A    between atoms: C_1  and  C_2
REMARK    2  A    between atoms: C_2  and  O_3
REMARK    3  A    between atoms: O_3  and  C_4
REMARK    4  A    between atoms: C_4  and  C_6
REMARK    5  A    between atoms: N_9  and  C_10
REMARK                            x       y       z     vdW  Elec       q    Type
REMARK                         _______ _______ _______ _____ _____    ______ ____
ROOT
ATOM      1  C   UNL     1      -7.553   2.586 126.980  0.00  0.00    +0.000 A 
ATOM      2  C   UNL     1      -8.229   1.780 126.073  0.00  0.00    +0.000 A 
ATOM      3  C   UNL     1      -9.140   2.083 124.933  0.00  0.00    +0.000 C 
ATOM      4  N   UNL     1      -8.410   1.811 123.708  0.00  0.00    +0.000 N 
ATOM      5  C   UNL     1      -8.511   2.728 122.583  0.00  0.00    +0.000 C 
ATOM      6  C   UNL     1      -7.723   0.618 123.538  0.00  0.00    +0.000 C 
ATOM      7  O   UNL     1      -6.729   0.476 122.837  0.00  0.00    +0.000 OA
ATOM      8  C   UNL     1      -8.289  -0.559 124.237  0.00  0.00    +0.000 A 
ATOM      9  C   UNL     1      -8.261  -0.663 125.637  0.00  0.00    +0.000 A 
ATOM     10  C   UNL     1      -8.722  -1.831 126.260  0.00  0.00    +0.000 A 
ATOM     11  C   UNL     1      -9.279  -2.849 125.469  0.00  0.00    +0.000 A 
ATOM     12  C   UNL     1      -9.342  -2.708 124.082  0.00  0.00    +0.000 A 
ATOM     13  F   UNL     1      -9.907  -3.674 123.344  0.00  0.00    +0.000 F 
ATOM     14  C   UNL     1      -8.835  -1.581 123.454  0.00  0.00    +0.000 A 
ATOM     15  N   UNL     1      -7.868   0.475 126.381  0.00  0.00    +0.000 N 
ATOM     16  C   UNL     1      -7.050   0.533 127.476  0.00  0.00    +0.000 A 
ATOM     17  N   UNL     1      -6.819   1.777 127.843  0.00  0.00    +0.000 NA
ENDROOT
BRANCH   1  18
ATOM     18  C   UNL     1      -7.548   4.057 127.051  0.00  0.00    +0.000 C 
ATOM     19  O   UNL     1      -8.475   4.716 127.523  0.00  0.00    +0.000 OA
BRANCH  18  20
ATOM     20  O   UNL     1      -6.411   4.625 126.527  0.00  0.00    +0.000 OA
BRANCH  20  22
ATOM     21  C   UNL     1      -5.513   4.230 124.314  0.00  0.00    +0.000 C 
ATOM     22  C   UNL     1      -6.515   5.019 125.144  0.00  0.00    +0.000 C 
ENDBRANCH  20  22
ENDBRANCH  18  20
ENDBRANCH   1  18
TORSDOF 3
ENDMDL
MODEL 2
REMARK VINA RESULT:      -6.6      2.256      3.009
REMARK  Name = Flumazenil
REMARK  5 active torsions:
REMARK  status: ('A' for Active; 'I' for Inactive)
REMARK    1  A    between atoms: C_1  and  C_2
REMARK    2  A    between atoms: C_2  and  O_3
REMARK    3  A    between atoms: O_3  and  C_4
REMARK    4  A    between atoms: C_4  and  C_6
REMARK    5  A    between atoms: N_9  and  C_10
REMARK                            x       y       z     vdW  Elec       q    Type
REMARK                         _______ _______ _______ _____ _____    ______ ____
ROOT
ATOM      1  C   UNL     1      -6.543   1.579 125.114  0.00  0.00    +0.000 A 
ATOM      2  C   UNL     1      -7.505   0.621 125.407  0.00  0.00    +0.000 A 
ATOM      3  C   UNL     1      -8.909   0.424 124.947  0.00  0.00    +0.000 C 
ATOM      4  N   UNL     1      -8.916  -0.717 124.050  0.00  0.00    +0.000 N 
ATOM      5  C   UNL     1      -9.698  -0.672 122.824  0.00  0.00    +0.000 C 
ATOM      6  C   UNL     1      -8.300  -1.908 124.406  0.00  0.00    +0.000 C 
ATOM      7  O   UNL     1      -7.822  -2.713 123.618  0.00  0.00    +0.000 OA
ATOM      8  C   UNL     1      -8.277  -2.215 125.856  0.00  0.00    +0.000 A 
ATOM      9  C   UNL     1      -7.500  -1.464 126.752  0.00  0.00    +0.000 A 
ATOM     10  C   UNL     1      -7.430  -1.840 128.100  0.00  0.00    +0.000 A 
ATOM     11  C   UNL     1      -8.209  -2.920 128.546  0.00  0.00    +0.000 A 
ATOM     12  C   UNL     1      -9.013  -3.626 127.650  0.00  0.00    +0.000 A 
ATOM     13  F   UNL     1      -9.775  -4.634 128.098  0.00  0.00    +0.000 F 
ATOM     14  C   UNL     1      -9.042  -3.297 126.304  0.00  0.00    +0.000 A 
ATOM     15  N   UNL     1      -6.897  -0.276 126.275  0.00  0.00    +0.000 N 
ATOM     16  C   UNL     1      -5.634   0.192 126.516  0.00  0.00    +0.000 A 
ATOM     17  N   UNL     1      -5.380   1.281 125.820  0.00  0.00    +0.000 NA
ENDROOT
BRANCH   1  18
ATOM     18  C   UNL     1      -6.659   2.725 124.196  0.00  0.00    +0.000 C 
ATOM     19  O   UNL     1      -6.711   3.895 124.576  0.00  0.00    +0.000 OA
BRANCH  18  20
ATOM     20  O   UNL     1      -6.716   2.360 122.871  0.00  0.00    +0.000 OA
BRANCH  20  22
ATOM     21  C   UNL     1      -5.577   3.339 120.972  0.00  0.00    +0.000 C 
ATOM     22  C   UNL     1      -6.743   3.463 121.943  0.00  0.00    +0.000 C 
ENDBRANCH  20  22
ENDBRANCH  18  20
ENDBRANCH   1  18
TORSDOF 3
ENDMDL
MODEL 3
REMARK VINA RESULT:      -6.4      3.447      5.972
REMARK  Name = Flumazenil
REMARK  5 active torsions:
REMARK  status: ('A' for Active; 'I' for Inactive)
REMARK    1  A    between atoms: C_1  and  C_2
REMARK    2  A    between atoms: C_2  and  O_3
REMARK    3  A    between atoms: O_3  and  C_4
REMARK    4  A    between atoms: C_4  and  C_6
REMARK    5  A    between atoms: N_9  and  C_10
REMARK                            x       y       z     vdW  Elec       q    Type
REMARK                         _______ _______ _______ _____ _____    ______ ____
ROOT
ATOM      1  C   UNL     1      -6.624  -1.694 125.004  0.00  0.00    +0.000 A 
ATOM      2  C   UNL     1      -6.703  -0.379 124.564  0.00  0.00    +0.000 A 
ATOM      3  C   UNL     1      -7.264   0.243 123.331  0.00  0.00    +0.000 C 
ATOM      4  N   UNL     1      -8.485   0.932 123.709  0.00  0.00    +0.000 N 
ATOM      5  C   UNL     1      -9.663   0.842 122.860  0.00  0.00    +0.000 C 
ATOM      6  C   UNL     1      -8.510   1.791 124.798  0.00  0.00    +0.000 C 
ATOM      7  O   UNL     1      -9.496   2.022 125.485  0.00  0.00    +0.000 OA
ATOM      8  C   UNL     1      -7.241   2.497 125.094  0.00  0.00    +0.000 A 
ATOM      9  C   UNL     1      -6.115   1.810 125.575  0.00  0.00    +0.000 A 
ATOM     10  C   UNL     1      -4.962   2.522 125.931  0.00  0.00    +0.000 A 
ATOM     11  C   UNL     1      -4.930   3.911 125.724  0.00  0.00    +0.000 A 
ATOM     12  C   UNL     1      -6.042   4.571 125.200  0.00  0.00    +0.000 A 
ATOM     13  F   UNL     1      -5.983   5.891 124.977  0.00  0.00    +0.000 F 
ATOM     14  C   UNL     1      -7.207   3.881 124.900  0.00  0.00    +0.000 A 
ATOM     15  N   UNL     1      -6.150   0.395 125.575  0.00  0.00    +0.000 N 
ATOM     16  C   UNL     1      -5.712  -0.465 126.545  0.00  0.00    +0.000 A 
ATOM     17  N   UNL     1      -6.003  -1.716 126.250  0.00  0.00    +0.000 NA
ENDROOT
BRANCH   1  18
ATOM     18  C   UNL     1      -7.120  -2.904 124.328  0.00  0.00    +0.000 C 
ATOM     19  O   UNL     1      -8.282  -3.035 123.940  0.00  0.00    +0.000 OA
BRANCH  18  20
ATOM     20  O   UNL     1      -6.163  -3.880 124.181  0.00  0.00    +0.000 OA
BRANCH  20  22
ATOM     21  C   UNL     1      -3.943  -4.576 123.510  0.00  0.00    +0.000 C 
ATOM     22  C   UNL     1      -4.980  -3.462 123.470  0.00  0.00    +0.000 C 
ENDBRANCH  20  22
ENDBRANCH  18  20
ENDBRANCH   1  18
TORSDOF 3
ENDMDL
MODEL 4
REMARK VINA RESULT:      -6.4      3.589      6.025
REMARK  Name = Flumazenil
REMARK  5 active torsions:
REMARK  status: ('A' for Active; 'I' for Inactive)
REMARK    1  A    between atoms: C_1  and  C_2
REMARK    2  A    between atoms: C_2  and  O_3
REMARK    3  A    between atoms: O_3  and  C_4
REMARK    4  A    between atoms: C_4  and  C_6
REMARK    5  A    between atoms: N_9  and  C_10
REMARK                            x       y       z     vdW  Elec       q    Type
REMARK                         _______ _______ _______ _____ _____    ______ ____
ROOT
ATOM      1  C   UNL     1      -6.964  -2.350 124.525  0.00  0.00    +0.000 A 
ATOM      2  C   UNL     1      -6.698  -1.897 125.811  0.00  0.00    +0.000 A 
ATOM      3  C   UNL     1      -5.728  -0.903 126.353  0.00  0.00    +0.000 C 
ATOM      4  N   UNL     1      -6.484   0.273 126.745  0.00  0.00    +0.000 N 
ATOM      5  C   UNL     1      -5.971   1.600 126.443  0.00  0.00    +0.000 C 
ATOM      6  C   UNL     1      -7.623   0.159 127.528  0.00  0.00    +0.000 C 
ATOM      7  O   UNL     1      -8.567   0.939 127.510  0.00  0.00    +0.000 OA
ATOM      8  C   UNL     1      -7.645  -0.980 128.477  0.00  0.00    +0.000 A 
ATOM      9  C   UNL     1      -7.738  -2.307 128.027  0.00  0.00    +0.000 A 
ATOM     10  C   UNL     1      -7.848  -3.352 128.954  0.00  0.00    +0.000 A 
ATOM     11  C   UNL     1      -7.783  -3.055 130.325  0.00  0.00    +0.000 A 
ATOM     12  C   UNL     1      -7.643  -1.735 130.753  0.00  0.00    +0.000 A 
ATOM     13  F   UNL     1      -7.549  -1.471 132.064  0.00  0.00    +0.000 F 
ATOM     14  C   UNL     1      -7.592  -0.689 129.843  0.00  0.00    +0.000 A 
ATOM     15  N   UNL     1      -7.602  -2.549 126.640  0.00  0.00    +0.000 N 
ATOM     16  C   UNL     1      -8.328  -3.399 125.850  0.00  0.00    +0.000 A 
ATOM     17  N   UNL     1      -7.994  -3.286 124.581  0.00  0.00    +0.000 NA
ENDROOT
BRANCH   1  18
ATOM     18  C   UNL     1      -6.323  -1.929 123.268  0.00  0.00    +0.000 C 
ATOM     19  O   UNL     1      -6.486  -0.818 122.763  0.00  0.00    +0.000 OA
BRANCH  18  20
ATOM     20  O   UNL     1      -5.531  -2.902 122.706  0.00  0.00    +0.000 OA
BRANCH  20  22
ATOM     21  C   UNL     1      -4.319  -4.839 123.508  0.00  0.00    +0.000 C 
ATOM     22  C   UNL     1      -4.418  -3.320 123.522  0.00  0.00    +0.000 C 
ENDBRANCH  20  22
ENDBRANCH  18  20
ENDBRANCH   1  18
TORSDOF 3
ENDMDL
MODEL 5
REMARK VINA RESULT:      -6.2      2.194      3.884
REMARK  Name = Flumazenil
REMARK  5 active torsions:
REMARK  status: ('A' for Active; 'I' for Inactive)
REMARK    1  A    between atoms: C_1  and  C_2
REMARK    2  A    between atoms: C_2  and  O_3
REMARK    3  A    between atoms: O_3  and  C_4
REMARK    4  A    between atoms: C_4  and  C_6
REMARK    5  A    between atoms: N_9  and  C_10
REMARK                            x       y       z     vdW  Elec       q    Type
REMARK                         _______ _______ _______ _____ _____    ______ ____
ROOT
ATOM      1  C   UNL     1      -7.494   1.915 123.387  0.00  0.00    +0.000 A 
ATOM      2  C   UNL     1      -7.234   0.913 124.313  0.00  0.00    +0.000 A 
ATOM      3  C   UNL     1      -6.060   0.620 125.182  0.00  0.00    +0.000 C 
ATOM      4  N   UNL     1      -6.436   0.948 126.546  0.00  0.00    +0.000 N 
ATOM      5  C   UNL     1      -5.495   1.644 127.411  0.00  0.00    +0.000 C 
ATOM      6  C   UNL     1      -7.627   0.488 127.087  0.00  0.00    +0.000 C 
ATOM      7  O   UNL     1      -8.263   1.057 127.965  0.00  0.00    +0.000 OA
ATOM      8  C   UNL     1      -8.112  -0.813 126.570  0.00  0.00    +0.000 A 
ATOM      9  C   UNL     1      -8.578  -0.950 125.253  0.00  0.00    +0.000 A 
ATOM     10  C   UNL     1      -9.115  -2.172 124.826  0.00  0.00    +0.000 A 
ATOM     11  C   UNL     1      -9.103  -3.265 125.707  0.00  0.00    +0.000 A 
ATOM     12  C   UNL     1      -8.593  -3.123 126.998  0.00  0.00    +0.000 A 
ATOM     13  F   UNL     1      -8.559  -4.184 127.816  0.00  0.00    +0.000 F 
ATOM     14  C   UNL     1      -8.113  -1.902 127.447  0.00  0.00    +0.000 A 
ATOM     15  N   UNL     1      -8.381   0.132 124.362  0.00  0.00    +0.000 N 
ATOM     16  C   UNL     1      -9.254   0.644 123.441  0.00  0.00    +0.000 A 
ATOM     17  N   UNL     1      -8.770   1.722 122.861  0.00  0.00    +0.000 NA
ENDROOT
BRANCH   1  18
ATOM     18  C   UNL     1      -6.623   3.037 123.002  0.00  0.00    +0.000 C 
ATOM     19  O   UNL     1      -6.408   4.008 123.729  0.00  0.00    +0.000 OA
BRANCH  18  20
ATOM     20  O   UNL     1      -6.080   2.903 121.746  0.00  0.00    +0.000 OA
BRANCH  20  22
ATOM     21  C   UNL     1      -6.910   4.147 119.842  0.00  0.00    +0.000 C 
ATOM     22  C   UNL     1      -5.939   4.137 121.014  0.00  0.00    +0.000 C 
ENDBRANCH  20  22
ENDBRANCH  18  20
ENDBRANCH   1  18
TORSDOF 3
ENDMDL
MODEL 6
REMARK VINA RESULT:      -6.2      3.290      5.672
REMARK  Name = Flumazenil
REMARK  5 active torsions:
REMARK  status: ('A' for Active; 'I' for Inactive)
REMARK    1  A    between atoms: C_1  and  C_2
REMARK    2  A    between atoms: C_2  and  O_3
REMARK    3  A    between atoms: O_3  and  C_4
REMARK    4  A    between atoms: C_4  and  C_6
REMARK    5  A    between atoms: N_9  and  C_10
REMARK                            x       y       z     vdW  Elec       q    Type
REMARK                         _______ _______ _______ _____ _____    ______ ____
ROOT
ATOM      1  C   UNL     1      -8.824   1.231 125.359  0.00  0.00    +0.000 A 
ATOM      2  C   UNL     1      -7.497   1.609 125.197  0.00  0.00    +0.000 A 
ATOM      3  C   UNL     1      -6.600   1.666 124.008  0.00  0.00    +0.000 C 
ATOM      4  N   UNL     1      -6.408   3.067 123.676  0.00  0.00    +0.000 N 
ATOM      5  C   UNL     1      -6.437   3.495 122.286  0.00  0.00    +0.000 C 
ATOM      6  C   UNL     1      -6.060   3.989 124.652  0.00  0.00    +0.000 C 
ATOM      7  O   UNL     1      -6.342   5.180 124.624  0.00  0.00    +0.000 OA
ATOM      8  C   UNL     1      -5.247   3.465 125.776  0.00  0.00    +0.000 A 
ATOM      9  C   UNL     1      -5.786   2.572 126.715  0.00  0.00    +0.000 A 
ATOM     10  C   UNL     1      -5.018   2.169 127.816  0.00  0.00    +0.000 A 
ATOM     11  C   UNL     1      -3.688   2.609 127.915  0.00  0.00    +0.000 A 
ATOM     12  C   UNL     1      -3.155   3.459 126.946  0.00  0.00    +0.000 A 
ATOM     13  F   UNL     1      -1.873   3.844 127.037  0.00  0.00    +0.000 F 
ATOM     14  C   UNL     1      -3.926   3.909 125.885  0.00  0.00    +0.000 A 
ATOM     15  N   UNL     1      -7.061   2.018 126.450  0.00  0.00    +0.000 N 
ATOM     16  C   UNL     1      -8.100   1.823 127.320  0.00  0.00    +0.000 A 
ATOM     17  N   UNL     1      -9.175   1.382 126.699  0.00  0.00    +0.000 NA
ENDROOT
BRANCH   1  18
ATOM     18  C   UNL     1      -9.765   0.770 124.325  0.00  0.00    +0.000 C 
ATOM     19  O   UNL     1     -10.858   1.298 124.119  0.00  0.00    +0.000 OA
BRANCH  18  20
ATOM     20  O   UNL     1      -9.308  -0.317 123.617  0.00  0.00    +0.000 OA
BRANCH  20  22
ATOM     21  C   UNL     1      -9.178  -2.734 123.590  0.00  0.00    +0.000 C 
ATOM     22  C   UNL     1      -8.996  -1.472 124.421  0.00  0.00    +0.000 C 
ENDBRANCH  20  22
ENDBRANCH  18  20
ENDBRANCH   1  18
TORSDOF 3
ENDMDL
MODEL 7
REMARK VINA RESULT:      -6.2      2.033      3.287
REMARK  Name = Flumazenil
REMARK  5 active torsions:
REMARK  status: ('A' for Active; 'I' for Inactive)
REMARK    1  A    between atoms: C_1  and  C_2
REMARK    2  A    between atoms: C_2  and  O_3
REMARK    3  A    between atoms: O_3  and  C_4
REMARK    4  A    between atoms: C_4  and  C_6
REMARK    5  A    between atoms: N_9  and  C_10
REMARK                            x       y       z     vdW  Elec       q    Type
REMARK                         _______ _______ _______ _____ _____    ______ ____
ROOT
ATOM      1  C   UNL     1      -6.060   3.220 124.577  0.00  0.00    +0.000 A 
ATOM      2  C   UNL     1      -6.415   1.956 125.031  0.00  0.00    +0.000 A 
ATOM      3  C   UNL     1      -6.350   1.308 126.371  0.00  0.00    +0.000 C 
ATOM      4  N   UNL     1      -7.710   1.206 126.870  0.00  0.00    +0.000 N 
ATOM      5  C   UNL     1      -7.997   1.510 128.264  0.00  0.00    +0.000 C 
ATOM      6  C   UNL     1      -8.723   0.689 126.077  0.00  0.00    +0.000 C 
ATOM      7  O   UNL     1      -9.906   0.990 126.167  0.00  0.00    +0.000 OA
ATOM      8  C   UNL     1      -8.311  -0.334 125.087  0.00  0.00    +0.000 A 
ATOM      9  C   UNL     1      -7.518  -0.002 123.977  0.00  0.00    +0.000 A 
ATOM     10  C   UNL     1      -7.224  -0.975 123.013  0.00  0.00    +0.000 A 
ATOM     11  C   UNL     1      -7.666  -2.292 123.219  0.00  0.00    +0.000 A 
ATOM     12  C   UNL     1      -8.414  -2.614 124.352  0.00  0.00    +0.000 A 
ATOM     13  F   UNL     1      -8.801  -3.883 124.550  0.00  0.00    +0.000 F 
ATOM     14  C   UNL     1      -8.758  -1.644 125.281  0.00  0.00    +0.000 A 
ATOM     15  N   UNL     1      -6.945   1.291 123.933  0.00  0.00    +0.000 N 
ATOM     16  C   UNL     1      -6.842   2.139 122.863  0.00  0.00    +0.000 A 
ATOM     17  N   UNL     1      -6.345   3.306 123.216  0.00  0.00    +0.000 NA
ENDROOT
BRANCH   1  18
ATOM     18  C   UNL     1      -5.502   4.336 125.358  0.00  0.00    +0.000 C 
ATOM     19  O   UNL     1      -6.150   5.335 125.670  0.00  0.00    +0.000 OA
BRANCH  18  20
ATOM     20  O   UNL     1      -4.181   4.160 125.696  0.00  0.00    +0.000 OA
BRANCH  20  22
ATOM     21  C   UNL     1      -2.441   3.930 127.364  0.00  0.00    +0.000 C 
ATOM     22  C   UNL     1      -3.894   4.300 127.102  0.00  0.00    +0.000 C 
ENDBRANCH  20  22
ENDBRANCH  18  20
ENDBRANCH   1  18
TORSDOF 3
ENDMDL
MODEL 8
REMARK VINA RESULT:      -6.2      2.386      3.745
REMARK  Name = Flumazenil
REMARK  5 active torsions:
REMARK  status: ('A' for Active; 'I' for Inactive)
REMARK    1  A    between atoms: C_1  and  C_2
REMARK    2  A    between atoms: C_2  and  O_3
REMARK    3  A    between atoms: O_3  and  C_4
REMARK    4  A    between atoms: C_4  and  C_6
REMARK    5  A    between atoms: N_9  and  C_10
REMARK                            x       y       z     vdW  Elec       q    Type
REMARK                         _______ _______ _______ _____ _____    ______ ____
ROOT
ATOM      1  C   UNL     1      -7.849   3.364 125.322  0.00  0.00    +0.000 A 
ATOM      2  C   UNL     1      -6.941   2.314 125.288  0.00  0.00    +0.000 A 
ATOM      3  C   UNL     1      -5.562   2.151 125.828  0.00  0.00    +0.000 C 
ATOM      4  N   UNL     1      -5.644   1.245 126.961  0.00  0.00    +0.000 N 
ATOM      5  C   UNL     1      -4.887   1.527 128.172  0.00  0.00    +0.000 C 
ATOM      6  C   UNL     1      -6.323   0.041 126.863  0.00  0.00    +0.000 C 
ATOM      7  O   UNL     1      -6.867  -0.536 127.796  0.00  0.00    +0.000 OA
ATOM      8  C   UNL     1      -6.334  -0.588 125.521  0.00  0.00    +0.000 A 
ATOM      9  C   UNL     1      -7.045  -0.020 124.451  0.00  0.00    +0.000 A 
ATOM     10  C   UNL     1      -7.108  -0.690 123.222  0.00  0.00    +0.000 A 
ATOM     11  C   UNL     1      -6.388  -1.884 123.060  0.00  0.00    +0.000 A 
ATOM     12  C   UNL     1      -5.648  -2.409 124.119  0.00  0.00    +0.000 A 
ATOM     13  F   UNL     1      -4.939  -3.533 123.939  0.00  0.00    +0.000 F 
ATOM     14  C   UNL     1      -5.627  -1.783 125.357  0.00  0.00    +0.000 A 
ATOM     15  N   UNL     1      -7.584   1.276 124.625  0.00  0.00    +0.000 N 
ATOM     16  C   UNL     1      -8.810   1.745 124.240  0.00  0.00    +0.000 A 
ATOM     17  N   UNL     1      -9.013   2.976 124.662  0.00  0.00    +0.000 NA
ENDROOT
BRANCH   1  18
ATOM     18  C   UNL     1      -7.682   4.681 125.960  0.00  0.00    +0.000 C 
ATOM     19  O   UNL     1      -7.009   5.590 125.473  0.00  0.00    +0.000 OA
BRANCH  18  20
ATOM     20  O   UNL     1      -8.343   4.794 127.160  0.00  0.00    +0.000 OA
BRANCH  20  22
ATOM     21  C   UNL     1      -8.636   4.002 129.429  0.00  0.00    +0.000 C 
ATOM     22  C   UNL     1      -7.654   4.213 128.285  0.00  0.00    +0.000 C 
ENDBRANCH  20  22
ENDBRANCH  18  20
ENDBRANCH   1  18
TORSDOF 3
ENDMDL
MODEL 9
REMARK VINA RESULT:      -5.8      2.732      3.498
REMARK  Name = Flumazenil
REMARK  5 active torsions:
REMARK  status: ('A' for Active; 'I' for Inactive)
REMARK    1  A    between atoms: C_1  and  C_2
REMARK    2  A    between atoms: C_2  and  O_3
REMARK    3  A    between atoms: O_3  and  C_4
REMARK    4  A    between atoms: C_4  and  C_6
REMARK    5  A    between atoms: N_9  and  C_10
REMARK                            x       y       z     vdW  Elec       q    Type
REMARK                         _______ _______ _______ _____ _____    ______ ____
ROOT
ATOM      1  C   UNL     1      -5.216   1.744 128.186  0.00  0.00    +0.000 A 
ATOM      2  C   UNL     1      -6.225   0.865 127.817  0.00  0.00    +0.000 A 
ATOM      3  C   UNL     1      -7.277   0.917 126.763  0.00  0.00    +0.000 C 
ATOM      4  N   UNL     1      -6.902  -0.030 125.727  0.00  0.00    +0.000 N 
ATOM      5  C   UNL     1      -7.049   0.330 124.326  0.00  0.00    +0.000 C 
ATOM      6  C   UNL     1      -6.534  -1.328 126.049  0.00  0.00    +0.000 C 
ATOM      7  O   UNL     1      -5.768  -2.022 125.393  0.00  0.00    +0.000 OA
ATOM      8  C   UNL     1      -7.170  -1.900 127.259  0.00  0.00    +0.000 A 
ATOM      9  C   UNL     1      -6.863  -1.421 128.543  0.00  0.00    +0.000 A 
ATOM     10  C   UNL     1      -7.413  -2.046 129.671  0.00  0.00    +0.000 A 
ATOM     11  C   UNL     1      -8.329  -3.095 129.488  0.00  0.00    +0.000 A 
ATOM     12  C   UNL     1      -8.658  -3.526 128.203  0.00  0.00    +0.000 A 
ATOM     13  F   UNL     1      -9.559  -4.506 128.045  0.00  0.00    +0.000 F 
ATOM     14  C   UNL     1      -8.074  -2.952 127.084  0.00  0.00    +0.000 A 
ATOM     15  N   UNL     1      -6.089  -0.242 128.646  0.00  0.00    +0.000 N 
ATOM     16  C   UNL     1      -5.060   0.027 129.507  0.00  0.00    +0.000 A 
ATOM     17  N   UNL     1      -4.499   1.190 129.244  0.00  0.00    +0.000 NA
ENDROOT
BRANCH   1  18
ATOM     18  C   UNL     1      -4.887   3.046 127.582  0.00  0.00    +0.000 C 
ATOM     19  O   UNL     1      -5.218   4.125 128.074  0.00  0.00    +0.000 OA
BRANCH  18  20
ATOM     20  O   UNL     1      -4.183   2.940 126.406  0.00  0.00    +0.000 OA
BRANCH  20  22
ATOM     21  C   UNL     1      -1.805   3.010 126.856  0.00  0.00    +0.000 C 
ATOM     22  C   UNL     1      -3.010   3.775 126.327  0.00  0.00    +0.000 C 
ENDBRANCH  20  22
ENDBRANCH  18  20
ENDBRANCH   1  18
TORSDOF 3
ENDMDL
