MODEL 1
REMARK VINA RESULT:      -8.4      0.000      0.000
REMARK  Name = Flumethasone
REMARK  8 active torsions:
REMARK  status: ('A' for Active; 'I' for Inactive)
REMARK    1  A    between atoms: C_4  and  C_5
REMARK    2  A    between atoms: C_6  and  O_7
REMARK    3  A    between atoms: C_6  and  C_8
REMARK    4  A    between atoms: C_8  and  C_10
REMARK    5  A    between atoms: C_10  and  O_11
REMARK    6  A    between atoms: C_12  and  C_13
REMARK    7  A    between atoms: C_15  and  O_16
REMARK    8  A    between atoms: C_30  and  C_31
REMARK                            x       y       z     vdW  Elec       q    Type
REMARK                         _______ _______ _______ _____ _____    ______ ____
ROOT
ATOM      1  C   UNL     1      -6.455  -1.405 125.749  0.00  0.00    +0.000 C 
ATOM      2  C   UNL     1      -5.305  -0.530 125.910  0.00  0.00    +0.000 C 
ATOM      3  C   UNL     1      -6.515   0.345 125.993  0.00  0.00    +0.000 C 
ATOM      4  C   UNL     1      -5.692   1.963 125.745  0.00  0.00    +0.000 C 
ATOM      5  C   UNL     1      -8.230  -0.701 125.502  0.00  0.00    +0.000 C 
ATOM      6  C   UNL     1      -7.301  -0.202 124.693  0.00  0.00    +0.000 C 
ATOM      7  C   UNL     1      -6.935  -0.213 123.275  0.00  0.00    +0.000 C 
ATOM      8  C   UNL     1      -8.239   1.277 125.407  0.00  0.00    +0.000 C 
ATOM      9  C   UNL     1      -8.719   0.894 127.113  0.00  0.00    +0.000 C 
ATOM     10  C   UNL     1      -7.845  -0.339 128.128  0.00  0.00    +0.000 C 
ATOM     11  F   UNL     1      -6.448  -0.039 128.066  0.00  0.00    +0.000 F 
ATOM     12  C   UNL     1      -7.276  -1.714 127.371  0.00  0.00    +0.000 C 
ATOM     13  C   UNL     1      -6.129  -2.280 128.272  0.00  0.00    +0.000 C 
ATOM     14  C   UNL     1      -6.566  -2.287 129.709  0.00  0.00    +0.000 C 
ATOM     15  F   UNL     1      -7.781  -2.893 129.778  0.00  0.00    +0.000 F 
ATOM     16  C   UNL     1      -6.579  -0.859 130.162  0.00  0.00    +0.000 C 
ATOM     17  C   UNL     1      -5.922  -0.326 131.214  0.00  0.00    +0.000 C 
ATOM     18  C   UNL     1      -6.514  -1.111 132.236  0.00  0.00    +0.000 C 
ATOM     19  O   UNL     1      -5.813  -1.863 132.874  0.00  0.00    +0.000 OA
ATOM     20  C   UNL     1      -7.956  -0.564 132.300  0.00  0.00    +0.000 C 
ATOM     21  C   UNL     1      -8.534  -0.031 131.116  0.00  0.00    +0.000 C 
ATOM     22  C   UNL     1      -7.663   0.078 129.698  0.00  0.00    +0.000 C 
ATOM     23  C   UNL     1      -6.636   1.455 129.526  0.00  0.00    +0.000 C 
ENDROOT
BRANCH   5  24
ATOM     24  O   UNL     1      -9.415  -0.250 124.554  0.00  0.00    +0.000 OA
ATOM     25  H   UNL     1      -9.283  -0.577 123.631  0.00  0.00    +0.000 HD
ENDBRANCH   5  24
BRANCH   5  26
ATOM     26  C   UNL     1      -9.088  -2.254 125.064  0.00  0.00    +0.000 C 
ATOM     27  O   UNL     1     -10.032  -2.582 125.847  0.00  0.00    +0.000 OA
BRANCH  26  28
ATOM     28  C   UNL     1      -8.996  -3.262 123.873  0.00  0.00    +0.000 C 
BRANCH  28  29
ATOM     29  O   UNL     1     -10.262  -3.638 123.223  0.00  0.00    +0.000 OA
ATOM     30  H   UNL     1     -10.863  -4.112 123.832  0.00  0.00    +0.000 HD
ENDBRANCH  28  29
ENDBRANCH  26  28
ENDBRANCH   5  26
BRANCH   9  31
ATOM     31  O   UNL     1      -8.755   2.167 127.740  0.00  0.00    +0.000 OA
ATOM     32  H   UNL     1      -9.266   2.730 127.128  0.00  0.00    +0.000 HD
ENDBRANCH   9  31
TORSDOF 5
ENDMDL
MODEL 2
REMARK VINA RESULT:      -8.3      5.078      8.138
REMARK  Name = Flumethasone
REMARK  8 active torsions:
REMARK  status: ('A' for Active; 'I' for Inactive)
REMARK    1  A    between atoms: C_4  and  C_5
REMARK    2  A    between atoms: C_6  and  O_7
REMARK    3  A    between atoms: C_6  and  C_8
REMARK    4  A    between atoms: C_8  and  C_10
REMARK    5  A    between atoms: C_10  and  O_11
REMARK    6  A    between atoms: C_12  and  C_13
REMARK    7  A    between atoms: C_15  and  O_16
REMARK    8  A    between atoms: C_30  and  C_31
REMARK                            x       y       z     vdW  Elec       q    Type
REMARK                         _______ _______ _______ _____ _____    ______ ____
ROOT
ATOM      1  C   UNL     1      -7.876   4.342 132.060  0.00  0.00    +0.000 C 
ATOM      2  C   UNL     1      -7.181   3.135 132.477  0.00  0.00    +0.000 C 
ATOM      3  C   UNL     1      -7.338   3.039 130.994  0.00  0.00    +0.000 C 
ATOM      4  C   UNL     1      -6.989   1.251 130.803  0.00  0.00    +0.000 C 
ATOM      5  C   UNL     1      -8.559   4.544 130.271  0.00  0.00    +0.000 C 
ATOM      6  C   UNL     1      -8.904   3.420 130.889  0.00  0.00    +0.000 C 
ATOM      7  C   UNL     1     -10.096   2.773 131.441  0.00  0.00    +0.000 C 
ATOM      8  C   UNL     1      -8.274   2.918 129.178  0.00  0.00    +0.000 C 
ATOM      9  C   UNL     1      -6.928   4.035 128.701  0.00  0.00    +0.000 C 
ATOM     10  C   UNL     1      -5.934   4.954 129.919  0.00  0.00    +0.000 C 
ATOM     11  F   UNL     1      -5.473   4.018 130.896  0.00  0.00    +0.000 F 
ATOM     12  C   UNL     1      -6.707   5.536 131.280  0.00  0.00    +0.000 C 
ATOM     13  C   UNL     1      -5.602   5.746 132.367  0.00  0.00    +0.000 C 
ATOM     14  C   UNL     1      -4.420   6.448 131.764  0.00  0.00    +0.000 C 
ATOM     15  F   UNL     1      -4.873   7.547 131.103  0.00  0.00    +0.000 F 
ATOM     16  C   UNL     1      -3.734   5.453 130.877  0.00  0.00    +0.000 C 
ATOM     17  C   UNL     1      -2.443   5.062 130.928  0.00  0.00    +0.000 C 
ATOM     18  C   UNL     1      -1.843   6.327 130.705  0.00  0.00    +0.000 C 
ATOM     19  O   UNL     1      -1.164   6.813 131.581  0.00  0.00    +0.000 OA
ATOM     20  C   UNL     1      -2.158   6.601 129.219  0.00  0.00    +0.000 C 
ATOM     21  C   UNL     1      -3.342   6.048 128.661  0.00  0.00    +0.000 C 
ATOM     22  C   UNL     1      -4.344   5.061 129.558  0.00  0.00    +0.000 C 
ATOM     23  C   UNL     1      -3.902   3.395 129.654  0.00  0.00    +0.000 C 
ENDROOT
BRANCH   5  24
ATOM     24  O   UNL     1      -9.741   4.430 129.224  0.00  0.00    +0.000 OA
ATOM     25  H   UNL     1      -9.539   4.928 128.395  0.00  0.00    +0.000 HD
ENDBRANCH   5  24
BRANCH   5  26
ATOM     26  C   UNL     1      -9.542   6.065 130.516  0.00  0.00    +0.000 C 
ATOM     27  O   UNL     1      -9.242   7.026 129.742  0.00  0.00    +0.000 OA
BRANCH  26  28
ATOM     28  C   UNL     1     -10.758   6.453 131.417  0.00  0.00    +0.000 C 
BRANCH  28  29
ATOM     29  O   UNL     1     -10.530   6.462 132.871  0.00  0.00    +0.000 OA
ATOM     30  H   UNL     1      -9.982   5.708 133.164  0.00  0.00    +0.000 HD
ENDBRANCH  28  29
ENDBRANCH  26  28
ENDBRANCH   5  26
BRANCH   9  31
ATOM     31  O   UNL     1      -6.119   3.236 127.852  0.00  0.00    +0.000 OA
ATOM     32  H   UNL     1      -6.348   3.523 126.948  0.00  0.00    +0.000 HD
ENDBRANCH   9  31
TORSDOF 5
ENDMDL
MODEL 3
REMARK VINA RESULT:      -7.8      2.348      4.518
REMARK  Name = Flumethasone
REMARK  8 active torsions:
REMARK  status: ('A' for Active; 'I' for Inactive)
REMARK    1  A    between atoms: C_4  and  C_5
REMARK    2  A    between atoms: C_6  and  O_7
REMARK    3  A    between atoms: C_6  and  C_8
REMARK    4  A    between atoms: C_8  and  C_10
REMARK    5  A    between atoms: C_10  and  O_11
REMARK    6  A    between atoms: C_12  and  C_13
REMARK    7  A    between atoms: C_15  and  O_16
REMARK    8  A    between atoms: C_30  and  C_31
REMARK                            x       y       z     vdW  Elec       q    Type
REMARK                         _______ _______ _______ _____ _____    ______ ____
ROOT
ATOM      1  C   UNL     1      -8.724   1.719 125.661  0.00  0.00    +0.000 C 
ATOM      2  C   UNL     1      -9.769   0.752 125.370  0.00  0.00    +0.000 C 
ATOM      3  C   UNL     1      -8.564   0.309 124.605  0.00  0.00    +0.000 C 
ATOM      4  C   UNL     1      -9.388  -0.854 123.456  0.00  0.00    +0.000 C 
ATOM      5  C   UNL     1      -7.065   1.732 124.683  0.00  0.00    +0.000 C 
ATOM      6  C   UNL     1      -8.165   1.725 123.938  0.00  0.00    +0.000 C 
ATOM      7  C   UNL     1      -8.897   2.602 123.022  0.00  0.00    +0.000 C 
ATOM      8  C   UNL     1      -7.039   0.374 123.242  0.00  0.00    +0.000 C 
ATOM      9  C   UNL     1      -6.129  -0.389 124.612  0.00  0.00    +0.000 C 
ATOM     10  C   UNL     1      -6.725  -0.352 126.332  0.00  0.00    +0.000 C 
ATOM     11  F   UNL     1      -8.081  -0.806 126.329  0.00  0.00    +0.000 F 
ATOM     12  C   UNL     1      -7.505   1.026 126.860  0.00  0.00    +0.000 C 
ATOM     13  C   UNL     1      -8.381   0.605 128.085  0.00  0.00    +0.000 C 
ATOM     14  C   UNL     1      -7.576  -0.258 129.015  0.00  0.00    +0.000 C 
ATOM     15  F   UNL     1      -6.400   0.376 129.266  0.00  0.00    +0.000 F 
ATOM     16  C   UNL     1      -7.412  -1.584 128.336  0.00  0.00    +0.000 C 
ATOM     17  C   UNL     1      -7.752  -2.799 128.817  0.00  0.00    +0.000 C 
ATOM     18  C   UNL     1      -6.925  -2.795 129.969  0.00  0.00    +0.000 C 
ATOM     19  O   UNL     1      -7.446  -2.819 131.061  0.00  0.00    +0.000 OA
ATOM     20  C   UNL     1      -5.507  -2.942 129.377  0.00  0.00    +0.000 C 
ATOM     21  C   UNL     1      -5.256  -2.423 128.078  0.00  0.00    +0.000 C 
ATOM     22  C   UNL     1      -6.472  -1.732 127.169  0.00  0.00    +0.000 C 
ATOM     23  C   UNL     1      -7.478  -2.814 126.276  0.00  0.00    +0.000 C 
ENDROOT
BRANCH   5  24
ATOM     24  O   UNL     1      -6.167   2.276 123.497  0.00  0.00    +0.000 OA
ATOM     25  H   UNL     1      -5.431   1.650 123.287  0.00  0.00    +0.000 HD
ENDBRANCH   5  24
BRANCH   5  26
ATOM     26  C   UNL     1      -6.388   3.313 125.303  0.00  0.00    +0.000 C 
ATOM     27  O   UNL     1      -5.245   3.227 125.849  0.00  0.00    +0.000 OA
BRANCH  26  28
ATOM     28  C   UNL     1      -6.850   4.804 125.243  0.00  0.00    +0.000 C 
BRANCH  28  29
ATOM     29  O   UNL     1      -8.300   5.051 125.283  0.00  0.00    +0.000 OA
ATOM     30  H   UNL     1      -8.515   6.004 125.229  0.00  0.00    +0.000 HD
ENDBRANCH  28  29
ENDBRANCH  26  28
ENDBRANCH   5  26
BRANCH   9  31
ATOM     31  O   UNL     1      -5.899  -1.714 124.159  0.00  0.00    +0.000 OA
ATOM     32  H   UNL     1      -5.039  -1.673 123.698  0.00  0.00    +0.000 HD
ENDBRANCH   9  31
TORSDOF 5
ENDMDL
MODEL 4
REMARK VINA RESULT:      -7.8      2.127      3.189
REMARK  Name = Flumethasone
REMARK  8 active torsions:
REMARK  status: ('A' for Active; 'I' for Inactive)
REMARK    1  A    between atoms: C_4  and  C_5
REMARK    2  A    between atoms: C_6  and  O_7
REMARK    3  A    between atoms: C_6  and  C_8
REMARK    4  A    between atoms: C_8  and  C_10
REMARK    5  A    between atoms: C_10  and  O_11
REMARK    6  A    between atoms: C_12  and  C_13
REMARK    7  A    between atoms: C_15  and  O_16
REMARK    8  A    between atoms: C_30  and  C_31
REMARK                            x       y       z     vdW  Elec       q    Type
REMARK                         _______ _______ _______ _____ _____    ______ ____
ROOT
ATOM      1  C   UNL     1      -8.783  -2.275 125.632  0.00  0.00    +0.000 C 
ATOM      2  C   UNL     1      -8.053  -3.475 125.260  0.00  0.00    +0.000 C 
ATOM      3  C   UNL     1      -7.097  -2.336 125.104  0.00  0.00    +0.000 C 
ATOM      4  C   UNL     1      -5.833  -3.185 124.086  0.00  0.00    +0.000 C 
ATOM      5  C   UNL     1      -8.058  -0.518 125.323  0.00  0.00    +0.000 C 
ATOM      6  C   UNL     1      -8.049  -1.331 124.272  0.00  0.00    +0.000 C 
ATOM      7  C   UNL     1      -8.693  -1.470 122.964  0.00  0.00    +0.000 C 
ATOM      8  C   UNL     1      -6.314  -0.587 124.388  0.00  0.00    +0.000 C 
ATOM      9  C   UNL     1      -5.891  -0.362 126.137  0.00  0.00    +0.000 C 
ATOM     10  C   UNL     1      -6.673  -1.325 127.469  0.00  0.00    +0.000 C 
ATOM     11  F   UNL     1      -6.582  -2.708 127.115  0.00  0.00    +0.000 F 
ATOM     12  C   UNL     1      -8.291  -1.704 127.315  0.00  0.00    +0.000 C 
ATOM     13  C   UNL     1      -8.550  -2.949 128.226  0.00  0.00    +0.000 C 
ATOM     14  C   UNL     1      -7.907  -2.743 129.567  0.00  0.00    +0.000 C 
ATOM     15  F   UNL     1      -8.291  -1.526 130.037  0.00  0.00    +0.000 F 
ATOM     16  C   UNL     1      -6.427  -2.868 129.359  0.00  0.00    +0.000 C 
ATOM     17  C   UNL     1      -5.578  -3.705 129.991  0.00  0.00    +0.000 C 
ATOM     18  C   UNL     1      -5.793  -3.244 131.315  0.00  0.00    +0.000 C 
ATOM     19  O   UNL     1      -6.279  -4.000 132.124  0.00  0.00    +0.000 OA
ATOM     20  C   UNL     1      -5.115  -1.857 131.311  0.00  0.00    +0.000 C 
ATOM     21  C   UNL     1      -5.067  -1.127 130.092  0.00  0.00    +0.000 C 
ATOM     22  C   UNL     1      -5.659  -1.770 128.672  0.00  0.00    +0.000 C 
ATOM     23  C   UNL     1      -4.603  -2.821 127.801  0.00  0.00    +0.000 C 
ENDROOT
BRANCH   5  24
ATOM     24  O   UNL     1      -7.919   0.779 124.425  0.00  0.00    +0.000 OA
ATOM     25  H   UNL     1      -7.134   1.318 124.689  0.00  0.00    +0.000 HD
ENDBRANCH   5  24
BRANCH   5  26
ATOM     26  C   UNL     1      -9.547   0.471 125.704  0.00  0.00    +0.000 C 
ATOM     27  O   UNL     1      -9.432   1.246 126.703  0.00  0.00    +0.000 OA
BRANCH  26  28
ATOM     28  C   UNL     1     -10.941   0.663 125.025  0.00  0.00    +0.000 C 
BRANCH  28  29
ATOM     29  O   UNL     1     -10.940   1.114 123.624  0.00  0.00    +0.000 OA
ATOM     30  H   UNL     1     -10.922   2.088 123.549  0.00  0.00    +0.000 HD
ENDBRANCH  28  29
ENDBRANCH  26  28
ENDBRANCH   5  26
BRANCH   9  31
ATOM     31  O   UNL     1      -4.478  -0.485 126.154  0.00  0.00    +0.000 OA
ATOM     32  H   UNL     1      -4.257  -0.930 125.313  0.00  0.00    +0.000 HD
ENDBRANCH   9  31
TORSDOF 5
ENDMDL
MODEL 5
REMARK VINA RESULT:      -7.7      2.994      5.030
REMARK  Name = Flumethasone
REMARK  8 active torsions:
REMARK  status: ('A' for Active; 'I' for Inactive)
REMARK    1  A    between atoms: C_4  and  C_5
REMARK    2  A    between atoms: C_6  and  O_7
REMARK    3  A    between atoms: C_6  and  C_8
REMARK    4  A    between atoms: C_8  and  C_10
REMARK    5  A    between atoms: C_10  and  O_11
REMARK    6  A    between atoms: C_12  and  C_13
REMARK    7  A    between atoms: C_15  and  O_16
REMARK    8  A    between atoms: C_30  and  C_31
REMARK                            x       y       z     vdW  Elec       q    Type
REMARK                         _______ _______ _______ _____ _____    ______ ____
ROOT
ATOM      1  C   UNL     1      -6.141  -1.995 125.659  0.00  0.00    +0.000 C 
ATOM      2  C   UNL     1      -5.399  -1.872 124.416  0.00  0.00    +0.000 C 
ATOM      3  C   UNL     1      -6.837  -1.649 124.071  0.00  0.00    +0.000 C 
ATOM      4  C   UNL     1      -6.714  -1.867 122.256  0.00  0.00    +0.000 C 
ATOM      5  C   UNL     1      -8.065  -2.070 125.681  0.00  0.00    +0.000 C 
ATOM      6  C   UNL     1      -7.472  -2.916 124.846  0.00  0.00    +0.000 C 
ATOM      7  C   UNL     1      -7.259  -4.356 124.683  0.00  0.00    +0.000 C 
ATOM      8  C   UNL     1      -8.831  -2.052 123.855  0.00  0.00    +0.000 C 
ATOM      9  C   UNL     1      -8.974  -0.340 124.432  0.00  0.00    +0.000 C 
ATOM     10  C   UNL     1      -7.611   0.537 125.261  0.00  0.00    +0.000 C 
ATOM     11  F   UNL     1      -6.444   0.388 124.450  0.00  0.00    +0.000 F 
ATOM     12  C   UNL     1      -6.635  -0.336 126.296  0.00  0.00    +0.000 C 
ATOM     13  C   UNL     1      -5.283   0.443 126.403  0.00  0.00    +0.000 C 
ATOM     14  C   UNL     1      -5.553   1.906 126.610  0.00  0.00    +0.000 C 
ATOM     15  F   UNL     1      -6.437   2.031 127.636  0.00  0.00    +0.000 F 
ATOM     16  C   UNL     1      -6.065   2.438 125.306  0.00  0.00    +0.000 C 
ATOM     17  C   UNL     1      -5.567   3.467 124.588  0.00  0.00    +0.000 C 
ATOM     18  C   UNL     1      -5.723   4.485 125.563  0.00  0.00    +0.000 C 
ATOM     19  O   UNL     1      -4.735   5.026 126.005  0.00  0.00    +0.000 OA
ATOM     20  C   UNL     1      -7.253   4.686 125.611  0.00  0.00    +0.000 C 
ATOM     21  C   UNL     1      -8.094   3.580 125.311  0.00  0.00    +0.000 C 
ATOM     22  C   UNL     1      -7.460   2.110 124.844  0.00  0.00    +0.000 C 
ATOM     23  C   UNL     1      -7.051   1.939 123.176  0.00  0.00    +0.000 C 
ENDROOT
BRANCH   5  24
ATOM     24  O   UNL     1      -9.413  -2.900 125.695  0.00  0.00    +0.000 OA
ATOM     25  H   UNL     1      -9.981  -2.654 126.465  0.00  0.00    +0.000 HD
ENDBRANCH   5  24
BRANCH   5  26
ATOM     26  C   UNL     1      -8.308  -2.529 127.434  0.00  0.00    +0.000 C 
ATOM     27  O   UNL     1      -8.401  -1.549 128.235  0.00  0.00    +0.000 OA
BRANCH  26  28
ATOM     28  C   UNL     1      -8.521  -3.876 128.196  0.00  0.00    +0.000 C 
BRANCH  28  29
ATOM     29  O   UNL     1      -9.885  -4.430 128.194  0.00  0.00    +0.000 OA
ATOM     30  H   UNL     1      -9.889  -5.402 128.300  0.00  0.00    +0.000 HD
ENDBRANCH  28  29
ENDBRANCH  26  28
ENDBRANCH   5  26
BRANCH   9  31
ATOM     31  O   UNL     1      -9.433   0.359 123.285  0.00  0.00    +0.000 OA
ATOM     32  H   UNL     1      -9.940  -0.304 122.778  0.00  0.00    +0.000 HD
ENDBRANCH   9  31
TORSDOF 5
ENDMDL
MODEL 6
REMARK VINA RESULT:      -7.7      2.116      6.182
REMARK  Name = Flumethasone
REMARK  8 active torsions:
REMARK  status: ('A' for Active; 'I' for Inactive)
REMARK    1  A    between atoms: C_4  and  C_5
REMARK    2  A    between atoms: C_6  and  O_7
REMARK    3  A    between atoms: C_6  and  C_8
REMARK    4  A    between atoms: C_8  and  C_10
REMARK    5  A    between atoms: C_10  and  O_11
REMARK    6  A    between atoms: C_12  and  C_13
REMARK    7  A    between atoms: C_15  and  O_16
REMARK    8  A    between atoms: C_30  and  C_31
REMARK                            x       y       z     vdW  Elec       q    Type
REMARK                         _______ _______ _______ _____ _____    ______ ____
ROOT
ATOM      1  C   UNL     1      -7.072  -1.973 129.611  0.00  0.00    +0.000 C 
ATOM      2  C   UNL     1      -8.146  -1.001 129.731  0.00  0.00    +0.000 C 
ATOM      3  C   UNL     1      -6.966  -0.259 129.190  0.00  0.00    +0.000 C 
ATOM      4  C   UNL     1      -7.547   1.446 129.522  0.00  0.00    +0.000 C 
ATOM      5  C   UNL     1      -5.264  -1.434 129.224  0.00  0.00    +0.000 C 
ATOM      6  C   UNL     1      -5.848  -0.789 130.228  0.00  0.00    +0.000 C 
ATOM      7  C   UNL     1      -5.743  -0.664 131.684  0.00  0.00    +0.000 C 
ATOM      8  C   UNL     1      -5.082   0.535 129.116  0.00  0.00    +0.000 C 
ATOM      9  C   UNL     1      -5.199  -0.013 127.392  0.00  0.00    +0.000 C 
ATOM     10  C   UNL     1      -6.438  -1.221 126.825  0.00  0.00    +0.000 C 
ATOM     11  F   UNL     1      -7.716  -0.780 127.289  0.00  0.00    +0.000 F 
ATOM     12  C   UNL     1      -6.835  -2.475 127.853  0.00  0.00    +0.000 C 
ATOM     13  C   UNL     1      -8.246  -2.986 127.414  0.00  0.00    +0.000 C 
ATOM     14  C   UNL     1      -8.292  -3.138 125.920  0.00  0.00    +0.000 C 
ATOM     15  F   UNL     1      -7.209  -3.865 125.536  0.00  0.00    +0.000 F 
ATOM     16  C   UNL     1      -8.320  -1.753 125.347  0.00  0.00    +0.000 C 
ATOM     17  C   UNL     1      -9.237  -1.232 124.505  0.00  0.00    +0.000 C 
ATOM     18  C   UNL     1      -9.060  -2.142 123.431  0.00  0.00    +0.000 C 
ATOM     19  O   UNL     1      -9.980  -2.863 123.120  0.00  0.00    +0.000 OA
ATOM     20  C   UNL     1      -7.677  -1.748 122.869  0.00  0.00    +0.000 C 
ATOM     21  C   UNL     1      -6.715  -1.193 123.756  0.00  0.00    +0.000 C 
ATOM     22  C   UNL     1      -7.079  -0.899 125.357  0.00  0.00    +0.000 C 
ATOM     23  C   UNL     1      -7.895   0.582 125.704  0.00  0.00    +0.000 C 
ENDROOT
BRANCH   5  24
ATOM     24  O   UNL     1      -3.809  -1.038 129.707  0.00  0.00    +0.000 OA
ATOM     25  H   UNL     1      -3.120  -1.359 129.076  0.00  0.00    +0.000 HD
ENDBRANCH   5  24
BRANCH   5  26
ATOM     26  C   UNL     1      -4.426  -3.031 129.523  0.00  0.00    +0.000 C 
ATOM     27  O   UNL     1      -3.785  -3.492 128.529  0.00  0.00    +0.000 OA
BRANCH  26  28
ATOM     28  C   UNL     1      -4.229  -3.950 130.771  0.00  0.00    +0.000 C 
BRANCH  28  29
ATOM     29  O   UNL     1      -3.388  -3.423 131.858  0.00  0.00    +0.000 OA
ATOM     30  H   UNL     1      -3.285  -2.452 131.807  0.00  0.00    +0.000 HD
ENDBRANCH  28  29
ENDBRANCH  26  28
ENDBRANCH   5  26
BRANCH   9  31
ATOM     31  O   UNL     1      -5.272   1.203 126.663  0.00  0.00    +0.000 OA
ATOM     32  H   UNL     1      -5.086   0.949 125.739  0.00  0.00    +0.000 HD
ENDBRANCH   9  31
TORSDOF 5
ENDMDL
MODEL 7
REMARK VINA RESULT:      -7.6      5.416      7.448
REMARK  Name = Flumethasone
REMARK  8 active torsions:
REMARK  status: ('A' for Active; 'I' for Inactive)
REMARK    1  A    between atoms: C_4  and  C_5
REMARK    2  A    between atoms: C_6  and  O_7
REMARK    3  A    between atoms: C_6  and  C_8
REMARK    4  A    between atoms: C_8  and  C_10
REMARK    5  A    between atoms: C_10  and  O_11
REMARK    6  A    between atoms: C_12  and  C_13
REMARK    7  A    between atoms: C_15  and  O_16
REMARK    8  A    between atoms: C_30  and  C_31
REMARK                            x       y       z     vdW  Elec       q    Type
REMARK                         _______ _______ _______ _____ _____    ______ ____
ROOT
ATOM      1  C   UNL     1      -4.920   2.863 129.431  0.00  0.00    +0.000 C 
ATOM      2  C   UNL     1      -3.556   2.400 129.232  0.00  0.00    +0.000 C 
ATOM      3  C   UNL     1      -3.713   3.621 128.384  0.00  0.00    +0.000 C 
ATOM      4  C   UNL     1      -2.243   3.396 127.315  0.00  0.00    +0.000 C 
ATOM      5  C   UNL     1      -5.684   4.246 128.330  0.00  0.00    +0.000 C 
ATOM      6  C   UNL     1      -5.111   3.244 127.671  0.00  0.00    +0.000 C 
ATOM      7  C   UNL     1      -5.483   2.126 126.801  0.00  0.00    +0.000 C 
ATOM      8  C   UNL     1      -4.438   4.840 126.910  0.00  0.00    +0.000 C 
ATOM      9  C   UNL     1      -4.275   6.085 128.217  0.00  0.00    +0.000 C 
ATOM     10  C   UNL     1      -4.102   5.649 129.976  0.00  0.00    +0.000 C 
ATOM     11  F   UNL     1      -3.051   4.684 130.081  0.00  0.00    +0.000 F 
ATOM     12  C   UNL     1      -4.957   4.333 130.543  0.00  0.00    +0.000 C 
ATOM     13  C   UNL     1      -4.226   3.845 131.837  0.00  0.00    +0.000 C 
ATOM     14  C   UNL     1      -3.903   5.021 132.714  0.00  0.00    +0.000 C 
ATOM     15  F   UNL     1      -5.035   5.756 132.868  0.00  0.00    +0.000 F 
ATOM     16  C   UNL     1      -2.788   5.765 132.042  0.00  0.00    +0.000 C 
ATOM     17  C   UNL     1      -1.585   6.085 132.563  0.00  0.00    +0.000 C 
ATOM     18  C   UNL     1      -2.041   6.874 133.650  0.00  0.00    +0.000 C 
ATOM     19  O   UNL     1      -1.821   6.496 134.778  0.00  0.00    +0.000 OA
ATOM     20  C   UNL     1      -2.567   8.148 132.954  0.00  0.00    +0.000 C 
ATOM     21  C   UNL     1      -3.081   8.038 131.633  0.00  0.00    +0.000 C 
ATOM     22  C   UNL     1      -3.056   6.588 130.810  0.00  0.00    +0.000 C 
ATOM     23  C   UNL     1      -1.582   6.180 130.010  0.00  0.00    +0.000 C 
ENDROOT
BRANCH   5  24
ATOM     24  O   UNL     1      -6.535   4.697 127.074  0.00  0.00    +0.000 OA
ATOM     25  H   UNL     1      -6.258   5.589 126.752  0.00  0.00    +0.000 HD
ENDBRANCH   5  24
BRANCH   5  26
ATOM     26  C   UNL     1      -7.422   4.110 128.877  0.00  0.00    +0.000 C 
ATOM     27  O   UNL     1      -7.963   5.207 129.217  0.00  0.00    +0.000 OA
BRANCH  26  28
ATOM     28  C   UNL     1      -8.463   2.947 128.946  0.00  0.00    +0.000 C 
BRANCH  28  29
ATOM     29  O   UNL     1      -9.779   3.268 129.524  0.00  0.00    +0.000 OA
ATOM     30  H   UNL     1     -10.514   2.884 129.005  0.00  0.00    +0.000 HD
ENDBRANCH  28  29
ENDBRANCH  26  28
ENDBRANCH   5  26
BRANCH   9  31
ATOM     31  O   UNL     1      -3.204   6.900 127.765  0.00  0.00    +0.000 OA
ATOM     32  H   UNL     1      -3.573   7.400 127.013  0.00  0.00    +0.000 HD
ENDBRANCH   9  31
TORSDOF 5
ENDMDL
MODEL 8
REMARK VINA RESULT:      -7.6      2.145      6.769
REMARK  Name = Flumethasone
REMARK  8 active torsions:
REMARK  status: ('A' for Active; 'I' for Inactive)
REMARK    1  A    between atoms: C_4  and  C_5
REMARK    2  A    between atoms: C_6  and  O_7
REMARK    3  A    between atoms: C_6  and  C_8
REMARK    4  A    between atoms: C_8  and  C_10
REMARK    5  A    between atoms: C_10  and  O_11
REMARK    6  A    between atoms: C_12  and  C_13
REMARK    7  A    between atoms: C_15  and  O_16
REMARK    8  A    between atoms: C_30  and  C_31
REMARK                            x       y       z     vdW  Elec       q    Type
REMARK                         _______ _______ _______ _____ _____    ______ ____
ROOT
ATOM      1  C   UNL     1      -7.480  -2.403 131.896  0.00  0.00    +0.000 C 
ATOM      2  C   UNL     1      -8.040  -1.067 131.782  0.00  0.00    +0.000 C 
ATOM      3  C   UNL     1      -6.601  -0.953 131.393  0.00  0.00    +0.000 C 
ATOM      4  C   UNL     1      -6.431   0.866 131.523  0.00  0.00    +0.000 C 
ATOM      5  C   UNL     1      -5.583  -2.714 131.771  0.00  0.00    +0.000 C 
ATOM      6  C   UNL     1      -5.950  -1.766 132.627  0.00  0.00    +0.000 C 
ATOM      7  C   UNL     1      -5.976  -1.517 134.071  0.00  0.00    +0.000 C 
ATOM      8  C   UNL     1      -4.564  -1.027 131.574  0.00  0.00    +0.000 C 
ATOM      9  C   UNL     1      -4.698  -1.685 129.890  0.00  0.00    +0.000 C 
ATOM     10  C   UNL     1      -6.257  -2.331 129.206  0.00  0.00    +0.000 C 
ATOM     11  F   UNL     1      -7.269  -1.346 129.432  0.00  0.00    +0.000 F 
ATOM     12  C   UNL     1      -7.272  -3.171 130.232  0.00  0.00    +0.000 C 
ATOM     13  C   UNL     1      -8.703  -3.101 129.604  0.00  0.00    +0.000 C 
ATOM     14  C   UNL     1      -8.630  -3.403 128.135  0.00  0.00    +0.000 C 
ATOM     15  F   UNL     1      -7.926  -4.555 127.975  0.00  0.00    +0.000 F 
ATOM     16  C   UNL     1      -7.995  -2.213 127.481  0.00  0.00    +0.000 C 
ATOM     17  C   UNL     1      -8.493  -1.468 126.472  0.00  0.00    +0.000 C 
ATOM     18  C   UNL     1      -8.596  -2.494 125.499  0.00  0.00    +0.000 C 
ATOM     19  O   UNL     1      -9.692  -2.801 125.088  0.00  0.00    +0.000 OA
ATOM     20  C   UNL     1      -7.121  -2.781 125.142  0.00  0.00    +0.000 C 
ATOM     21  C   UNL     1      -6.128  -2.569 126.137  0.00  0.00    +0.000 C 
ATOM     22  C   UNL     1      -6.519  -1.956 127.638  0.00  0.00    +0.000 C 
ATOM     23  C   UNL     1      -6.658  -0.239 127.758  0.00  0.00    +0.000 C 
ENDROOT
BRANCH   5  24
ATOM     24  O   UNL     1      -4.168  -2.900 132.456  0.00  0.00    +0.000 OA
ATOM     25  H   UNL     1      -3.865  -3.839 132.408  0.00  0.00    +0.000 HD
ENDBRANCH   5  24
BRANCH   5  26
ATOM     26  C   UNL     1      -5.551  -4.464 132.298  0.00  0.00    +0.000 C 
ATOM     27  O   UNL     1      -5.154  -5.281 131.411  0.00  0.00    +0.000 OA
BRANCH  26  28
ATOM     28  C   UNL     1      -5.819  -5.210 133.644  0.00  0.00    +0.000 C 
BRANCH  28  29
ATOM     29  O   UNL     1      -4.955  -4.856 134.782  0.00  0.00    +0.000 OA
ATOM     30  H   UNL     1      -5.328  -5.155 135.635  0.00  0.00    +0.000 HD
ENDBRANCH  28  29
ENDBRANCH  26  28
ENDBRANCH   5  26
BRANCH   9  31
ATOM     31  O   UNL     1      -4.157  -0.648 129.086  0.00  0.00    +0.000 OA
ATOM     32  H   UNL     1      -4.578   0.168 129.417  0.00  0.00    +0.000 HD
ENDBRANCH   9  31
TORSDOF 5
ENDMDL
MODEL 9
REMARK VINA RESULT:      -7.5      3.347      5.354
REMARK  Name = Flumethasone
REMARK  8 active torsions:
REMARK  status: ('A' for Active; 'I' for Inactive)
REMARK    1  A    between atoms: C_4  and  C_5
REMARK    2  A    between atoms: C_6  and  O_7
REMARK    3  A    between atoms: C_6  and  C_8
REMARK    4  A    between atoms: C_8  and  C_10
REMARK    5  A    between atoms: C_10  and  O_11
REMARK    6  A    between atoms: C_12  and  C_13
REMARK    7  A    between atoms: C_15  and  O_16
REMARK    8  A    between atoms: C_30  and  C_31
REMARK                            x       y       z     vdW  Elec       q    Type
REMARK                         _______ _______ _______ _____ _____    ______ ____
ROOT
ATOM      1  C   UNL     1      -4.136   2.252 130.050  0.00  0.00    +0.000 C 
ATOM      2  C   UNL     1      -4.682   2.321 131.395  0.00  0.00    +0.000 C 
ATOM      3  C   UNL     1      -5.807   2.651 130.467  0.00  0.00    +0.000 C 
ATOM      4  C   UNL     1      -6.954   3.391 131.689  0.00  0.00    +0.000 C 
ATOM      5  C   UNL     1      -5.133   2.876 128.525  0.00  0.00    +0.000 C 
ATOM      6  C   UNL     1      -5.047   3.731 129.538  0.00  0.00    +0.000 C 
ATOM      7  C   UNL     1      -4.427   5.019 129.860  0.00  0.00    +0.000 C 
ATOM      8  C   UNL     1      -6.871   3.667 129.045  0.00  0.00    +0.000 C 
ATOM      9  C   UNL     1      -7.273   1.981 128.513  0.00  0.00    +0.000 C 
ATOM     10  C   UNL     1      -6.314   0.527 129.043  0.00  0.00    +0.000 C 
ATOM     11  F   UNL     1      -6.200   0.579 130.467  0.00  0.00    +0.000 F 
ATOM     12  C   UNL     1      -4.661   0.698 129.207  0.00  0.00    +0.000 C 
ATOM     13  C   UNL     1      -4.187  -0.434 130.177  0.00  0.00    +0.000 C 
ATOM     14  C   UNL     1      -4.815  -1.740 129.782  0.00  0.00    +0.000 C 
ATOM     15  F   UNL     1      -4.610  -1.922 128.450  0.00  0.00    +0.000 F 
ATOM     16  C   UNL     1      -6.263  -1.653 130.162  0.00  0.00    +0.000 C 
ATOM     17  C   UNL     1      -6.954  -2.497 130.957  0.00  0.00    +0.000 C 
ATOM     18  C   UNL     1      -6.775  -3.680 130.196  0.00  0.00    +0.000 C 
ATOM     19  O   UNL     1      -6.154  -4.598 130.682  0.00  0.00    +0.000 OA
ATOM     20  C   UNL     1      -7.659  -3.429 128.955  0.00  0.00    +0.000 C 
ATOM     21  C   UNL     1      -7.854  -2.090 128.519  0.00  0.00    +0.000 C 
ATOM     22  C   UNL     1      -7.211  -0.801 129.360  0.00  0.00    +0.000 C 
ATOM     23  C   UNL     1      -8.117  -0.234 130.716  0.00  0.00    +0.000 C 
ENDROOT
BRANCH   5  24
ATOM     24  O   UNL     1      -5.496   4.014 127.486  0.00  0.00    +0.000 OA
ATOM     25  H   UNL     1      -4.703   4.297 126.969  0.00  0.00    +0.000 HD
ENDBRANCH   5  24
BRANCH   5  26
ATOM     26  C   UNL     1      -3.803   2.800 127.272  0.00  0.00    +0.000 C 
ATOM     27  O   UNL     1      -4.100   2.162 126.216  0.00  0.00    +0.000 OA
BRANCH  26  28
ATOM     28  C   UNL     1      -2.377   3.425 127.146  0.00  0.00    +0.000 C 
BRANCH  28  29
ATOM     29  O   UNL     1      -1.271   2.500 126.849  0.00  0.00    +0.000 OA
ATOM     30  H   UNL     1      -0.786   2.752 126.039  0.00  0.00    +0.000 HD
ENDBRANCH  28  29
ENDBRANCH  26  28
ENDBRANCH   5  26
BRANCH   9  31
ATOM     31  O   UNL     1      -8.649   1.852 128.832  0.00  0.00    +0.000 OA
ATOM     32  H   UNL     1      -8.894   2.711 129.227  0.00  0.00    +0.000 HD
ENDBRANCH   9  31
TORSDOF 5
ENDMDL
