MODEL 1
REMARK VINA RESULT:      -9.6      0.000      0.000
REMARK  Name = Flunarizine
REMARK  6 active torsions:
REMARK  status: ('A' for Active; 'I' for Inactive)
REMARK    1  A    between atoms: C_5  and  C_8
REMARK    2  A    between atoms: C_8  and  N_9
REMARK    3  A    between atoms: C_8  and  C_24
REMARK    4  A    between atoms: N_12  and  C_13
REMARK    5  A    between atoms: C_13  and  C_14
REMARK    6  A    between atoms: C_15  and  C_16
REMARK                            x       y       z     vdW  Elec       q    Type
REMARK                         _______ _______ _______ _____ _____    ______ ____
ROOT
ATOM      1  C   UNL     1      -6.458  -1.704 127.137  0.00  0.00    +0.000 C 
ENDROOT
BRANCH   1   6
ATOM      2  F   UNL     1     -10.111  -3.546 123.217  0.00  0.00    +0.000 F 
ATOM      3  C   UNL     1      -9.218  -3.357 124.197  0.00  0.00    +0.000 A 
ATOM      4  C   UNL     1      -7.870  -3.248 123.900  0.00  0.00    +0.000 A 
ATOM      5  C   UNL     1      -6.928  -3.042 124.936  0.00  0.00    +0.000 A 
ATOM      6  C   UNL     1      -7.374  -2.574 126.187  0.00  0.00    +0.000 A 
ATOM      7  C   UNL     1      -8.743  -2.779 126.471  0.00  0.00    +0.000 A 
ATOM      8  C   UNL     1      -9.645  -3.229 125.503  0.00  0.00    +0.000 A 
ENDBRANCH   1   6
BRANCH   1   9
ATOM      9  C   UNL     1      -6.214  -2.384 128.514  0.00  0.00    +0.000 A 
ATOM     10  C   UNL     1      -4.938  -2.891 128.809  0.00  0.00    +0.000 A 
ATOM     11  C   UNL     1      -4.744  -3.731 129.902  0.00  0.00    +0.000 A 
ATOM     12  C   UNL     1      -5.808  -4.031 130.743  0.00  0.00    +0.000 A 
ATOM     13  F   UNL     1      -5.619  -4.846 131.786  0.00  0.00    +0.000 F 
ATOM     14  C   UNL     1      -7.058  -3.478 130.532  0.00  0.00    +0.000 A 
ATOM     15  C   UNL     1      -7.237  -2.608 129.461  0.00  0.00    +0.000 A 
ENDBRANCH   1   9
BRANCH   1  16
ATOM     16  N   UNL     1      -6.827  -0.253 127.325  0.00  0.00    +0.000 NA
ATOM     17  C   UNL     1      -5.688   0.683 127.363  0.00  0.00    +0.000 C 
ATOM     18  C   UNL     1      -5.185   1.092 125.964  0.00  0.00    +0.000 C 
ATOM     19  N   UNL     1      -6.177   1.456 124.962  0.00  0.00    +0.000 NA
ATOM     20  C   UNL     1      -7.329   0.537 124.998  0.00  0.00    +0.000 C 
ATOM     21  C   UNL     1      -7.844   0.301 126.405  0.00  0.00    +0.000 C 
BRANCH  19  22
ATOM     22  C   UNL     1      -6.521   2.819 125.240  0.00  0.00    +0.000 C 
BRANCH  22  23
ATOM     23  C   UNL     1      -6.209   3.613 124.054  0.00  0.00    +0.000 C 
ATOM     24  C   UNL     1      -6.594   3.145 122.861  0.00  0.00    +0.000 C 
BRANCH  24  25
ATOM     25  C   UNL     1      -6.147   3.802 121.669  0.00  0.00    +0.000 A 
ATOM     26  C   UNL     1      -4.964   4.525 121.753  0.00  0.00    +0.000 A 
ATOM     27  C   UNL     1      -4.615   5.364 120.709  0.00  0.00    +0.000 A 
ATOM     28  C   UNL     1      -5.404   5.411 119.556  0.00  0.00    +0.000 A 
ATOM     29  C   UNL     1      -6.554   4.631 119.446  0.00  0.00    +0.000 A 
ATOM     30  C   UNL     1      -6.933   3.830 120.509  0.00  0.00    +0.000 A 
ENDBRANCH  24  25
ENDBRANCH  22  23
ENDBRANCH  19  22
ENDBRANCH   1  16
TORSDOF 6
ENDMDL
MODEL 2
REMARK VINA RESULT:      -9.2      4.172      8.033
REMARK  Name = Flunarizine
REMARK  6 active torsions:
REMARK  status: ('A' for Active; 'I' for Inactive)
REMARK    1  A    between atoms: C_5  and  C_8
REMARK    2  A    between atoms: C_8  and  N_9
REMARK    3  A    between atoms: C_8  and  C_24
REMARK    4  A    between atoms: N_12  and  C_13
REMARK    5  A    between atoms: C_13  and  C_14
REMARK    6  A    between atoms: C_15  and  C_16
REMARK                            x       y       z     vdW  Elec       q    Type
REMARK                         _______ _______ _______ _____ _____    ______ ____
ROOT
ATOM      1  C   UNL     1      -6.767   2.072 123.508  0.00  0.00    +0.000 C 
ENDROOT
BRANCH   1   6
ATOM      2  F   UNL     1      -7.376   4.562 118.454  0.00  0.00    +0.000 F 
ATOM      3  C   UNL     1      -7.249   4.210 119.740  0.00  0.00    +0.000 A 
ATOM      4  C   UNL     1      -8.362   3.836 120.473  0.00  0.00    +0.000 A 
ATOM      5  C   UNL     1      -8.225   3.458 121.830  0.00  0.00    +0.000 A 
ATOM      6  C   UNL     1      -6.954   3.097 122.319  0.00  0.00    +0.000 A 
ATOM      7  C   UNL     1      -5.850   3.569 121.574  0.00  0.00    +0.000 A 
ATOM      8  C   UNL     1      -6.000   4.180 120.325  0.00  0.00    +0.000 A 
ENDBRANCH   1   6
BRANCH   1   9
ATOM      9  C   UNL     1      -7.440   0.700 123.220  0.00  0.00    +0.000 A 
ATOM     10  C   UNL     1      -8.821   0.559 123.432  0.00  0.00    +0.000 A 
ATOM     11  C   UNL     1      -9.411  -0.702 123.443  0.00  0.00    +0.000 A 
ATOM     12  C   UNL     1      -8.641  -1.830 123.189  0.00  0.00    +0.000 A 
ATOM     13  F   UNL     1      -9.211  -3.039 123.211  0.00  0.00    +0.000 F 
ATOM     14  C   UNL     1      -7.296  -1.719 122.890  0.00  0.00    +0.000 A 
ATOM     15  C   UNL     1      -6.720  -0.454 122.841  0.00  0.00    +0.000 A 
ENDBRANCH   1   9
BRANCH   1  16
ATOM     16  N   UNL     1      -7.110   2.547 124.899  0.00  0.00    +0.000 NA
ATOM     17  C   UNL     1      -6.357   1.895 125.985  0.00  0.00    +0.000 C 
ATOM     18  C   UNL     1      -4.965   2.514 126.223  0.00  0.00    +0.000 C 
ATOM     19  N   UNL     1      -4.863   3.967 126.261  0.00  0.00    +0.000 NA
ATOM     20  C   UNL     1      -5.680   4.584 125.201  0.00  0.00    +0.000 C 
ATOM     21  C   UNL     1      -7.080   4.007 125.131  0.00  0.00    +0.000 C 
BRANCH  19  22
ATOM     22  C   UNL     1      -5.259   4.344 127.585  0.00  0.00    +0.000 C 
BRANCH  22  23
ATOM     23  C   UNL     1      -4.048   4.562 128.372  0.00  0.00    +0.000 C 
ATOM     24  C   UNL     1      -4.139   4.490 129.705  0.00  0.00    +0.000 C 
BRANCH  24  25
ATOM     25  C   UNL     1      -3.018   4.877 130.510  0.00  0.00    +0.000 A 
ATOM     26  C   UNL     1      -2.796   4.151 131.672  0.00  0.00    +0.000 A 
ATOM     27  C   UNL     1      -1.882   4.628 132.596  0.00  0.00    +0.000 A 
ATOM     28  C   UNL     1      -1.137   5.776 132.314  0.00  0.00    +0.000 A 
ATOM     29  C   UNL     1      -1.313   6.464 131.114  0.00  0.00    +0.000 A 
ATOM     30  C   UNL     1      -2.262   6.019 130.212  0.00  0.00    +0.000 A 
ENDBRANCH  24  25
ENDBRANCH  22  23
ENDBRANCH  19  22
ENDBRANCH   1  16
TORSDOF 6
ENDMDL
MODEL 3
REMARK VINA RESULT:      -9.0      4.393      8.481
REMARK  Name = Flunarizine
REMARK  6 active torsions:
REMARK  status: ('A' for Active; 'I' for Inactive)
REMARK    1  A    between atoms: C_5  and  C_8
REMARK    2  A    between atoms: C_8  and  N_9
REMARK    3  A    between atoms: C_8  and  C_24
REMARK    4  A    between atoms: N_12  and  C_13
REMARK    5  A    between atoms: C_13  and  C_14
REMARK    6  A    between atoms: C_15  and  C_16
REMARK                            x       y       z     vdW  Elec       q    Type
REMARK                         _______ _______ _______ _____ _____    ______ ____
ROOT
ATOM      1  C   UNL     1      -7.727   1.946 123.677  0.00  0.00    +0.000 C 
ENDROOT
BRANCH   1   6
ATOM      2  F   UNL     1      -7.950  -3.716 123.725  0.00  0.00    +0.000 F 
ATOM      3  C   UNL     1      -7.932  -2.403 123.463  0.00  0.00    +0.000 A 
ATOM      4  C   UNL     1      -9.094  -1.657 123.557  0.00  0.00    +0.000 A 
ATOM      5  C   UNL     1      -9.071  -0.269 123.286  0.00  0.00    +0.000 A 
ATOM      6  C   UNL     1      -7.839   0.415 123.299  0.00  0.00    +0.000 A 
ATOM      7  C   UNL     1      -6.688  -0.386 123.123  0.00  0.00    +0.000 A 
ATOM      8  C   UNL     1      -6.743  -1.783 123.139  0.00  0.00    +0.000 A 
ENDBRANCH   1   6
BRANCH   1   9
ATOM      9  C   UNL     1      -7.530   2.853 122.430  0.00  0.00    +0.000 A 
ATOM     10  C   UNL     1      -8.658   3.279 121.711  0.00  0.00    +0.000 A 
ATOM     11  C   UNL     1      -8.518   3.863 120.454  0.00  0.00    +0.000 A 
ATOM     12  C   UNL     1      -7.251   4.076 119.926  0.00  0.00    +0.000 A 
ATOM     13  F   UNL     1      -7.123   4.628 118.714  0.00  0.00    +0.000 F 
ATOM     14  C   UNL     1      -6.117   3.749 120.646  0.00  0.00    +0.000 A 
ATOM     15  C   UNL     1      -6.262   3.202 121.917  0.00  0.00    +0.000 A 
ENDBRANCH   1   9
BRANCH   1  16
ATOM     16  N   UNL     1      -6.753   2.325 124.765  0.00  0.00    +0.000 NA
ATOM     17  C   UNL     1      -6.775   3.747 125.156  0.00  0.00    +0.000 C 
ATOM     18  C   UNL     1      -7.888   4.086 126.168  0.00  0.00    +0.000 C 
ATOM     19  N   UNL     1      -8.076   3.189 127.300  0.00  0.00    +0.000 NA
ATOM     20  C   UNL     1      -7.983   1.780 126.881  0.00  0.00    +0.000 C 
ATOM     21  C   UNL     1      -6.780   1.511 125.999  0.00  0.00    +0.000 C 
BRANCH  19  22
ATOM     22  C   UNL     1      -7.083   3.570 128.260  0.00  0.00    +0.000 C 
BRANCH  22  23
ATOM     23  C   UNL     1      -7.760   4.243 129.365  0.00  0.00    +0.000 C 
ATOM     24  C   UNL     1      -9.032   3.915 129.622  0.00  0.00    +0.000 C 
BRANCH  24  25
ATOM     25  C   UNL     1      -9.779   4.682 130.574  0.00  0.00    +0.000 A 
ATOM     26  C   UNL     1     -11.070   5.048 130.215  0.00  0.00    +0.000 A 
ATOM     27  C   UNL     1     -11.742   5.979 130.988  0.00  0.00    +0.000 A 
ATOM     28  C   UNL     1     -11.156   6.472 132.157  0.00  0.00    +0.000 A 
ATOM     29  C   UNL     1      -9.887   6.049 132.552  0.00  0.00    +0.000 A 
ATOM     30  C   UNL     1      -9.192   5.158 131.755  0.00  0.00    +0.000 A 
ENDBRANCH  24  25
ENDBRANCH  22  23
ENDBRANCH  19  22
ENDBRANCH   1  16
TORSDOF 6
ENDMDL
MODEL 4
REMARK VINA RESULT:      -9.0      3.815      8.396
REMARK  Name = Flunarizine
REMARK  6 active torsions:
REMARK  status: ('A' for Active; 'I' for Inactive)
REMARK    1  A    between atoms: C_5  and  C_8
REMARK    2  A    between atoms: C_8  and  N_9
REMARK    3  A    between atoms: C_8  and  C_24
REMARK    4  A    between atoms: N_12  and  C_13
REMARK    5  A    between atoms: C_13  and  C_14
REMARK    6  A    between atoms: C_15  and  C_16
REMARK                            x       y       z     vdW  Elec       q    Type
REMARK                         _______ _______ _______ _____ _____    ______ ____
ROOT
ATOM      1  C   UNL     1      -7.112   2.485 123.865  0.00  0.00    +0.000 C 
ENDROOT
BRANCH   1   6
ATOM      2  F   UNL     1      -9.414  -2.692 123.767  0.00  0.00    +0.000 F 
ATOM      3  C   UNL     1      -8.713  -1.568 123.963  0.00  0.00    +0.000 A 
ATOM      4  C   UNL     1      -7.635  -1.267 123.149  0.00  0.00    +0.000 A 
ATOM      5  C   UNL     1      -6.900  -0.076 123.355  0.00  0.00    +0.000 A 
ATOM      6  C   UNL     1      -7.474   0.965 124.110  0.00  0.00    +0.000 A 
ATOM      7  C   UNL     1      -8.522   0.590 124.982  0.00  0.00    +0.000 A 
ATOM      8  C   UNL     1      -9.092  -0.686 124.954  0.00  0.00    +0.000 A 
ENDBRANCH   1   6
BRANCH   1   9
ATOM      9  C   UNL     1      -7.312   2.911 122.383  0.00  0.00    +0.000 A 
ATOM     10  C   UNL     1      -6.184   3.111 121.572  0.00  0.00    +0.000 A 
ATOM     11  C   UNL     1      -6.302   3.740 120.335  0.00  0.00    +0.000 A 
ATOM     12  C   UNL     1      -7.553   4.128 119.873  0.00  0.00    +0.000 A 
ATOM     13  F   UNL     1      -7.660   4.741 118.689  0.00  0.00    +0.000 F 
ATOM     14  C   UNL     1      -8.695   3.867 120.607  0.00  0.00    +0.000 A 
ATOM     15  C   UNL     1      -8.575   3.202 121.823  0.00  0.00    +0.000 A 
ENDBRANCH   1   9
BRANCH   1  16
ATOM     16  N   UNL     1      -5.782   2.977 124.381  0.00  0.00    +0.000 NA
ATOM     17  C   UNL     1      -5.587   4.436 124.314  0.00  0.00    +0.000 C 
ATOM     18  C   UNL     1      -6.216   5.192 125.502  0.00  0.00    +0.000 C 
ATOM     19  N   UNL     1      -6.006   4.657 126.840  0.00  0.00    +0.000 NA
ATOM     20  C   UNL     1      -6.145   3.190 126.852  0.00  0.00    +0.000 C 
ATOM     21  C   UNL     1      -5.379   2.521 125.728  0.00  0.00    +0.000 C 
BRANCH  19  22
ATOM     22  C   UNL     1      -4.706   5.114 127.235  0.00  0.00    +0.000 C 
BRANCH  22  23
ATOM     23  C   UNL     1      -4.582   4.925 128.678  0.00  0.00    +0.000 C 
ATOM     24  C   UNL     1      -3.415   4.483 129.160  0.00  0.00    +0.000 C 
BRANCH  24  25
ATOM     25  C   UNL     1      -3.318   4.114 130.542  0.00  0.00    +0.000 A 
ATOM     26  C   UNL     1      -2.463   4.867 131.336  0.00  0.00    +0.000 A 
ATOM     27  C   UNL     1      -2.154   4.411 132.606  0.00  0.00    +0.000 A 
ATOM     28  C   UNL     1      -2.764   3.256 133.103  0.00  0.00    +0.000 A 
ATOM     29  C   UNL     1      -3.676   2.541 132.328  0.00  0.00    +0.000 A 
ATOM     30  C   UNL     1      -3.947   2.965 131.039  0.00  0.00    +0.000 A 
ENDBRANCH  24  25
ENDBRANCH  22  23
ENDBRANCH  19  22
ENDBRANCH   1  16
TORSDOF 6
ENDMDL
MODEL 5
REMARK VINA RESULT:      -8.8      0.891      4.578
REMARK  Name = Flunarizine
REMARK  6 active torsions:
REMARK  status: ('A' for Active; 'I' for Inactive)
REMARK    1  A    between atoms: C_5  and  C_8
REMARK    2  A    between atoms: C_8  and  N_9
REMARK    3  A    between atoms: C_8  and  C_24
REMARK    4  A    between atoms: N_12  and  C_13
REMARK    5  A    between atoms: C_13  and  C_14
REMARK    6  A    between atoms: C_15  and  C_16
REMARK                            x       y       z     vdW  Elec       q    Type
REMARK                         _______ _______ _______ _____ _____    ______ ____
ROOT
ATOM      1  C   UNL     1      -6.576  -1.668 127.418  0.00  0.00    +0.000 C 
ENDROOT
BRANCH   1   6
ATOM      2  F   UNL     1      -4.022  -4.142 131.829  0.00  0.00    +0.000 F 
ATOM      3  C   UNL     1      -4.648  -3.794 130.697  0.00  0.00    +0.000 A 
ATOM      4  C   UNL     1      -6.024  -3.647 130.680  0.00  0.00    +0.000 A 
ATOM      5  C   UNL     1      -6.683  -3.273 129.485  0.00  0.00    +0.000 A 
ATOM      6  C   UNL     1      -5.938  -2.690 128.441  0.00  0.00    +0.000 A 
ATOM      7  C   UNL     1      -4.546  -2.934 128.465  0.00  0.00    +0.000 A 
ATOM      8  C   UNL     1      -3.916  -3.541 129.556  0.00  0.00    +0.000 A 
ENDBRANCH   1   6
BRANCH   1   9
ATOM      9  C   UNL     1      -7.426  -2.375 126.325  0.00  0.00    +0.000 A 
ATOM     10  C   UNL     1      -6.781  -2.914 125.200  0.00  0.00    +0.000 A 
ATOM     11  C   UNL     1      -7.514  -3.315 124.086  0.00  0.00    +0.000 A 
ATOM     12  C   UNL     1      -8.901  -3.232 124.103  0.00  0.00    +0.000 A 
ATOM     13  F   UNL     1      -9.600  -3.609 123.027  0.00  0.00    +0.000 F 
ATOM     14  C   UNL     1      -9.572  -2.790 125.228  0.00  0.00    +0.000 A 
ATOM     15  C   UNL     1      -8.837  -2.428 126.352  0.00  0.00    +0.000 A 
ENDBRANCH   1   9
BRANCH   1  16
ATOM     16  N   UNL     1      -5.661  -0.643 126.793  0.00  0.00    +0.000 NA
ATOM     17  C   UNL     1      -6.103  -0.125 125.486  0.00  0.00    +0.000 C 
ATOM     18  C   UNL     1      -7.140   1.011 125.596  0.00  0.00    +0.000 C 
ATOM     19  N   UNL     1      -6.892   2.070 126.566  0.00  0.00    +0.000 NA
ATOM     20  C   UNL     1      -6.391   1.517 127.836  0.00  0.00    +0.000 C 
ATOM     21  C   UNL     1      -5.276   0.509 127.637  0.00  0.00    +0.000 C 
BRANCH  19  22
ATOM     22  C   UNL     1      -5.974   2.966 125.927  0.00  0.00    +0.000 C 
BRANCH  22  23
ATOM     23  C   UNL     1      -6.188   2.877 124.485  0.00  0.00    +0.000 C 
ATOM     24  C   UNL     1      -5.686   3.845 123.710  0.00  0.00    +0.000 C 
BRANCH  24  25
ATOM     25  C   UNL     1      -6.032   3.886 122.320  0.00  0.00    +0.000 A 
ATOM     26  C   UNL     1      -5.074   4.383 121.446  0.00  0.00    +0.000 A 
ATOM     27  C   UNL     1      -5.439   4.664 120.141  0.00  0.00    +0.000 A 
ATOM     28  C   UNL     1      -6.731   4.368 119.697  0.00  0.00    +0.000 A 
ATOM     29  C   UNL     1      -7.670   3.804 120.558  0.00  0.00    +0.000 A 
ATOM     30  C   UNL     1      -7.324   3.570 121.877  0.00  0.00    +0.000 A 
ENDBRANCH  24  25
ENDBRANCH  22  23
ENDBRANCH  19  22
ENDBRANCH   1  16
TORSDOF 6
ENDMDL
MODEL 6
REMARK VINA RESULT:      -8.7      1.705      2.347
REMARK  Name = Flunarizine
REMARK  6 active torsions:
REMARK  status: ('A' for Active; 'I' for Inactive)
REMARK    1  A    between atoms: C_5  and  C_8
REMARK    2  A    between atoms: C_8  and  N_9
REMARK    3  A    between atoms: C_8  and  C_24
REMARK    4  A    between atoms: N_12  and  C_13
REMARK    5  A    between atoms: C_13  and  C_14
REMARK    6  A    between atoms: C_15  and  C_16
REMARK                            x       y       z     vdW  Elec       q    Type
REMARK                         _______ _______ _______ _____ _____    ______ ____
ROOT
ATOM      1  C   UNL     1      -6.595  -0.899 126.772  0.00  0.00    +0.000 C 
ENDROOT
BRANCH   1   6
ATOM      2  F   UNL     1      -4.872  -5.040 123.310  0.00  0.00    +0.000 F 
ATOM      3  C   UNL     1      -5.398  -3.972 123.922  0.00  0.00    +0.000 A 
ATOM      4  C   UNL     1      -6.608  -4.076 124.588  0.00  0.00    +0.000 A 
ATOM      5  C   UNL     1      -7.159  -2.947 125.240  0.00  0.00    +0.000 A 
ATOM      6  C   UNL     1      -6.327  -1.851 125.538  0.00  0.00    +0.000 A 
ATOM      7  C   UNL     1      -5.140  -1.750 124.777  0.00  0.00    +0.000 A 
ATOM      8  C   UNL     1      -4.714  -2.774 123.926  0.00  0.00    +0.000 A 
ENDBRANCH   1   6
BRANCH   1   9
ATOM      9  C   UNL     1      -6.948  -1.688 128.064  0.00  0.00    +0.000 A 
ATOM     10  C   UNL     1      -7.887  -1.149 128.959  0.00  0.00    +0.000 A 
ATOM     11  C   UNL     1      -8.035  -1.681 130.237  0.00  0.00    +0.000 A 
ATOM     12  C   UNL     1      -7.288  -2.788 130.617  0.00  0.00    +0.000 A 
ATOM     13  F   UNL     1      -7.427  -3.289 131.850  0.00  0.00    +0.000 F 
ATOM     14  C   UNL     1      -6.420  -3.398 129.731  0.00  0.00    +0.000 A 
ATOM     15  C   UNL     1      -6.304  -2.886 128.443  0.00  0.00    +0.000 A 
ENDBRANCH   1   9
BRANCH   1  16
ATOM     16  N   UNL     1      -7.558   0.246 126.573  0.00  0.00    +0.000 NA
ATOM     17  C   UNL     1      -6.939   1.582 126.525  0.00  0.00    +0.000 C 
ATOM     18  C   UNL     1      -6.374   1.945 125.136  0.00  0.00    +0.000 C 
ATOM     19  N   UNL     1      -7.200   1.665 123.969  0.00  0.00    +0.000 NA
ATOM     20  C   UNL     1      -7.853   0.349 124.085  0.00  0.00    +0.000 C 
ATOM     21  C   UNL     1      -8.501   0.135 125.439  0.00  0.00    +0.000 C 
BRANCH  19  22
ATOM     22  C   UNL     1      -8.123   2.758 123.882  0.00  0.00    +0.000 C 
BRANCH  22  23
ATOM     23  C   UNL     1      -7.954   3.386 122.574  0.00  0.00    +0.000 C 
ATOM     24  C   UNL     1      -6.834   3.128 121.889  0.00  0.00    +0.000 C 
BRANCH  24  25
ATOM     25  C   UNL     1      -6.554   3.866 120.693  0.00  0.00    +0.000 A 
ATOM     26  C   UNL     1      -5.371   4.594 120.663  0.00  0.00    +0.000 A 
ATOM     27  C   UNL     1      -5.170   5.502 119.638  0.00  0.00    +0.000 A 
ATOM     28  C   UNL     1      -6.108   5.616 118.609  0.00  0.00    +0.000 A 
ATOM     29  C   UNL     1      -7.262   4.834 118.605  0.00  0.00    +0.000 A 
ATOM     30  C   UNL     1      -7.492   3.962 119.655  0.00  0.00    +0.000 A 
ENDBRANCH  24  25
ENDBRANCH  22  23
ENDBRANCH  19  22
ENDBRANCH   1  16
TORSDOF 6
ENDMDL
MODEL 7
REMARK VINA RESULT:      -8.7      6.914     11.539
REMARK  Name = Flunarizine
REMARK  6 active torsions:
REMARK  status: ('A' for Active; 'I' for Inactive)
REMARK    1  A    between atoms: C_5  and  C_8
REMARK    2  A    between atoms: C_8  and  N_9
REMARK    3  A    between atoms: C_8  and  C_24
REMARK    4  A    between atoms: N_12  and  C_13
REMARK    5  A    between atoms: C_13  and  C_14
REMARK    6  A    between atoms: C_15  and  C_16
REMARK                            x       y       z     vdW  Elec       q    Type
REMARK                         _______ _______ _______ _____ _____    ______ ____
ROOT
ATOM      1  C   UNL     1      -9.013   5.158 131.523  0.00  0.00    +0.000 C 
ENDROOT
BRANCH   1   6
ATOM      2  F   UNL     1      -5.442   5.530 135.907  0.00  0.00    +0.000 F 
ATOM      3  C   UNL     1      -6.285   5.696 134.879  0.00  0.00    +0.000 A 
ATOM      4  C   UNL     1      -5.803   5.727 133.581  0.00  0.00    +0.000 A 
ATOM      5  C   UNL     1      -6.696   5.896 132.496  0.00  0.00    +0.000 A 
ATOM      6  C   UNL     1      -8.069   5.653 132.691  0.00  0.00    +0.000 A 
ATOM      7  C   UNL     1      -8.523   5.708 134.029  0.00  0.00    +0.000 A 
ATOM      8  C   UNL     1      -7.641   5.796 135.110  0.00  0.00    +0.000 A 
ENDBRANCH   1   6
BRANCH   1   9
ATOM      9  C   UNL     1     -10.033   6.246 131.083  0.00  0.00    +0.000 A 
ATOM     10  C   UNL     1     -11.287   6.300 131.712  0.00  0.00    +0.000 A 
ATOM     11  C   UNL     1     -12.315   7.073 131.178  0.00  0.00    +0.000 A 
ATOM     12  C   UNL     1     -12.088   7.840 130.043  0.00  0.00    +0.000 A 
ATOM     13  F   UNL     1     -13.082   8.572 129.529  0.00  0.00    +0.000 F 
ATOM     14  C   UNL     1     -10.839   7.879 129.450  0.00  0.00    +0.000 A 
ATOM     15  C   UNL     1      -9.805   7.136 130.010  0.00  0.00    +0.000 A 
ENDBRANCH   1   9
BRANCH   1  16
ATOM     16  N   UNL     1      -9.703   3.828 131.699  0.00  0.00    +0.000 NA
ATOM     17  C   UNL     1      -9.949   3.081 130.452  0.00  0.00    +0.000 C 
ATOM     18  C   UNL     1      -8.727   2.273 129.971  0.00  0.00    +0.000 C 
ATOM     19  N   UNL     1      -7.994   1.492 130.958  0.00  0.00    +0.000 NA
ATOM     20  C   UNL     1      -7.825   2.248 132.212  0.00  0.00    +0.000 C 
ATOM     21  C   UNL     1      -9.112   2.895 132.683  0.00  0.00    +0.000 C 
BRANCH  19  22
ATOM     22  C   UNL     1      -8.738   0.278 131.115  0.00  0.00    +0.000 C 
BRANCH  22  23
ATOM     23  C   UNL     1      -7.791  -0.797 131.401  0.00  0.00    +0.000 C 
ATOM     24  C   UNL     1      -7.912  -1.944 130.724  0.00  0.00    +0.000 C 
BRANCH  24  25
ATOM     25  C   UNL     1      -7.121  -3.076 131.107  0.00  0.00    +0.000 A 
ATOM     26  C   UNL     1      -6.890  -3.253 132.465  0.00  0.00    +0.000 A 
ATOM     27  C   UNL     1      -5.946  -4.182 132.867  0.00  0.00    +0.000 A 
ATOM     28  C   UNL     1      -5.304  -4.983 131.920  0.00  0.00    +0.000 A 
ATOM     29  C   UNL     1      -5.589  -4.851 130.562  0.00  0.00    +0.000 A 
ATOM     30  C   UNL     1      -6.494  -3.888 130.151  0.00  0.00    +0.000 A 
ENDBRANCH  24  25
ENDBRANCH  22  23
ENDBRANCH  19  22
ENDBRANCH   1  16
TORSDOF 6
ENDMDL
MODEL 8
REMARK VINA RESULT:      -8.6      3.223      5.047
REMARK  Name = Flunarizine
REMARK  6 active torsions:
REMARK  status: ('A' for Active; 'I' for Inactive)
REMARK    1  A    between atoms: C_5  and  C_8
REMARK    2  A    between atoms: C_8  and  N_9
REMARK    3  A    between atoms: C_8  and  C_24
REMARK    4  A    between atoms: N_12  and  C_13
REMARK    5  A    between atoms: C_13  and  C_14
REMARK    6  A    between atoms: C_15  and  C_16
REMARK                            x       y       z     vdW  Elec       q    Type
REMARK                         _______ _______ _______ _____ _____    ______ ____
ROOT
ATOM      1  C   UNL     1      -6.508  -1.604 127.233  0.00  0.00    +0.000 C 
ENDROOT
BRANCH   1   6
ATOM      2  F   UNL     1      -9.975  -3.480 123.162  0.00  0.00    +0.000 F 
ATOM      3  C   UNL     1      -9.116  -3.283 124.171  0.00  0.00    +0.000 A 
ATOM      4  C   UNL     1      -7.768  -3.107 123.914  0.00  0.00    +0.000 A 
ATOM      5  C   UNL     1      -6.863  -2.893 124.980  0.00  0.00    +0.000 A 
ATOM      6  C   UNL     1      -7.360  -2.483 126.233  0.00  0.00    +0.000 A 
ATOM      7  C   UNL     1      -8.726  -2.755 126.474  0.00  0.00    +0.000 A 
ATOM      8  C   UNL     1      -9.582  -3.214 125.468  0.00  0.00    +0.000 A 
ENDBRANCH   1   6
BRANCH   1   9
ATOM      9  C   UNL     1      -6.070  -2.397 128.496  0.00  0.00    +0.000 A 
ATOM     10  C   UNL     1      -4.722  -2.760 128.642  0.00  0.00    +0.000 A 
ATOM     11  C   UNL     1      -4.337  -3.685 129.609  0.00  0.00    +0.000 A 
ATOM     12  C   UNL     1      -5.283  -4.217 130.475  0.00  0.00    +0.000 A 
ATOM     13  F   UNL     1      -4.910  -5.113 131.395  0.00  0.00    +0.000 F 
ATOM     14  C   UNL     1      -6.605  -3.814 130.417  0.00  0.00    +0.000 A 
ATOM     15  C   UNL     1      -6.977  -2.861 129.475  0.00  0.00    +0.000 A 
ENDBRANCH   1   9
BRANCH   1  16
ATOM     16  N   UNL     1      -7.062  -0.256 127.623  0.00  0.00    +0.000 NA
ATOM     17  C   UNL     1      -6.311   0.448 128.677  0.00  0.00    +0.000 C 
ATOM     18  C   UNL     1      -5.083   1.216 128.146  0.00  0.00    +0.000 C 
ATOM     19  N   UNL     1      -5.250   2.019 126.943  0.00  0.00    +0.000 NA
ATOM     20  C   UNL     1      -6.060   1.308 125.938  0.00  0.00    +0.000 C 
ATOM     21  C   UNL     1      -7.319   0.702 126.526  0.00  0.00    +0.000 C 
BRANCH  19  22
ATOM     22  C   UNL     1      -5.833   3.252 127.383  0.00  0.00    +0.000 C 
BRANCH  22  23
ATOM     23  C   UNL     1      -5.059   3.732 128.525  0.00  0.00    +0.000 C 
ATOM     24  C   UNL     1      -4.109   4.648 128.305  0.00  0.00    +0.000 C 
BRANCH  24  25
ATOM     25  C   UNL     1      -3.214   5.003 129.366  0.00  0.00    +0.000 A 
ATOM     26  C   UNL     1      -3.291   4.255 130.534  0.00  0.00    +0.000 A 
ATOM     27  C   UNL     1      -2.624   4.703 131.661  0.00  0.00    +0.000 A 
ATOM     28  C   UNL     1      -1.819   5.842 131.592  0.00  0.00    +0.000 A 
ATOM     29  C   UNL     1      -1.687   6.552 130.399  0.00  0.00    +0.000 A 
ATOM     30  C   UNL     1      -2.394   6.138 129.284  0.00  0.00    +0.000 A 
ENDBRANCH  24  25
ENDBRANCH  22  23
ENDBRANCH  19  22
ENDBRANCH   1  16
TORSDOF 6
ENDMDL
MODEL 9
REMARK VINA RESULT:      -8.5      4.500      7.288
REMARK  Name = Flunarizine
REMARK  6 active torsions:
REMARK  status: ('A' for Active; 'I' for Inactive)
REMARK    1  A    between atoms: C_5  and  C_8
REMARK    2  A    between atoms: C_8  and  N_9
REMARK    3  A    between atoms: C_8  and  C_24
REMARK    4  A    between atoms: N_12  and  C_13
REMARK    5  A    between atoms: C_13  and  C_14
REMARK    6  A    between atoms: C_15  and  C_16
REMARK                            x       y       z     vdW  Elec       q    Type
REMARK                         _______ _______ _______ _____ _____    ______ ____
ROOT
ATOM      1  C   UNL     1      -7.156  -0.899 128.670  0.00  0.00    +0.000 C 
ENDROOT
BRANCH   1   6
ATOM      2  F   UNL     1      -5.360  -5.559 131.348  0.00  0.00    +0.000 F 
ATOM      3  C   UNL     1      -5.648  -4.334 130.890  0.00  0.00    +0.000 A 
ATOM      4  C   UNL     1      -4.886  -3.770 129.882  0.00  0.00    +0.000 A 
ATOM      5  C   UNL     1      -5.195  -2.478 129.395  0.00  0.00    +0.000 A 
ATOM      6  C   UNL     1      -6.470  -1.934 129.649  0.00  0.00    +0.000 A 
ATOM      7  C   UNL     1      -7.175  -2.496 130.737  0.00  0.00    +0.000 A 
ATOM      8  C   UNL     1      -6.733  -3.648 131.395  0.00  0.00    +0.000 A 
ENDBRANCH   1   6
BRANCH   1   9
ATOM      9  C   UNL     1      -7.247  -1.431 127.212  0.00  0.00    +0.000 A 
ATOM     10  C   UNL     1      -8.350  -2.215 126.839  0.00  0.00    +0.000 A 
ATOM     11  C   UNL     1      -8.343  -2.924 125.640  0.00  0.00    +0.000 A 
ATOM     12  C   UNL     1      -7.260  -2.815 124.778  0.00  0.00    +0.000 A 
ATOM     13  F   UNL     1      -7.254  -3.505 123.632  0.00  0.00    +0.000 F 
ATOM     14  C   UNL     1      -6.197  -1.982 125.073  0.00  0.00    +0.000 A 
ATOM     15  C   UNL     1      -6.227  -1.246 126.254  0.00  0.00    +0.000 A 
ENDBRANCH   1   9
BRANCH   1  16
ATOM     16  N   UNL     1      -6.641   0.520 128.683  0.00  0.00    +0.000 NA
ATOM     17  C   UNL     1      -7.493   1.500 127.985  0.00  0.00    +0.000 C 
ATOM     18  C   UNL     1      -8.662   2.019 128.848  0.00  0.00    +0.000 C 
ATOM     19  N   UNL     1      -8.376   2.401 130.224  0.00  0.00    +0.000 NA
ATOM     20  C   UNL     1      -7.471   1.432 130.867  0.00  0.00    +0.000 C 
ATOM     21  C   UNL     1      -6.276   1.085 130.000  0.00  0.00    +0.000 C 
BRANCH  19  22
ATOM     22  C   UNL     1      -7.839   3.728 130.149  0.00  0.00    +0.000 C 
BRANCH  22  23
ATOM     23  C   UNL     1      -8.948   4.651 129.925  0.00  0.00    +0.000 C 
ATOM     24  C   UNL     1      -8.967   5.796 130.615  0.00  0.00    +0.000 C 
BRANCH  24  25
ATOM     25  C   UNL     1     -10.127   6.636 130.556  0.00  0.00    +0.000 A 
ATOM     26  C   UNL     1     -11.117   6.411 131.505  0.00  0.00    +0.000 A 
ATOM     27  C   UNL     1     -12.347   7.026 131.347  0.00  0.00    +0.000 A 
ATOM     28  C   UNL     1     -12.552   7.923 130.296  0.00  0.00    +0.000 A 
ATOM     29  C   UNL     1     -11.533   8.200 129.385  0.00  0.00    +0.000 A 
ATOM     30  C   UNL     1     -10.319   7.548 129.509  0.00  0.00    +0.000 A 
ENDBRANCH  24  25
ENDBRANCH  22  23
ENDBRANCH  19  22
ENDBRANCH   1  16
TORSDOF 6
ENDMDL
