MODEL 1
REMARK VINA RESULT:      -8.4      0.000      0.000
REMARK  Name = Flunisolide
REMARK  8 active torsions:
REMARK  status: ('A' for Active; 'I' for Inactive)
REMARK    1  A    between atoms: C_17  and  C_18
REMARK    2  A    between atoms: C_21  and  O_22
REMARK    3  A    between atoms: C_24  and  C_25
REMARK    4  A    between atoms: C_26  and  C_32
REMARK    5  A    between atoms: C_28  and  C_29
REMARK    6  A    between atoms: C_28  and  C_30
REMARK    7  A    between atoms: C_32  and  C_34
REMARK    8  A    between atoms: C_34  and  O_35
REMARK                            x       y       z     vdW  Elec       q    Type
REMARK                         _______ _______ _______ _____ _____    ______ ____
ROOT
ATOM      1  C   UNL     1      -7.169   4.031 130.056  0.00  0.00    +0.000 C 
ATOM      2  C   UNL     1      -8.344   3.604 129.196  0.00  0.00    +0.000 C 
ATOM      3  C   UNL     1      -8.912   2.311 129.855  0.00  0.00    +0.000 C 
ATOM      4  C   UNL     1      -8.106   1.122 129.325  0.00  0.00    +0.000 C 
ATOM      5  C   UNL     1      -7.632   1.043 127.875  0.00  0.00    +0.000 C 
ATOM      6  C   UNL     1      -6.491   0.085 127.860  0.00  0.00    +0.000 C 
ATOM      7  F   UNL     1      -5.944   0.128 126.620  0.00  0.00    +0.000 F 
ATOM      8  C   UNL     1      -7.226  -1.227 128.305  0.00  0.00    +0.000 C 
ATOM      9  C   UNL     1      -7.329  -2.325 127.545  0.00  0.00    +0.000 C 
ATOM     10  C   UNL     1      -5.948  -2.337 127.091  0.00  0.00    +0.000 C 
ATOM     11  O   UNL     1      -5.600  -2.161 125.894  0.00  0.00    +0.000 OA
ATOM     12  C   UNL     1      -5.019  -2.521 128.289  0.00  0.00    +0.000 C 
ATOM     13  C   UNL     1      -5.457  -1.956 129.501  0.00  0.00    +0.000 C 
ATOM     14  C   UNL     1      -7.026  -1.494 129.788  0.00  0.00    +0.000 C 
ATOM     15  C   UNL     1      -7.475  -2.713 130.642  0.00  0.00    +0.000 C 
ATOM     16  C   UNL     1      -8.174  -0.316 130.227  0.00  0.00    +0.000 C 
ATOM     17  C   UNL     1      -8.662  -0.133 131.850  0.00  0.00    +0.000 C 
ATOM     18  C   UNL     1      -9.584   1.135 131.952  0.00  0.00    +0.000 C 
ATOM     19  C   UNL     1      -8.960   2.553 131.493  0.00  0.00    +0.000 C 
ATOM     20  C   UNL     1      -8.259   2.486 132.952  0.00  0.00    +0.000 C 
ATOM     21  C   UNL     1      -7.761   3.835 131.439  0.00  0.00    +0.000 C 
ATOM     22  O   UNL     1      -6.400   3.513 132.092  0.00  0.00    +0.000 OA
ATOM     23  C   UNL     1      -5.694   2.547 131.255  0.00  0.00    +0.000 C 
ATOM     24  C   UNL     1      -4.414   1.789 131.764  0.00  0.00    +0.000 C 
ATOM     25  C   UNL     1      -6.219   1.128 131.123  0.00  0.00    +0.000 C 
ATOM     26  O   UNL     1      -5.900   3.171 129.967  0.00  0.00    +0.000 OA
ENDROOT
BRANCH  17  27
ATOM     27  O   UNL     1      -7.705  -0.264 132.932  0.00  0.00    +0.000 OA
ATOM     28  H   UNL     1      -7.895  -0.920 133.625  0.00  0.00    +0.000 HD
ENDBRANCH  17  27
BRANCH  21  29
ATOM     29  C   UNL     1      -9.048   4.814 132.039  0.00  0.00    +0.000 C 
ATOM     30  O   UNL     1     -10.091   5.018 131.371  0.00  0.00    +0.000 OA
BRANCH  29  31
ATOM     31  C   UNL     1      -8.911   5.800 133.158  0.00  0.00    +0.000 C 
BRANCH  31  32
ATOM     32  O   UNL     1     -10.144   6.548 133.259  0.00  0.00    +0.000 OA
ATOM     33  H   UNL     1     -10.585   6.293 134.098  0.00  0.00    +0.000 HD
ENDBRANCH  31  32
ENDBRANCH  29  31
ENDBRANCH  21  29
TORSDOF 4
ENDMDL
MODEL 2
REMARK VINA RESULT:      -8.3      3.798      6.629
REMARK  Name = Flunisolide
REMARK  8 active torsions:
REMARK  status: ('A' for Active; 'I' for Inactive)
REMARK    1  A    between atoms: C_17  and  C_18
REMARK    2  A    between atoms: C_21  and  O_22
REMARK    3  A    between atoms: C_24  and  C_25
REMARK    4  A    between atoms: C_26  and  C_32
REMARK    5  A    between atoms: C_28  and  C_29
REMARK    6  A    between atoms: C_28  and  C_30
REMARK    7  A    between atoms: C_32  and  C_34
REMARK    8  A    between atoms: C_34  and  O_35
REMARK                            x       y       z     vdW  Elec       q    Type
REMARK                         _______ _______ _______ _____ _____    ______ ____
ROOT
ATOM      1  C   UNL     1      -4.331   6.302 129.852  0.00  0.00    +0.000 C 
ATOM      2  C   UNL     1      -5.021   7.474 130.524  0.00  0.00    +0.000 C 
ATOM      3  C   UNL     1      -5.607   6.922 131.858  0.00  0.00    +0.000 C 
ATOM      4  C   UNL     1      -6.974   6.306 131.551  0.00  0.00    +0.000 C 
ATOM      5  C   UNL     1      -7.940   6.932 130.545  0.00  0.00    +0.000 C 
ATOM      6  C   UNL     1      -8.867   5.844 130.124  0.00  0.00    +0.000 C 
ATOM      7  F   UNL     1      -9.621   6.328 129.107  0.00  0.00    +0.000 F 
ATOM      8  C   UNL     1      -9.570   5.535 131.491  0.00  0.00    +0.000 C 
ATOM      9  C   UNL     1     -10.879   5.695 131.715  0.00  0.00    +0.000 C 
ATOM     10  C   UNL     1     -11.331   5.097 130.469  0.00  0.00    +0.000 C 
ATOM     11  O   UNL     1     -11.928   5.732 129.560  0.00  0.00    +0.000 OA
ATOM     12  C   UNL     1     -10.904   3.631 130.423  0.00  0.00    +0.000 C 
ATOM     13  C   UNL     1      -9.691   3.322 131.066  0.00  0.00    +0.000 C 
ATOM     14  C   UNL     1      -8.951   4.321 132.166  0.00  0.00    +0.000 C 
ATOM     15  C   UNL     1      -9.378   3.589 133.469  0.00  0.00    +0.000 C 
ATOM     16  C   UNL     1      -7.600   5.214 132.692  0.00  0.00    +0.000 C 
ATOM     17  C   UNL     1      -6.450   4.523 133.742  0.00  0.00    +0.000 C 
ATOM     18  C   UNL     1      -5.250   5.526 133.897  0.00  0.00    +0.000 C 
ATOM     19  C   UNL     1      -4.457   5.957 132.557  0.00  0.00    +0.000 C 
ATOM     20  C   UNL     1      -3.755   4.510 132.752  0.00  0.00    +0.000 C 
ATOM     21  C   UNL     1      -3.611   5.695 131.041  0.00  0.00    +0.000 C 
ATOM     22  O   UNL     1      -3.667   4.259 130.476  0.00  0.00    +0.000 OA
ATOM     23  C   UNL     1      -5.021   3.996 129.996  0.00  0.00    +0.000 C 
ATOM     24  C   UNL     1      -5.501   2.545 129.626  0.00  0.00    +0.000 C 
ATOM     25  C   UNL     1      -6.172   3.893 130.982  0.00  0.00    +0.000 C 
ATOM     26  O   UNL     1      -5.238   5.217 129.254  0.00  0.00    +0.000 OA
ENDROOT
BRANCH  17  27
ATOM     27  O   UNL     1      -6.051   3.135 133.596  0.00  0.00    +0.000 OA
ATOM     28  H   UNL     1      -6.184   2.717 132.728  0.00  0.00    +0.000 HD
ENDBRANCH  17  27
BRANCH  21  29
ATOM     29  C   UNL     1      -2.309   6.497 131.839  0.00  0.00    +0.000 C 
ATOM     30  O   UNL     1      -2.273   7.746 131.954  0.00  0.00    +0.000 OA
BRANCH  29  31
ATOM     31  C   UNL     1      -0.968   5.883 132.100  0.00  0.00    +0.000 C 
BRANCH  31  32
ATOM     32  O   UNL     1      -0.011   6.947 132.300  0.00  0.00    +0.000 OA
ATOM     33  H   UNL     1      -0.288   7.711 131.750  0.00  0.00    +0.000 HD
ENDBRANCH  31  32
ENDBRANCH  29  31
ENDBRANCH  21  29
TORSDOF 4
ENDMDL
MODEL 3
REMARK VINA RESULT:      -8.1      4.289      7.524
REMARK  Name = Flunisolide
REMARK  8 active torsions:
REMARK  status: ('A' for Active; 'I' for Inactive)
REMARK    1  A    between atoms: C_17  and  C_18
REMARK    2  A    between atoms: C_21  and  O_22
REMARK    3  A    between atoms: C_24  and  C_25
REMARK    4  A    between atoms: C_26  and  C_32
REMARK    5  A    between atoms: C_28  and  C_29
REMARK    6  A    between atoms: C_28  and  C_30
REMARK    7  A    between atoms: C_32  and  C_34
REMARK    8  A    between atoms: C_34  and  O_35
REMARK                            x       y       z     vdW  Elec       q    Type
REMARK                         _______ _______ _______ _____ _____    ______ ____
ROOT
ATOM      1  C   UNL     1      -6.315   2.846 133.829  0.00  0.00    +0.000 C 
ATOM      2  C   UNL     1      -6.620   4.077 134.661  0.00  0.00    +0.000 C 
ATOM      3  C   UNL     1      -6.721   5.262 133.654  0.00  0.00    +0.000 C 
ATOM      4  C   UNL     1      -5.307   5.791 133.409  0.00  0.00    +0.000 C 
ATOM      5  C   UNL     1      -4.268   5.883 134.526  0.00  0.00    +0.000 C 
ATOM      6  C   UNL     1      -2.937   5.919 133.856  0.00  0.00    +0.000 C 
ATOM      7  F   UNL     1      -1.995   5.825 134.826  0.00  0.00    +0.000 F 
ATOM      8  C   UNL     1      -3.062   7.267 133.066  0.00  0.00    +0.000 C 
ATOM      9  C   UNL     1      -2.278   8.333 133.271  0.00  0.00    +0.000 C 
ATOM     10  C   UNL     1      -1.024   7.600 133.340  0.00  0.00    +0.000 C 
ATOM     11  O   UNL     1      -0.315   7.518 134.378  0.00  0.00    +0.000 OA
ATOM     12  C   UNL     1      -0.762   6.908 132.005  0.00  0.00    +0.000 C 
ATOM     13  C   UNL     1      -1.901   6.479 131.299  0.00  0.00    +0.000 C 
ATOM     14  C   UNL     1      -3.439   7.021 131.614  0.00  0.00    +0.000 C 
ATOM     15  C   UNL     1      -3.572   8.034 130.442  0.00  0.00    +0.000 C 
ATOM     16  C   UNL     1      -5.068   6.729 132.012  0.00  0.00    +0.000 C 
ATOM     17  C   UNL     1      -6.243   6.530 130.794  0.00  0.00    +0.000 C 
ATOM     18  C   UNL     1      -7.595   6.104 131.472  0.00  0.00    +0.000 C 
ATOM     19  C   UNL     1      -7.599   4.746 132.348  0.00  0.00    +0.000 C 
ATOM     20  C   UNL     1      -7.681   4.047 130.888  0.00  0.00    +0.000 C 
ATOM     21  C   UNL     1      -7.281   3.051 132.678  0.00  0.00    +0.000 C 
ATOM     22  O   UNL     1      -6.384   2.321 131.655  0.00  0.00    +0.000 OA
ATOM     23  C   UNL     1      -5.016   2.810 131.798  0.00  0.00    +0.000 C 
ATOM     24  C   UNL     1      -3.907   2.494 130.728  0.00  0.00    +0.000 C 
ATOM     25  C   UNL     1      -4.674   4.239 131.413  0.00  0.00    +0.000 C 
ATOM     26  O   UNL     1      -4.901   2.745 133.237  0.00  0.00    +0.000 OA
ENDROOT
BRANCH  17  27
ATOM     27  O   UNL     1      -5.934   5.806 129.575  0.00  0.00    +0.000 OA
ATOM     28  H   UNL     1      -5.216   6.150 129.016  0.00  0.00    +0.000 HD
ENDBRANCH  17  27
BRANCH  21  29
ATOM     29  C   UNL     1      -8.992   2.959 132.881  0.00  0.00    +0.000 C 
ATOM     30  O   UNL     1      -9.568   3.468 133.873  0.00  0.00    +0.000 OA
BRANCH  29  31
ATOM     31  C   UNL     1      -9.877   1.978 132.176  0.00  0.00    +0.000 C 
BRANCH  31  32
ATOM     32  O   UNL     1     -10.848   2.717 131.401  0.00  0.00    +0.000 OA
ATOM     33  H   UNL     1     -10.654   2.569 130.450  0.00  0.00    +0.000 HD
ENDBRANCH  31  32
ENDBRANCH  29  31
ENDBRANCH  21  29
TORSDOF 4
ENDMDL
MODEL 4
REMARK VINA RESULT:      -7.9      3.328      5.392
REMARK  Name = Flunisolide
REMARK  8 active torsions:
REMARK  status: ('A' for Active; 'I' for Inactive)
REMARK    1  A    between atoms: C_17  and  C_18
REMARK    2  A    between atoms: C_21  and  O_22
REMARK    3  A    between atoms: C_24  and  C_25
REMARK    4  A    between atoms: C_26  and  C_32
REMARK    5  A    between atoms: C_28  and  C_29
REMARK    6  A    between atoms: C_28  and  C_30
REMARK    7  A    between atoms: C_32  and  C_34
REMARK    8  A    between atoms: C_34  and  O_35
REMARK                            x       y       z     vdW  Elec       q    Type
REMARK                         _______ _______ _______ _____ _____    ______ ____
ROOT
ATOM      1  C   UNL     1      -4.719   2.158 128.443  0.00  0.00    +0.000 C 
ATOM      2  C   UNL     1      -3.919   1.940 127.173  0.00  0.00    +0.000 C 
ATOM      3  C   UNL     1      -4.856   2.353 125.998  0.00  0.00    +0.000 C 
ATOM      4  C   UNL     1      -5.726   1.144 125.646  0.00  0.00    +0.000 C 
ATOM      5  C   UNL     1      -5.181  -0.283 125.664  0.00  0.00    +0.000 C 
ATOM      6  C   UNL     1      -6.363  -1.180 125.797  0.00  0.00    +0.000 C 
ATOM      7  F   UNL     1      -5.895  -2.438 125.989  0.00  0.00    +0.000 F 
ATOM      8  C   UNL     1      -7.107  -0.858 124.454  0.00  0.00    +0.000 C 
ATOM      9  C   UNL     1      -7.333  -1.756 123.487  0.00  0.00    +0.000 C 
ATOM     10  C   UNL     1      -7.768  -2.832 124.364  0.00  0.00    +0.000 C 
ATOM     11  O   UNL     1      -7.138  -3.912 124.516  0.00  0.00    +0.000 OA
ATOM     12  C   UNL     1      -9.036  -2.409 125.101  0.00  0.00    +0.000 C 
ATOM     13  C   UNL     1      -9.147  -1.038 125.401  0.00  0.00    +0.000 C 
ATOM     14  C   UNL     1      -8.231   0.141 124.674  0.00  0.00    +0.000 C 
ATOM     15  C   UNL     1      -9.292   0.672 123.669  0.00  0.00    +0.000 C 
ATOM     16  C   UNL     1      -7.146   1.449 124.764  0.00  0.00    +0.000 C 
ATOM     17  C   UNL     1      -7.715   3.054 124.837  0.00  0.00    +0.000 C 
ATOM     18  C   UNL     1      -6.491   4.006 125.088  0.00  0.00    +0.000 C 
ATOM     19  C   UNL     1      -5.615   3.762 126.424  0.00  0.00    +0.000 C 
ATOM     20  C   UNL     1      -6.844   4.548 127.128  0.00  0.00    +0.000 C 
ATOM     21  C   UNL     1      -5.346   3.506 128.140  0.00  0.00    +0.000 C 
ATOM     22  O   UNL     1      -6.607   3.228 128.987  0.00  0.00    +0.000 OA
ATOM     23  C   UNL     1      -7.105   1.895 128.663  0.00  0.00    +0.000 C 
ATOM     24  C   UNL     1      -8.527   1.408 129.125  0.00  0.00    +0.000 C 
ATOM     25  C   UNL     1      -7.693   1.614 127.290  0.00  0.00    +0.000 C 
ATOM     26  O   UNL     1      -5.858   1.167 128.721  0.00  0.00    +0.000 OA
ENDROOT
BRANCH  17  27
ATOM     27  O   UNL     1      -8.898   3.387 125.610  0.00  0.00    +0.000 OA
ATOM     28  H   UNL     1      -9.588   2.707 125.695  0.00  0.00    +0.000 HD
ENDBRANCH  17  27
BRANCH  21  29
ATOM     29  C   UNL     1      -4.413   4.952 128.024  0.00  0.00    +0.000 C 
ATOM     30  O   UNL     1      -3.471   5.067 127.203  0.00  0.00    +0.000 OA
BRANCH  29  31
ATOM     31  C   UNL     1      -4.347   6.005 129.087  0.00  0.00    +0.000 C 
BRANCH  31  32
ATOM     32  O   UNL     1      -4.057   7.272 128.456  0.00  0.00    +0.000 OA
ATOM     33  H   UNL     1      -4.340   7.215 127.517  0.00  0.00    +0.000 HD
ENDBRANCH  31  32
ENDBRANCH  29  31
ENDBRANCH  21  29
TORSDOF 4
ENDMDL
MODEL 5
REMARK VINA RESULT:      -7.9      2.863      4.646
REMARK  Name = Flunisolide
REMARK  8 active torsions:
REMARK  status: ('A' for Active; 'I' for Inactive)
REMARK    1  A    between atoms: C_17  and  C_18
REMARK    2  A    between atoms: C_21  and  O_22
REMARK    3  A    between atoms: C_24  and  C_25
REMARK    4  A    between atoms: C_26  and  C_32
REMARK    5  A    between atoms: C_28  and  C_29
REMARK    6  A    between atoms: C_28  and  C_30
REMARK    7  A    between atoms: C_32  and  C_34
REMARK    8  A    between atoms: C_34  and  O_35
REMARK                            x       y       z     vdW  Elec       q    Type
REMARK                         _______ _______ _______ _____ _____    ______ ____
ROOT
ATOM      1  C   UNL     1     -10.288   3.874 130.428  0.00  0.00    +0.000 C 
ATOM      2  C   UNL     1     -10.013   3.517 131.876  0.00  0.00    +0.000 C 
ATOM      3  C   UNL     1      -8.678   4.227 132.249  0.00  0.00    +0.000 C 
ATOM      4  C   UNL     1      -7.526   3.318 131.817  0.00  0.00    +0.000 C 
ATOM      5  C   UNL     1      -7.595   1.797 131.955  0.00  0.00    +0.000 C 
ATOM      6  C   UNL     1      -6.597   1.246 130.995  0.00  0.00    +0.000 C 
ATOM      7  F   UNL     1      -6.761  -0.100 130.973  0.00  0.00    +0.000 F 
ATOM      8  C   UNL     1      -5.275   1.826 131.606  0.00  0.00    +0.000 C 
ATOM      9  C   UNL     1      -4.278   1.074 132.090  0.00  0.00    +0.000 C 
ATOM     10  C   UNL     1      -4.260   0.110 131.001  0.00  0.00    +0.000 C 
ATOM     11  O   UNL     1      -4.559  -1.106 131.134  0.00  0.00    +0.000 OA
ATOM     12  C   UNL     1      -3.901   0.819 129.697  0.00  0.00    +0.000 C 
ATOM     13  C   UNL     1      -4.339   2.151 129.579  0.00  0.00    +0.000 C 
ATOM     14  C   UNL     1      -4.830   3.077 130.867  0.00  0.00    +0.000 C 
ATOM     15  C   UNL     1      -3.541   3.926 131.048  0.00  0.00    +0.000 C 
ATOM     16  C   UNL     1      -5.997   4.039 131.649  0.00  0.00    +0.000 C 
ATOM     17  C   UNL     1      -6.011   5.732 131.449  0.00  0.00    +0.000 C 
ATOM     18  C   UNL     1      -7.297   6.305 132.147  0.00  0.00    +0.000 C 
ATOM     19  C   UNL     1      -8.731   5.764 131.635  0.00  0.00    +0.000 C 
ATOM     20  C   UNL     1      -8.466   6.814 130.429  0.00  0.00    +0.000 C 
ATOM     21  C   UNL     1      -9.959   5.355 130.448  0.00  0.00    +0.000 C 
ATOM     22  O   UNL     1      -9.507   5.382 128.972  0.00  0.00    +0.000 OA
ATOM     23  C   UNL     1      -8.616   4.251 128.733  0.00  0.00    +0.000 C 
ATOM     24  C   UNL     1      -7.750   4.141 127.425  0.00  0.00    +0.000 C 
ATOM     25  C   UNL     1      -7.244   4.211 129.385  0.00  0.00    +0.000 C 
ATOM     26  O   UNL     1      -9.392   3.213 129.372  0.00  0.00    +0.000 OA
ENDROOT
BRANCH  17  27
ATOM     27  O   UNL     1      -5.716   6.330 130.160  0.00  0.00    +0.000 OA
ATOM     28  H   UNL     1      -4.792   6.570 129.976  0.00  0.00    +0.000 HD
ENDBRANCH  17  27
BRANCH  21  29
ATOM     29  C   UNL     1     -10.915   6.501 131.312  0.00  0.00    +0.000 C 
ATOM     30  O   UNL     1     -10.964   6.511 132.566  0.00  0.00    +0.000 OA
BRANCH  29  31
ATOM     31  C   UNL     1     -12.039   7.290 130.713  0.00  0.00    +0.000 C 
BRANCH  31  32
ATOM     32  O   UNL     1     -13.183   7.192 131.591  0.00  0.00    +0.000 OA
ATOM     33  H   UNL     1     -13.710   6.411 131.317  0.00  0.00    +0.000 HD
ENDBRANCH  31  32
ENDBRANCH  29  31
ENDBRANCH  21  29
TORSDOF 4
ENDMDL
MODEL 6
REMARK VINA RESULT:      -7.8      3.515      6.552
REMARK  Name = Flunisolide
REMARK  8 active torsions:
REMARK  status: ('A' for Active; 'I' for Inactive)
REMARK    1  A    between atoms: C_17  and  C_18
REMARK    2  A    between atoms: C_21  and  O_22
REMARK    3  A    between atoms: C_24  and  C_25
REMARK    4  A    between atoms: C_26  and  C_32
REMARK    5  A    between atoms: C_28  and  C_29
REMARK    6  A    between atoms: C_28  and  C_30
REMARK    7  A    between atoms: C_32  and  C_34
REMARK    8  A    between atoms: C_34  and  O_35
REMARK                            x       y       z     vdW  Elec       q    Type
REMARK                         _______ _______ _______ _____ _____    ______ ____
ROOT
ATOM      1  C   UNL     1      -8.491   3.389 125.222  0.00  0.00    +0.000 C 
ATOM      2  C   UNL     1      -7.938   4.492 126.105  0.00  0.00    +0.000 C 
ATOM      3  C   UNL     1      -6.713   3.877 126.845  0.00  0.00    +0.000 C 
ATOM      4  C   UNL     1      -7.231   3.154 128.090  0.00  0.00    +0.000 C 
ATOM      5  C   UNL     1      -8.378   3.708 128.934  0.00  0.00    +0.000 C 
ATOM      6  C   UNL     1      -8.938   2.551 129.688  0.00  0.00    +0.000 C 
ATOM      7  F   UNL     1     -10.063   2.982 130.310  0.00  0.00    +0.000 F 
ATOM      8  C   UNL     1      -7.699   2.169 130.569  0.00  0.00    +0.000 C 
ATOM      9  C   UNL     1      -7.685   2.217 131.907  0.00  0.00    +0.000 C 
ATOM     10  C   UNL     1      -8.986   1.597 132.104  0.00  0.00    +0.000 C 
ATOM     11  O   UNL     1      -9.979   2.190 132.602  0.00  0.00    +0.000 OA
ATOM     12  C   UNL     1      -8.961   0.173 131.554  0.00  0.00    +0.000 C 
ATOM     13  C   UNL     1      -8.134  -0.041 130.436  0.00  0.00    +0.000 C 
ATOM     14  C   UNL     1      -6.933   1.004 129.965  0.00  0.00    +0.000 C 
ATOM     15  C   UNL     1      -5.713   0.223 130.530  0.00  0.00    +0.000 C 
ATOM     16  C   UNL     1      -6.201   2.000 128.794  0.00  0.00    +0.000 C 
ATOM     17  C   UNL     1      -4.981   1.395 127.770  0.00  0.00    +0.000 C 
ATOM     18  C   UNL     1      -4.640   2.493 126.699  0.00  0.00    +0.000 C 
ATOM     19  C   UNL     1      -5.839   3.004 125.743  0.00  0.00    +0.000 C 
ATOM     20  C   UNL     1      -5.532   1.618 124.961  0.00  0.00    +0.000 C 
ATOM     21  C   UNL     1      -7.202   2.831 124.649  0.00  0.00    +0.000 C 
ATOM     22  O   UNL     1      -7.765   1.402 124.495  0.00  0.00    +0.000 OA
ATOM     23  C   UNL     1      -8.453   1.033 125.728  0.00  0.00    +0.000 C 
ATOM     24  C   UNL     1      -8.891  -0.449 126.020  0.00  0.00    +0.000 C 
ATOM     25  C   UNL     1      -7.661   0.822 127.008  0.00  0.00    +0.000 C 
ATOM     26  O   UNL     1      -9.222   2.240 125.928  0.00  0.00    +0.000 OA
ENDROOT
BRANCH  17  27
ATOM     27  O   UNL     1      -5.060   0.047 127.237  0.00  0.00    +0.000 OA
ATOM     28  H   UNL     1      -4.659  -0.668 127.760  0.00  0.00    +0.000 HD
ENDBRANCH  17  27
BRANCH  21  29
ATOM     29  C   UNL     1      -6.209   3.730 123.562  0.00  0.00    +0.000 C 
ATOM     30  O   UNL     1      -5.787   4.877 123.846  0.00  0.00    +0.000 OA
BRANCH  29  31
ATOM     31  C   UNL     1      -6.087   3.447 122.096  0.00  0.00    +0.000 C 
BRANCH  31  32
ATOM     32  O   UNL     1      -7.309   3.866 121.448  0.00  0.00    +0.000 OA
ATOM     33  H   UNL     1      -7.619   3.128 120.881  0.00  0.00    +0.000 HD
ENDBRANCH  31  32
ENDBRANCH  29  31
ENDBRANCH  21  29
TORSDOF 4
ENDMDL
MODEL 7
REMARK VINA RESULT:      -7.8      2.631      4.143
REMARK  Name = Flunisolide
REMARK  8 active torsions:
REMARK  status: ('A' for Active; 'I' for Inactive)
REMARK    1  A    between atoms: C_17  and  C_18
REMARK    2  A    between atoms: C_21  and  O_22
REMARK    3  A    between atoms: C_24  and  C_25
REMARK    4  A    between atoms: C_26  and  C_32
REMARK    5  A    between atoms: C_28  and  C_29
REMARK    6  A    between atoms: C_28  and  C_30
REMARK    7  A    between atoms: C_32  and  C_34
REMARK    8  A    between atoms: C_34  and  O_35
REMARK                            x       y       z     vdW  Elec       q    Type
REMARK                         _______ _______ _______ _____ _____    ______ ____
ROOT
ATOM      1  C   UNL     1      -6.228   1.339 126.162  0.00  0.00    +0.000 C 
ATOM      2  C   UNL     1      -7.455   0.450 126.093  0.00  0.00    +0.000 C 
ATOM      3  C   UNL     1      -8.210   0.653 127.441  0.00  0.00    +0.000 C 
ATOM      4  C   UNL     1      -7.594  -0.296 128.471  0.00  0.00    +0.000 C 
ATOM      5  C   UNL     1      -7.140  -1.709 128.105  0.00  0.00    +0.000 C 
ATOM      6  C   UNL     1      -6.156  -2.114 129.149  0.00  0.00    +0.000 C 
ATOM      7  F   UNL     1      -5.611  -3.291 128.753  0.00  0.00    +0.000 F 
ATOM      8  C   UNL     1      -7.080  -2.109 130.416  0.00  0.00    +0.000 C 
ATOM      9  C   UNL     1      -7.349  -3.194 131.154  0.00  0.00    +0.000 C 
ATOM     10  C   UNL     1      -5.986  -3.698 131.201  0.00  0.00    +0.000 C 
ATOM     11  O   UNL     1      -5.617  -4.779 130.670  0.00  0.00    +0.000 OA
ATOM     12  C   UNL     1      -5.093  -2.689 131.919  0.00  0.00    +0.000 C 
ATOM     13  C   UNL     1      -5.439  -1.335 131.757  0.00  0.00    +0.000 C 
ATOM     14  C   UNL     1      -6.920  -0.822 131.208  0.00  0.00    +0.000 C 
ATOM     15  C   UNL     1      -7.545  -0.417 132.573  0.00  0.00    +0.000 C 
ATOM     16  C   UNL     1      -7.876   0.057 130.108  0.00  0.00    +0.000 C 
ATOM     17  C   UNL     1      -8.328   1.667 130.436  0.00  0.00    +0.000 C 
ATOM     18  C   UNL     1      -9.048   2.251 129.167  0.00  0.00    +0.000 C 
ATOM     19  C   UNL     1      -8.218   2.274 127.780  0.00  0.00    +0.000 C 
ATOM     20  C   UNL     1      -7.533   3.581 128.449  0.00  0.00    +0.000 C 
ATOM     21  C   UNL     1      -6.840   2.600 126.742  0.00  0.00    +0.000 C 
ATOM     22  O   UNL     1      -5.542   3.027 127.459  0.00  0.00    +0.000 OA
ATOM     23  C   UNL     1      -4.991   1.872 128.162  0.00  0.00    +0.000 C 
ATOM     24  C   UNL     1      -3.839   2.019 129.222  0.00  0.00    +0.000 C 
ATOM     25  C   UNL     1      -5.724   1.288 129.358  0.00  0.00    +0.000 C 
ATOM     26  O   UNL     1      -5.103   0.891 127.106  0.00  0.00    +0.000 OA
ENDROOT
BRANCH  17  27
ATOM     27  O   UNL     1      -7.400   2.586 131.069  0.00  0.00    +0.000 OA
ATOM     28  H   UNL     1      -6.986   3.265 130.509  0.00  0.00    +0.000 HD
ENDBRANCH  17  27
BRANCH  21  29
ATOM     29  C   UNL     1      -7.964   3.569 125.863  0.00  0.00    +0.000 C 
ATOM     30  O   UNL     1      -8.898   3.060 125.197  0.00  0.00    +0.000 OA
BRANCH  29  31
ATOM     31  C   UNL     1      -7.730   4.997 125.477  0.00  0.00    +0.000 C 
BRANCH  31  32
ATOM     32  O   UNL     1      -8.925   5.753 125.780  0.00  0.00    +0.000 OA
ATOM     33  H   UNL     1      -9.700   5.203 125.536  0.00  0.00    +0.000 HD
ENDBRANCH  31  32
ENDBRANCH  29  31
ENDBRANCH  21  29
TORSDOF 4
ENDMDL
MODEL 8
REMARK VINA RESULT:      -7.8      1.757      2.125
REMARK  Name = Flunisolide
REMARK  8 active torsions:
REMARK  status: ('A' for Active; 'I' for Inactive)
REMARK    1  A    between atoms: C_17  and  C_18
REMARK    2  A    between atoms: C_21  and  O_22
REMARK    3  A    between atoms: C_24  and  C_25
REMARK    4  A    between atoms: C_26  and  C_32
REMARK    5  A    between atoms: C_28  and  C_29
REMARK    6  A    between atoms: C_28  and  C_30
REMARK    7  A    between atoms: C_32  and  C_34
REMARK    8  A    between atoms: C_34  and  O_35
REMARK                            x       y       z     vdW  Elec       q    Type
REMARK                         _______ _______ _______ _____ _____    ______ ____
ROOT
ATOM      1  C   UNL     1      -6.878   4.016 128.759  0.00  0.00    +0.000 C 
ATOM      2  C   UNL     1      -7.870   3.161 127.993  0.00  0.00    +0.000 C 
ATOM      3  C   UNL     1      -8.704   2.402 129.068  0.00  0.00    +0.000 C 
ATOM      4  C   UNL     1      -7.931   1.140 129.457  0.00  0.00    +0.000 C 
ATOM      5  C   UNL     1      -7.157   0.313 128.431  0.00  0.00    +0.000 C 
ATOM      6  C   UNL     1      -6.149  -0.470 129.201  0.00  0.00    +0.000 C 
ATOM      7  F   UNL     1      -5.338  -1.078 128.301  0.00  0.00    +0.000 F 
ATOM      8  C   UNL     1      -7.100  -1.364 130.071  0.00  0.00    +0.000 C 
ATOM      9  C   UNL     1      -7.147  -2.700 130.001  0.00  0.00    +0.000 C 
ATOM     10  C   UNL     1      -5.708  -2.911 129.976  0.00  0.00    +0.000 C 
ATOM     11  O   UNL     1      -5.085  -3.390 128.992  0.00  0.00    +0.000 OA
ATOM     12  C   UNL     1      -5.095  -2.399 131.277  0.00  0.00    +0.000 C 
ATOM     13  C   UNL     1      -5.731  -1.288 131.862  0.00  0.00    +0.000 C 
ATOM     14  C   UNL     1      -7.266  -0.792 131.469  0.00  0.00    +0.000 C 
ATOM     15  C   UNL     1      -8.020  -1.380 132.695  0.00  0.00    +0.000 C 
ATOM     16  C   UNL     1      -8.351   0.403 130.929  0.00  0.00    +0.000 C 
ATOM     17  C   UNL     1      -9.167   1.408 132.037  0.00  0.00    +0.000 C 
ATOM     18  C   UNL     1      -9.948   2.507 131.230  0.00  0.00    +0.000 C 
ATOM     19  C   UNL     1      -9.090   3.479 130.265  0.00  0.00    +0.000 C 
ATOM     20  C   UNL     1      -8.744   4.223 131.663  0.00  0.00    +0.000 C 
ATOM     21  C   UNL     1      -7.781   4.570 129.844  0.00  0.00    +0.000 C 
ATOM     22  O   UNL     1      -6.642   4.688 130.879  0.00  0.00    +0.000 OA
ATOM     23  C   UNL     1      -5.874   3.447 130.875  0.00  0.00    +0.000 C 
ATOM     24  C   UNL     1      -4.828   3.116 132.002  0.00  0.00    +0.000 C 
ATOM     25  C   UNL     1      -6.503   2.160 131.383  0.00  0.00    +0.000 C 
ATOM     26  O   UNL     1      -5.720   3.280 129.448  0.00  0.00    +0.000 OA
ENDROOT
BRANCH  17  27
ATOM     27  O   UNL     1      -8.495   1.905 133.223  0.00  0.00    +0.000 OA
ATOM     28  H   UNL     1      -7.522   1.921 133.217  0.00  0.00    +0.000 HD
ENDBRANCH  17  27
BRANCH  21  29
ATOM     29  C   UNL     1      -9.058   5.679 129.505  0.00  0.00    +0.000 C 
ATOM     30  O   UNL     1      -9.630   5.708 128.388  0.00  0.00    +0.000 OA
BRANCH  29  31
ATOM     31  C   UNL     1      -9.333   6.922 130.295  0.00  0.00    +0.000 C 
BRANCH  31  32
ATOM     32  O   UNL     1      -9.475   8.026 129.372  0.00  0.00    +0.000 OA
ATOM     33  H   UNL     1      -8.607   8.479 129.306  0.00  0.00    +0.000 HD
ENDBRANCH  31  32
ENDBRANCH  29  31
ENDBRANCH  21  29
TORSDOF 4
ENDMDL
MODEL 9
REMARK VINA RESULT:      -7.7      3.794      5.919
REMARK  Name = Flunisolide
REMARK  8 active torsions:
REMARK  status: ('A' for Active; 'I' for Inactive)
REMARK    1  A    between atoms: C_17  and  C_18
REMARK    2  A    between atoms: C_21  and  O_22
REMARK    3  A    between atoms: C_24  and  C_25
REMARK    4  A    between atoms: C_26  and  C_32
REMARK    5  A    between atoms: C_28  and  C_29
REMARK    6  A    between atoms: C_28  and  C_30
REMARK    7  A    between atoms: C_32  and  C_34
REMARK    8  A    between atoms: C_34  and  O_35
REMARK                            x       y       z     vdW  Elec       q    Type
REMARK                         _______ _______ _______ _____ _____    ______ ____
ROOT
ATOM      1  C   UNL     1      -9.109   5.978 132.328  0.00  0.00    +0.000 C 
ATOM      2  C   UNL     1      -8.708   6.841 131.147  0.00  0.00    +0.000 C 
ATOM      3  C   UNL     1      -8.033   5.881 130.122  0.00  0.00    +0.000 C 
ATOM      4  C   UNL     1      -6.559   5.744 130.508  0.00  0.00    +0.000 C 
ATOM      5  C   UNL     1      -5.743   6.925 131.034  0.00  0.00    +0.000 C 
ATOM      6  C   UNL     1      -4.590   6.339 131.774  0.00  0.00    +0.000 C 
ATOM      7  F   UNL     1      -3.949   7.359 132.396  0.00  0.00    +0.000 F 
ATOM      8  C   UNL     1      -3.856   5.600 130.603  0.00  0.00    +0.000 C 
ATOM      9  C   UNL     1      -2.618   5.897 130.186  0.00  0.00    +0.000 C 
ATOM     10  C   UNL     1      -2.026   6.011 131.510  0.00  0.00    +0.000 C 
ATOM     11  O   UNL     1      -1.574   7.085 131.987  0.00  0.00    +0.000 OA
ATOM     12  C   UNL     1      -2.113   4.666 132.226  0.00  0.00    +0.000 C 
ATOM     13  C   UNL     1      -3.236   3.875 131.918  0.00  0.00    +0.000 C 
ATOM     14  C   UNL     1      -4.197   4.119 130.586  0.00  0.00    +0.000 C 
ATOM     15  C   UNL     1      -3.635   2.985 129.683  0.00  0.00    +0.000 C 
ATOM     16  C   UNL     1      -5.720   4.406 129.882  0.00  0.00    +0.000 C 
ATOM     17  C   UNL     1      -6.702   3.112 129.365  0.00  0.00    +0.000 C 
ATOM     18  C   UNL     1      -8.097   3.688 128.930  0.00  0.00    +0.000 C 
ATOM     19  C   UNL     1      -8.948   4.503 130.036  0.00  0.00    +0.000 C 
ATOM     20  C   UNL     1      -9.311   3.013 130.558  0.00  0.00    +0.000 C 
ATOM     21  C   UNL     1      -9.692   4.780 131.602  0.00  0.00    +0.000 C 
ATOM     22  O   UNL     1      -9.308   3.784 132.717  0.00  0.00    +0.000 OA
ATOM     23  C   UNL     1      -7.923   4.029 133.109  0.00  0.00    +0.000 C 
ATOM     24  C   UNL     1      -7.125   3.016 134.009  0.00  0.00    +0.000 C 
ATOM     25  C   UNL     1      -6.792   3.727 132.141  0.00  0.00    +0.000 C 
ATOM     26  O   UNL     1      -7.973   5.469 133.228  0.00  0.00    +0.000 OA
ENDROOT
BRANCH  17  27
ATOM     27  O   UNL     1      -6.778   1.884 130.135  0.00  0.00    +0.000 OA
ATOM     28  H   UNL     1      -6.320   1.860 130.992  0.00  0.00    +0.000 HD
ENDBRANCH  17  27
BRANCH  21  29
ATOM     29  C   UNL     1     -11.151   4.876 130.688  0.00  0.00    +0.000 C 
ATOM     30  O   UNL     1     -11.627   3.878 130.094  0.00  0.00    +0.000 OA
BRANCH  29  31
ATOM     31  C   UNL     1     -11.753   6.152 130.185  0.00  0.00    +0.000 C 
BRANCH  31  32
ATOM     32  O   UNL     1     -12.070   5.986 128.785  0.00  0.00    +0.000 OA
ATOM     33  H   UNL     1     -12.521   6.801 128.477  0.00  0.00    +0.000 HD
ENDBRANCH  31  32
ENDBRANCH  29  31
ENDBRANCH  21  29
TORSDOF 4
ENDMDL
