MODEL 1
REMARK VINA RESULT:      -7.9      0.000      0.000
REMARK  Name = Flunitrazepam
REMARK  3 active torsions:
REMARK  status: ('A' for Active; 'I' for Inactive)
REMARK    1  A    between atoms: C_1  and  N_2
REMARK    2  A    between atoms: C_6  and  N_9
REMARK    3  A    between atoms: C_12  and  C_17
REMARK                            x       y       z     vdW  Elec       q    Type
REMARK                         _______ _______ _______ _____ _____    ______ ____
ROOT
ATOM      1  C   UNL     1      -8.174   2.741 127.311  0.00  0.00    +0.000 C 
ATOM      2  N   UNL     1      -7.128   2.726 126.297  0.00  0.00    +0.000 N 
ATOM      3  C   UNL     1      -7.083   1.652 125.367  0.00  0.00    +0.000 A 
ATOM      4  C   UNL     1      -6.752   1.807 124.006  0.00  0.00    +0.000 A 
ATOM      5  C   UNL     1      -6.775   0.694 123.143  0.00  0.00    +0.000 A 
ATOM      6  C   UNL     1      -7.114  -0.571 123.639  0.00  0.00    +0.000 A 
ATOM      7  C   UNL     1      -7.423  -0.743 124.985  0.00  0.00    +0.000 A 
ATOM      8  C   UNL     1      -7.407   0.363 125.834  0.00  0.00    +0.000 A 
ATOM      9  C   UNL     1      -6.422   3.130 123.404  0.00  0.00    +0.000 C 
ATOM     10  N   UNL     1      -5.677   4.030 123.950  0.00  0.00    +0.000 NA
ATOM     11  C   UNL     1      -5.118   3.792 125.279  0.00  0.00    +0.000 C 
ATOM     12  C   UNL     1      -6.224   3.788 126.324  0.00  0.00    +0.000 C 
ATOM     13  O   UNL     1      -6.260   4.648 127.210  0.00  0.00    +0.000 OA
ENDROOT
BRANCH   9  14
ATOM     14  C   UNL     1      -6.964   3.448 122.055  0.00  0.00    +0.000 A 
ATOM     15  C   UNL     1      -6.091   3.863 121.043  0.00  0.00    +0.000 A 
ATOM     16  C   UNL     1      -6.608   4.295 119.820  0.00  0.00    +0.000 A 
ATOM     17  C   UNL     1      -7.982   4.224 119.576  0.00  0.00    +0.000 A 
ATOM     18  C   UNL     1      -8.838   3.710 120.550  0.00  0.00    +0.000 A 
ATOM     19  C   UNL     1      -8.332   3.372 121.803  0.00  0.00    +0.000 A 
ATOM     20  F   UNL     1      -9.186   2.985 122.762  0.00  0.00    +0.000 F 
ENDBRANCH   9  14
BRANCH   6  21
ATOM     21  N   UNL     1      -7.136  -1.726 122.735  0.00  0.00    +0.000 N 
ATOM     22  O   UNL     1      -6.049  -2.117 122.279  0.00  0.00    +0.000 OA
ATOM     23  O   UNL     1      -8.231  -2.238 122.481  0.00  0.00    +0.000 OA
ENDBRANCH   6  21
TORSDOF 2
ENDMDL
MODEL 2
REMARK VINA RESULT:      -7.8      5.711      8.116
REMARK  Name = Flunitrazepam
REMARK  3 active torsions:
REMARK  status: ('A' for Active; 'I' for Inactive)
REMARK    1  A    between atoms: C_1  and  N_2
REMARK    2  A    between atoms: C_6  and  N_9
REMARK    3  A    between atoms: C_12  and  C_17
REMARK                            x       y       z     vdW  Elec       q    Type
REMARK                         _______ _______ _______ _____ _____    ______ ____
ROOT
ATOM      1  C   UNL     1      -9.629   2.014 132.114  0.00  0.00    +0.000 C 
ATOM      2  N   UNL     1      -9.212   3.381 131.825  0.00  0.00    +0.000 N 
ATOM      3  C   UNL     1      -8.869   3.730 130.491  0.00  0.00    +0.000 A 
ATOM      4  C   UNL     1      -9.194   4.966 129.897  0.00  0.00    +0.000 A 
ATOM      5  C   UNL     1      -8.855   5.213 128.552  0.00  0.00    +0.000 A 
ATOM      6  C   UNL     1      -8.182   4.237 127.807  0.00  0.00    +0.000 A 
ATOM      7  C   UNL     1      -7.836   3.019 128.387  0.00  0.00    +0.000 A 
ATOM      8  C   UNL     1      -8.182   2.775 129.716  0.00  0.00    +0.000 A 
ATOM      9  C   UNL     1      -9.944   6.033 130.618  0.00  0.00    +0.000 C 
ATOM     10  N   UNL     1      -9.743   6.386 131.842  0.00  0.00    +0.000 NA
ATOM     11  C   UNL     1      -8.732   5.688 132.634  0.00  0.00    +0.000 C 
ATOM     12  C   UNL     1      -9.170   4.258 132.909  0.00  0.00    +0.000 C 
ATOM     13  O   UNL     1      -9.395   3.876 134.061  0.00  0.00    +0.000 OA
ENDROOT
BRANCH   9  14
ATOM     14  C   UNL     1     -10.996   6.781 129.878  0.00  0.00    +0.000 A 
ATOM     15  C   UNL     1     -12.300   6.273 129.835  0.00  0.00    +0.000 A 
ATOM     16  C   UNL     1     -13.256   6.895 129.029  0.00  0.00    +0.000 A 
ATOM     17  C   UNL     1     -12.938   8.072 128.346  0.00  0.00    +0.000 A 
ATOM     18  C   UNL     1     -11.667   8.633 128.477  0.00  0.00    +0.000 A 
ATOM     19  C   UNL     1     -10.687   7.959 129.201  0.00  0.00    +0.000 A 
ATOM     20  F   UNL     1      -9.443   8.458 129.224  0.00  0.00    +0.000 F 
ENDBRANCH   9  14
BRANCH   6  21
ATOM     21  N   UNL     1      -7.831   4.500 126.408  0.00  0.00    +0.000 N 
ATOM     22  O   UNL     1      -8.686   4.241 125.544  0.00  0.00    +0.000 OA
ATOM     23  O   UNL     1      -6.710   4.963 126.172  0.00  0.00    +0.000 OA
ENDBRANCH   6  21
TORSDOF 2
ENDMDL
MODEL 3
REMARK VINA RESULT:      -7.6      2.730      4.561
REMARK  Name = Flunitrazepam
REMARK  3 active torsions:
REMARK  status: ('A' for Active; 'I' for Inactive)
REMARK    1  A    between atoms: C_1  and  N_2
REMARK    2  A    between atoms: C_6  and  N_9
REMARK    3  A    between atoms: C_12  and  C_17
REMARK                            x       y       z     vdW  Elec       q    Type
REMARK                         _______ _______ _______ _____ _____    ______ ____
ROOT
ATOM      1  C   UNL     1      -3.909   2.970 126.640  0.00  0.00    +0.000 C 
ATOM      2  N   UNL     1      -5.319   2.844 126.296  0.00  0.00    +0.000 N 
ATOM      3  C   UNL     1      -5.728   3.090 124.957  0.00  0.00    +0.000 A 
ATOM      4  C   UNL     1      -6.721   2.345 124.292  0.00  0.00    +0.000 A 
ATOM      5  C   UNL     1      -7.033   2.628 122.948  0.00  0.00    +0.000 A 
ATOM      6  C   UNL     1      -6.366   3.658 122.274  0.00  0.00    +0.000 A 
ATOM      7  C   UNL     1      -5.397   4.417 122.925  0.00  0.00    +0.000 A 
ATOM      8  C   UNL     1      -5.085   4.128 124.253  0.00  0.00    +0.000 A 
ATOM      9  C   UNL     1      -7.441   1.209 124.935  0.00  0.00    +0.000 C 
ATOM     10  N   UNL     1      -7.886   1.200 126.145  0.00  0.00    +0.000 NA
ATOM     11  C   UNL     1      -7.660   2.362 127.002  0.00  0.00    +0.000 C 
ATOM     12  C   UNL     1      -6.181   2.494 127.335  0.00  0.00    +0.000 C 
ATOM     13  O   UNL     1      -5.782   2.377 128.498  0.00  0.00    +0.000 OA
ENDROOT
BRANCH   9  14
ATOM     14  C   UNL     1      -7.699  -0.013 124.126  0.00  0.00    +0.000 A 
ATOM     15  C   UNL     1      -6.645  -0.892 123.851  0.00  0.00    +0.000 A 
ATOM     16  C   UNL     1      -6.851  -1.963 122.978  0.00  0.00    +0.000 A 
ATOM     17  C   UNL     1      -8.124  -2.210 122.460  0.00  0.00    +0.000 A 
ATOM     18  C   UNL     1      -9.196  -1.393 122.822  0.00  0.00    +0.000 A 
ATOM     19  C   UNL     1      -8.969  -0.269 123.612  0.00  0.00    +0.000 A 
ATOM     20  F   UNL     1      -9.990   0.565 123.857  0.00  0.00    +0.000 F 
ENDBRANCH   9  14
BRANCH   6  21
ATOM     21  N   UNL     1      -6.697   3.948 120.875  0.00  0.00    +0.000 N 
ATOM     22  O   UNL     1      -5.763   4.270 120.121  0.00  0.00    +0.000 OA
ATOM     23  O   UNL     1      -7.879   3.855 120.530  0.00  0.00    +0.000 OA
ENDBRANCH   6  21
TORSDOF 2
ENDMDL
MODEL 4
REMARK VINA RESULT:      -7.5      1.852      4.384
REMARK  Name = Flunitrazepam
REMARK  3 active torsions:
REMARK  status: ('A' for Active; 'I' for Inactive)
REMARK    1  A    between atoms: C_1  and  N_2
REMARK    2  A    between atoms: C_6  and  N_9
REMARK    3  A    between atoms: C_12  and  C_17
REMARK                            x       y       z     vdW  Elec       q    Type
REMARK                         _______ _______ _______ _____ _____    ______ ____
ROOT
ATOM      1  C   UNL     1      -7.359  -1.272 124.284  0.00  0.00    +0.000 C 
ATOM      2  N   UNL     1      -7.880   0.081 124.134  0.00  0.00    +0.000 N 
ATOM      3  C   UNL     1      -7.101   1.176 124.597  0.00  0.00    +0.000 A 
ATOM      4  C   UNL     1      -7.008   2.411 123.925  0.00  0.00    +0.000 A 
ATOM      5  C   UNL     1      -6.176   3.429 124.432  0.00  0.00    +0.000 A 
ATOM      6  C   UNL     1      -5.450   3.220 125.610  0.00  0.00    +0.000 A 
ATOM      7  C   UNL     1      -5.548   2.012 126.296  0.00  0.00    +0.000 A 
ATOM      8  C   UNL     1      -6.365   1.005 125.786  0.00  0.00    +0.000 A 
ATOM      9  C   UNL     1      -7.721   2.687 122.645  0.00  0.00    +0.000 C 
ATOM     10  N   UNL     1      -8.937   2.347 122.384  0.00  0.00    +0.000 NA
ATOM     11  C   UNL     1      -9.705   1.600 123.379  0.00  0.00    +0.000 C 
ATOM     12  C   UNL     1      -9.137   0.199 123.542  0.00  0.00    +0.000 C 
ATOM     13  O   UNL     1      -9.806  -0.794 123.237  0.00  0.00    +0.000 OA
ENDROOT
BRANCH   9  14
ATOM     14  C   UNL     1      -6.999   3.435 121.581  0.00  0.00    +0.000 A 
ATOM     15  C   UNL     1      -5.641   3.726 121.745  0.00  0.00    +0.000 A 
ATOM     16  C   UNL     1      -4.994   4.546 120.818  0.00  0.00    +0.000 A 
ATOM     17  C   UNL     1      -5.675   4.993 119.683  0.00  0.00    +0.000 A 
ATOM     18  C   UNL     1      -7.000   4.612 119.469  0.00  0.00    +0.000 A 
ATOM     19  C   UNL     1      -7.672   3.877 120.443  0.00  0.00    +0.000 A 
ATOM     20  F   UNL     1      -8.976   3.615 120.271  0.00  0.00    +0.000 F 
ENDBRANCH   9  14
BRANCH   6  21
ATOM     21  N   UNL     1      -4.586   4.284 126.132  0.00  0.00    +0.000 N 
ATOM     22  O   UNL     1      -3.363   4.068 126.158  0.00  0.00    +0.000 OA
ATOM     23  O   UNL     1      -5.124   5.328 126.515  0.00  0.00    +0.000 OA
ENDBRANCH   6  21
TORSDOF 2
ENDMDL
MODEL 5
REMARK VINA RESULT:      -7.4      2.936      4.818
REMARK  Name = Flunitrazepam
REMARK  3 active torsions:
REMARK  status: ('A' for Active; 'I' for Inactive)
REMARK    1  A    between atoms: C_1  and  N_2
REMARK    2  A    between atoms: C_6  and  N_9
REMARK    3  A    between atoms: C_12  and  C_17
REMARK                            x       y       z     vdW  Elec       q    Type
REMARK                         _______ _______ _______ _____ _____    ______ ____
ROOT
ATOM      1  C   UNL     1      -4.136   2.935 126.927  0.00  0.00    +0.000 C 
ATOM      2  N   UNL     1      -5.518   2.835 126.477  0.00  0.00    +0.000 N 
ATOM      3  C   UNL     1      -5.820   3.087 125.111  0.00  0.00    +0.000 A 
ATOM      4  C   UNL     1      -6.773   2.359 124.373  0.00  0.00    +0.000 A 
ATOM      5  C   UNL     1      -6.978   2.647 123.009  0.00  0.00    +0.000 A 
ATOM      6  C   UNL     1      -6.244   3.664 122.388  0.00  0.00    +0.000 A 
ATOM      7  C   UNL     1      -5.312   4.406 123.111  0.00  0.00    +0.000 A 
ATOM      8  C   UNL     1      -5.107   4.112 124.458  0.00  0.00    +0.000 A 
ATOM      9  C   UNL     1      -7.561   1.237 124.959  0.00  0.00    +0.000 C 
ATOM     10  N   UNL     1      -8.096   1.238 126.132  0.00  0.00    +0.000 NA
ATOM     11  C   UNL     1      -7.914   2.397 127.004  0.00  0.00    +0.000 C 
ATOM     12  C   UNL     1      -6.463   2.501 127.448  0.00  0.00    +0.000 C 
ATOM     13  O   UNL     1      -6.155   2.378 128.638  0.00  0.00    +0.000 OA
ENDROOT
BRANCH   9  14
ATOM     14  C   UNL     1      -7.780   0.020 124.132  0.00  0.00    +0.000 A 
ATOM     15  C   UNL     1      -9.011  -0.165 123.493  0.00  0.00    +0.000 A 
ATOM     16  C   UNL     1      -9.271  -1.368 122.832  0.00  0.00    +0.000 A 
ATOM     17  C   UNL     1      -8.273  -2.341 122.729  0.00  0.00    +0.000 A 
ATOM     18  C   UNL     1      -7.012  -2.107 123.277  0.00  0.00    +0.000 A 
ATOM     19  C   UNL     1      -6.786  -0.951 124.019  0.00  0.00    +0.000 A 
ATOM     20  F   UNL     1      -5.603  -0.796 124.630  0.00  0.00    +0.000 F 
ENDBRANCH   9  14
BRANCH   6  21
ATOM     21  N   UNL     1      -6.462   3.959 120.968  0.00  0.00    +0.000 N 
ATOM     22  O   UNL     1      -7.626   3.889 120.541  0.00  0.00    +0.000 OA
ATOM     23  O   UNL     1      -5.478   4.257 120.283  0.00  0.00    +0.000 OA
ENDBRANCH   6  21
TORSDOF 2
ENDMDL
MODEL 6
REMARK VINA RESULT:      -7.3      5.531      7.804
REMARK  Name = Flunitrazepam
REMARK  3 active torsions:
REMARK  status: ('A' for Active; 'I' for Inactive)
REMARK    1  A    between atoms: C_1  and  N_2
REMARK    2  A    between atoms: C_6  and  N_9
REMARK    3  A    between atoms: C_12  and  C_17
REMARK                            x       y       z     vdW  Elec       q    Type
REMARK                         _______ _______ _______ _____ _____    ______ ____
ROOT
ATOM      1  C   UNL     1      -9.617   1.997 132.259  0.00  0.00    +0.000 C 
ATOM      2  N   UNL     1      -9.115   3.320 131.910  0.00  0.00    +0.000 N 
ATOM      3  C   UNL     1      -8.678   3.564 130.580  0.00  0.00    +0.000 A 
ATOM      4  C   UNL     1      -8.906   4.771 129.890  0.00  0.00    +0.000 A 
ATOM      5  C   UNL     1      -8.477   4.912 128.556  0.00  0.00    +0.000 A 
ATOM      6  C   UNL     1      -7.812   3.859 127.917  0.00  0.00    +0.000 A 
ATOM      7  C   UNL     1      -7.562   2.667 128.593  0.00  0.00    +0.000 A 
ATOM      8  C   UNL     1      -7.996   2.529 129.911  0.00  0.00    +0.000 A 
ATOM      9  C   UNL     1      -9.642   5.917 130.495  0.00  0.00    +0.000 C 
ATOM     10  N   UNL     1      -9.494   6.341 131.704  0.00  0.00    +0.000 NA
ATOM     11  C   UNL     1      -8.567   5.651 132.599  0.00  0.00    +0.000 C 
ATOM     12  C   UNL     1      -9.092   4.264 132.937  0.00  0.00    +0.000 C 
ATOM     13  O   UNL     1      -9.403   3.970 134.095  0.00  0.00    +0.000 OA
ENDROOT
BRANCH   9  14
ATOM     14  C   UNL     1     -10.610   6.663 129.646  0.00  0.00    +0.000 A 
ATOM     15  C   UNL     1     -10.257   7.920 129.142  0.00  0.00    +0.000 A 
ATOM     16  C   UNL     1     -11.210   8.683 128.464  0.00  0.00    +0.000 A 
ATOM     17  C   UNL     1     -12.478   8.154 128.207  0.00  0.00    +0.000 A 
ATOM     18  C   UNL     1     -12.790   6.858 128.619  0.00  0.00    +0.000 A 
ATOM     19  C   UNL     1     -11.873   6.138 129.380  0.00  0.00    +0.000 A 
ATOM     20  F   UNL     1     -12.233   4.939 129.861  0.00  0.00    +0.000 F 
ENDBRANCH   9  14
BRANCH   6  21
ATOM     21  N   UNL     1      -7.368   4.012 126.527  0.00  0.00    +0.000 N 
ATOM     22  O   UNL     1      -7.275   5.168 126.080  0.00  0.00    +0.000 OA
ATOM     23  O   UNL     1      -7.114   2.987 125.887  0.00  0.00    +0.000 OA
ENDBRANCH   6  21
TORSDOF 2
ENDMDL
MODEL 7
REMARK VINA RESULT:      -7.0      3.157      7.213
REMARK  Name = Flunitrazepam
REMARK  3 active torsions:
REMARK  status: ('A' for Active; 'I' for Inactive)
REMARK    1  A    between atoms: C_1  and  N_2
REMARK    2  A    between atoms: C_6  and  N_9
REMARK    3  A    between atoms: C_12  and  C_17
REMARK                            x       y       z     vdW  Elec       q    Type
REMARK                         _______ _______ _______ _____ _____    ______ ____
ROOT
ATOM      1  C   UNL     1      -9.006   0.223 123.264  0.00  0.00    +0.000 C 
ATOM      2  N   UNL     1      -7.747  -0.398 123.653  0.00  0.00    +0.000 N 
ATOM      3  C   UNL     1      -6.871   0.303 124.527  0.00  0.00    +0.000 A 
ATOM      4  C   UNL     1      -6.124  -0.315 125.548  0.00  0.00    +0.000 A 
ATOM      5  C   UNL     1      -5.313   0.463 126.398  0.00  0.00    +0.000 A 
ATOM      6  C   UNL     1      -5.240   1.850 126.222  0.00  0.00    +0.000 A 
ATOM      7  C   UNL     1      -5.958   2.472 125.203  0.00  0.00    +0.000 A 
ATOM      8  C   UNL     1      -6.764   1.699 124.370  0.00  0.00    +0.000 A 
ATOM      9  C   UNL     1      -6.186  -1.780 125.818  0.00  0.00    +0.000 C 
ATOM     10  N   UNL     1      -6.194  -2.702 124.917  0.00  0.00    +0.000 NA
ATOM     11  C   UNL     1      -6.175  -2.327 123.504  0.00  0.00    +0.000 C 
ATOM     12  C   UNL     1      -7.487  -1.660 123.118  0.00  0.00    +0.000 C 
ATOM     13  O   UNL     1      -8.244  -2.184 122.295  0.00  0.00    +0.000 OA
ENDROOT
BRANCH   9  14
ATOM     14  C   UNL     1      -6.217  -2.237 127.234  0.00  0.00    +0.000 A 
ATOM     15  C   UNL     1      -5.014  -2.520 127.891  0.00  0.00    +0.000 A 
ATOM     16  C   UNL     1      -5.043  -3.081 129.170  0.00  0.00    +0.000 A 
ATOM     17  C   UNL     1      -6.263  -3.270 129.825  0.00  0.00    +0.000 A 
ATOM     18  C   UNL     1      -7.453  -2.888 129.206  0.00  0.00    +0.000 A 
ATOM     19  C   UNL     1      -7.430  -2.421 127.895  0.00  0.00    +0.000 A 
ATOM     20  F   UNL     1      -8.593  -2.164 127.279  0.00  0.00    +0.000 F 
ENDBRANCH   9  14
BRANCH   6  21
ATOM     21  N   UNL     1      -4.394   2.654 127.110  0.00  0.00    +0.000 N 
ATOM     22  O   UNL     1      -3.181   2.712 126.848  0.00  0.00    +0.000 OA
ATOM     23  O   UNL     1      -4.937   3.223 128.063  0.00  0.00    +0.000 OA
ENDBRANCH   6  21
TORSDOF 2
ENDMDL
MODEL 8
REMARK VINA RESULT:      -7.0      3.159      5.261
REMARK  Name = Flunitrazepam
REMARK  3 active torsions:
REMARK  status: ('A' for Active; 'I' for Inactive)
REMARK    1  A    between atoms: C_1  and  N_2
REMARK    2  A    between atoms: C_6  and  N_9
REMARK    3  A    between atoms: C_12  and  C_17
REMARK                            x       y       z     vdW  Elec       q    Type
REMARK                         _______ _______ _______ _____ _____    ______ ____
ROOT
ATOM      1  C   UNL     1      -3.520   2.968 126.539  0.00  0.00    +0.000 C 
ATOM      2  N   UNL     1      -4.785   2.318 126.856  0.00  0.00    +0.000 N 
ATOM      3  C   UNL     1      -5.818   2.304 125.880  0.00  0.00    +0.000 A 
ATOM      4  C   UNL     1      -6.671   1.205 125.658  0.00  0.00    +0.000 A 
ATOM      5  C   UNL     1      -7.641   1.260 124.638  0.00  0.00    +0.000 A 
ATOM      6  C   UNL     1      -7.768   2.412 123.851  0.00  0.00    +0.000 A 
ATOM      7  C   UNL     1      -6.945   3.513 124.073  0.00  0.00    +0.000 A 
ATOM      8  C   UNL     1      -5.981   3.451 125.078  0.00  0.00    +0.000 A 
ATOM      9  C   UNL     1      -6.565  -0.065 126.430  0.00  0.00    +0.000 C 
ATOM     10  N   UNL     1      -6.372  -0.148 127.702  0.00  0.00    +0.000 NA
ATOM     11  C   UNL     1      -6.203   1.075 128.484  0.00  0.00    +0.000 C 
ATOM     12  C   UNL     1      -4.890   1.754 128.127  0.00  0.00    +0.000 C 
ATOM     13  O   UNL     1      -3.990   1.872 128.965  0.00  0.00    +0.000 OA
ENDROOT
BRANCH   9  14
ATOM     14  C   UNL     1      -6.717  -1.352 125.698  0.00  0.00    +0.000 A 
ATOM     15  C   UNL     1      -5.651  -1.838 124.933  0.00  0.00    +0.000 A 
ATOM     16  C   UNL     1      -5.834  -2.970 124.135  0.00  0.00    +0.000 A 
ATOM     17  C   UNL     1      -7.044  -3.666 124.174  0.00  0.00    +0.000 A 
ATOM     18  C   UNL     1      -8.068  -3.239 125.020  0.00  0.00    +0.000 A 
ATOM     19  C   UNL     1      -7.919  -2.056 125.740  0.00  0.00    +0.000 A 
ATOM     20  F   UNL     1      -8.955  -1.602 126.460  0.00  0.00    +0.000 F 
ENDBRANCH   9  14
BRANCH   6  21
ATOM     21  N   UNL     1      -8.780   2.463 122.791  0.00  0.00    +0.000 N 
ATOM     22  O   UNL     1      -8.705   3.393 121.971  0.00  0.00    +0.000 OA
ATOM     23  O   UNL     1      -9.645   1.581 122.776  0.00  0.00    +0.000 OA
ENDBRANCH   6  21
TORSDOF 2
ENDMDL
MODEL 9
REMARK VINA RESULT:      -6.9      3.430      6.587
REMARK  Name = Flunitrazepam
REMARK  3 active torsions:
REMARK  status: ('A' for Active; 'I' for Inactive)
REMARK    1  A    between atoms: C_1  and  N_2
REMARK    2  A    between atoms: C_6  and  N_9
REMARK    3  A    between atoms: C_12  and  C_17
REMARK                            x       y       z     vdW  Elec       q    Type
REMARK                         _______ _______ _______ _____ _____    ______ ____
ROOT
ATOM      1  C   UNL     1      -5.918   2.509 125.413  0.00  0.00    +0.000 C 
ATOM      2  N   UNL     1      -6.950   1.858 126.209  0.00  0.00    +0.000 N 
ATOM      3  C   UNL     1      -7.489   0.621 125.761  0.00  0.00    +0.000 A 
ATOM      4  C   UNL     1      -7.824  -0.444 126.620  0.00  0.00    +0.000 A 
ATOM      5  C   UNL     1      -8.312  -1.654 126.087  0.00  0.00    +0.000 A 
ATOM      6  C   UNL     1      -8.477  -1.795 124.704  0.00  0.00    +0.000 A 
ATOM      7  C   UNL     1      -8.169  -0.743 123.844  0.00  0.00    +0.000 A 
ATOM      8  C   UNL     1      -7.679   0.449 124.376  0.00  0.00    +0.000 A 
ATOM      9  C   UNL     1      -7.635  -0.377 128.097  0.00  0.00    +0.000 C 
ATOM     10  N   UNL     1      -7.915   0.642 128.837  0.00  0.00    +0.000 NA
ATOM     11  C   UNL     1      -8.427   1.862 128.216  0.00  0.00    +0.000 C 
ATOM     12  C   UNL     1      -7.346   2.519 127.371  0.00  0.00    +0.000 C 
ATOM     13  O   UNL     1      -6.905   3.634 127.665  0.00  0.00    +0.000 OA
ENDROOT
BRANCH   9  14
ATOM     14  C   UNL     1      -7.108  -1.579 128.798  0.00  0.00    +0.000 A 
ATOM     15  C   UNL     1      -7.945  -2.293 129.663  0.00  0.00    +0.000 A 
ATOM     16  C   UNL     1      -7.417  -3.336 130.428  0.00  0.00    +0.000 A 
ATOM     17  C   UNL     1      -6.086  -3.724 130.260  0.00  0.00    +0.000 A 
ATOM     18  C   UNL     1      -5.284  -3.077 129.319  0.00  0.00    +0.000 A 
ATOM     19  C   UNL     1      -5.783  -1.975 128.629  0.00  0.00    +0.000 A 
ATOM     20  F   UNL     1      -4.963  -1.299 127.812  0.00  0.00    +0.000 F 
ENDBRANCH   9  14
BRANCH   6  21
ATOM     21  N   UNL     1      -8.986  -3.057 124.156  0.00  0.00    +0.000 N 
ATOM     22  O   UNL     1      -8.447  -4.107 124.542  0.00  0.00    +0.000 OA
ATOM     23  O   UNL     1      -9.916  -2.999 123.345  0.00  0.00    +0.000 OA
ENDBRANCH   6  21
TORSDOF 2
ENDMDL
