MODEL 1
REMARK VINA RESULT:      -8.8      0.000      0.000
REMARK  Name = Fluorescein
REMARK  2 active torsions:
REMARK  status: ('A' for Active; 'I' for Inactive)
REMARK    1  A    between atoms: O_1  and  C_2
REMARK    2  A    between atoms: C_10  and  O_11
REMARK                            x       y       z     vdW  Elec       q    Type
REMARK                         _______ _______ _______ _____ _____    ______ ____
ROOT
ATOM      1  C   UNL     1      -5.302   4.404 122.082  0.00  0.00    +0.000 A 
ATOM      2  C   UNL     1      -6.059   3.487 121.366  0.00  0.00    +0.000 A 
ATOM      3  C   UNL     1      -6.916   2.626 122.052  0.00  0.00    +0.000 A 
ATOM      4  C   UNL     1      -7.020   2.669 123.457  0.00  0.00    +0.000 A 
ATOM      5  C   UNL     1      -6.261   3.615 124.152  0.00  0.00    +0.000 A 
ATOM      6  O   UNL     1      -6.293   3.769 125.516  0.00  0.00    +0.000 OA
ATOM      7  C   UNL     1      -7.126   2.969 126.259  0.00  0.00    +0.000 A 
ATOM      8  C   UNL     1      -7.138   3.222 127.639  0.00  0.00    +0.000 A 
ATOM      9  C   UNL     1      -7.945   2.454 128.471  0.00  0.00    +0.000 A 
ATOM     10  C   UNL     1      -8.728   1.436 127.948  0.00  0.00    +0.000 A 
ATOM     11  C   UNL     1      -8.719   1.190 126.576  0.00  0.00    +0.000 A 
ATOM     12  C   UNL     1      -7.920   1.957 125.707  0.00  0.00    +0.000 A 
ATOM     13  C   UNL     1      -7.919   1.712 124.210  0.00  0.00    +0.000 C 
ATOM     14  O   UNL     1      -9.281   1.913 123.733  0.00  0.00    +0.000 OA
ATOM     15  C   UNL     1      -9.824   0.778 123.206  0.00  0.00    +0.000 C 
ATOM     16  O   UNL     1     -10.941   0.659 122.741  0.00  0.00    +0.000 OA
ATOM     17  C   UNL     1      -8.806  -0.260 123.286  0.00  0.00    +0.000 A 
ATOM     18  C   UNL     1      -7.667   0.278 123.853  0.00  0.00    +0.000 A 
ATOM     19  C   UNL     1      -6.528  -0.499 124.007  0.00  0.00    +0.000 A 
ATOM     20  C   UNL     1      -6.576  -1.835 123.596  0.00  0.00    +0.000 A 
ATOM     21  C   UNL     1      -7.748  -2.376 123.042  0.00  0.00    +0.000 A 
ATOM     22  C   UNL     1      -8.884  -1.582 122.876  0.00  0.00    +0.000 A 
ATOM     23  C   UNL     1      -5.402   4.480 123.466  0.00  0.00    +0.000 A 
ENDROOT
BRANCH   1  24
ATOM     24  O   UNL     1      -4.441   5.255 121.456  0.00  0.00    +0.000 OA
ATOM     25  H   UNL     1      -4.513   5.122 120.496  0.00  0.00    +0.000 HD
ENDBRANCH   1  24
BRANCH   9  26
ATOM     26  O   UNL     1      -8.009   2.656 129.819  0.00  0.00    +0.000 OA
ATOM     27  H   UNL     1      -8.342   1.853 130.251  0.00  0.00    +0.000 HD
ENDBRANCH   9  26
TORSDOF 2
ENDMDL
MODEL 2
REMARK VINA RESULT:      -8.5      2.301      5.584
REMARK  Name = Fluorescein
REMARK  2 active torsions:
REMARK  status: ('A' for Active; 'I' for Inactive)
REMARK    1  A    between atoms: O_1  and  C_2
REMARK    2  A    between atoms: C_10  and  O_11
REMARK                            x       y       z     vdW  Elec       q    Type
REMARK                         _______ _______ _______ _____ _____    ______ ____
ROOT
ATOM      1  C   UNL     1      -7.954   1.009 128.854  0.00  0.00    +0.000 A 
ATOM      2  C   UNL     1      -8.804   1.711 128.010  0.00  0.00    +0.000 A 
ATOM      3  C   UNL     1      -8.804   1.421 126.645  0.00  0.00    +0.000 A 
ATOM      4  C   UNL     1      -7.950   0.434 126.112  0.00  0.00    +0.000 A 
ATOM      5  C   UNL     1      -7.118  -0.270 126.986  0.00  0.00    +0.000 A 
ATOM      6  O   UNL     1      -6.261  -1.268 126.591  0.00  0.00    +0.000 OA
ATOM      7  C   UNL     1      -6.217  -1.622 125.264  0.00  0.00    +0.000 A 
ATOM      8  C   UNL     1      -5.353  -2.683 124.948  0.00  0.00    +0.000 A 
ATOM      9  C   UNL     1      -5.236  -3.103 123.628  0.00  0.00    +0.000 A 
ATOM     10  C   UNL     1      -5.957  -2.477 122.623  0.00  0.00    +0.000 A 
ATOM     11  C   UNL     1      -6.819  -1.427 122.939  0.00  0.00    +0.000 A 
ATOM     12  C   UNL     1      -6.966  -0.986 124.268  0.00  0.00    +0.000 A 
ATOM     13  C   UNL     1      -7.917   0.141 124.626  0.00  0.00    +0.000 C 
ATOM     14  O   UNL     1      -9.254  -0.271 124.224  0.00  0.00    +0.000 OA
ATOM     15  C   UNL     1      -9.784   0.536 123.260  0.00  0.00    +0.000 C 
ATOM     16  O   UNL     1     -10.877   0.422 122.740  0.00  0.00    +0.000 OA
ATOM     17  C   UNL     1      -8.800   1.574 122.984  0.00  0.00    +0.000 A 
ATOM     18  C   UNL     1      -7.702   1.372 123.799  0.00  0.00    +0.000 A 
ATOM     19  C   UNL     1      -6.631   2.253 123.759  0.00  0.00    +0.000 A 
ATOM     20  C   UNL     1      -6.688   3.327 122.865  0.00  0.00    +0.000 A 
ATOM     21  C   UNL     1      -7.800   3.508 122.027  0.00  0.00    +0.000 A 
ATOM     22  C   UNL     1      -8.880   2.625 122.084  0.00  0.00    +0.000 A 
ATOM     23  C   UNL     1      -7.119   0.018 128.354  0.00  0.00    +0.000 A 
ENDROOT
BRANCH   1  24
ATOM     24  O   UNL     1      -7.911   1.269 130.191  0.00  0.00    +0.000 OA
ATOM     25  H   UNL     1      -7.455   0.536 130.638  0.00  0.00    +0.000 HD
ENDBRANCH   1  24
BRANCH   9  26
ATOM     26  O   UNL     1      -4.423  -4.134 123.258  0.00  0.00    +0.000 OA
ATOM     27  H   UNL     1      -4.163  -4.641 124.044  0.00  0.00    +0.000 HD
ENDBRANCH   9  26
TORSDOF 2
ENDMDL
MODEL 3
REMARK VINA RESULT:      -8.3      2.613      3.717
REMARK  Name = Fluorescein
REMARK  2 active torsions:
REMARK  status: ('A' for Active; 'I' for Inactive)
REMARK    1  A    between atoms: O_1  and  C_2
REMARK    2  A    between atoms: C_10  and  O_11
REMARK                            x       y       z     vdW  Elec       q    Type
REMARK                         _______ _______ _______ _____ _____    ______ ____
ROOT
ATOM      1  C   UNL     1      -8.225   3.282 125.032  0.00  0.00    +0.000 A 
ATOM      2  C   UNL     1      -8.335   2.304 124.053  0.00  0.00    +0.000 A 
ATOM      3  C   UNL     1      -8.294   0.960 124.422  0.00  0.00    +0.000 A 
ATOM      4  C   UNL     1      -8.136   0.580 125.770  0.00  0.00    +0.000 A 
ATOM      5  C   UNL     1      -8.046   1.584 126.739  0.00  0.00    +0.000 A 
ATOM      6  O   UNL     1      -7.914   1.340 128.084  0.00  0.00    +0.000 OA
ATOM      7  C   UNL     1      -7.883   0.040 128.526  0.00  0.00    +0.000 A 
ATOM      8  C   UNL     1      -7.795  -0.125 129.918  0.00  0.00    +0.000 A 
ATOM      9  C   UNL     1      -7.749  -1.405 130.456  0.00  0.00    +0.000 A 
ATOM     10  C   UNL     1      -7.778  -2.518 129.628  0.00  0.00    +0.000 A 
ATOM     11  C   UNL     1      -7.870  -2.353 128.247  0.00  0.00    +0.000 A 
ATOM     12  C   UNL     1      -7.929  -1.068 127.674  0.00  0.00    +0.000 A 
ATOM     13  C   UNL     1      -8.052  -0.877 126.173  0.00  0.00    +0.000 C 
ATOM     14  O   UNL     1      -9.283  -1.528 125.749  0.00  0.00    +0.000 OA
ATOM     15  C   UNL     1      -9.060  -2.562 124.887  0.00  0.00    +0.000 C 
ATOM     16  O   UNL     1      -9.902  -3.278 124.381  0.00  0.00    +0.000 OA
ATOM     17  C   UNL     1      -7.622  -2.634 124.670  0.00  0.00    +0.000 A 
ATOM     18  C   UNL     1      -7.012  -1.632 125.402  0.00  0.00    +0.000 A 
ATOM     19  C   UNL     1      -5.637  -1.458 125.338  0.00  0.00    +0.000 A 
ATOM     20  C   UNL     1      -4.894  -2.331 124.537  0.00  0.00    +0.000 A 
ATOM     21  C   UNL     1      -5.523  -3.359 123.817  0.00  0.00    +0.000 A 
ATOM     22  C   UNL     1      -6.910  -3.517 123.875  0.00  0.00    +0.000 A 
ATOM     23  C   UNL     1      -8.089   2.932 126.370  0.00  0.00    +0.000 A 
ENDROOT
BRANCH   1  24
ATOM     24  O   UNL     1      -8.246   4.607 124.716  0.00  0.00    +0.000 OA
ATOM     25  H   UNL     1      -8.994   5.026 125.172  0.00  0.00    +0.000 HD
ENDBRANCH   1  24
BRANCH   9  26
ATOM     26  O   UNL     1      -7.674  -1.633 131.798  0.00  0.00    +0.000 OA
ATOM     27  H   UNL     1      -7.542  -0.791 132.264  0.00  0.00    +0.000 HD
ENDBRANCH   9  26
TORSDOF 2
ENDMDL
MODEL 4
REMARK VINA RESULT:      -8.0      5.812      9.674
REMARK  Name = Fluorescein
REMARK  2 active torsions:
REMARK  status: ('A' for Active; 'I' for Inactive)
REMARK    1  A    between atoms: O_1  and  C_2
REMARK    2  A    between atoms: C_10  and  O_11
REMARK                            x       y       z     vdW  Elec       q    Type
REMARK                         _______ _______ _______ _____ _____    ______ ____
ROOT
ATOM      1  C   UNL     1      -8.804   5.012 131.494  0.00  0.00    +0.000 A 
ATOM      2  C   UNL     1      -8.258   6.218 131.911  0.00  0.00    +0.000 A 
ATOM      3  C   UNL     1      -6.977   6.570 131.486  0.00  0.00    +0.000 A 
ATOM      4  C   UNL     1      -6.228   5.719 130.649  0.00  0.00    +0.000 A 
ATOM      5  C   UNL     1      -6.808   4.519 130.229  0.00  0.00    +0.000 A 
ATOM      6  O   UNL     1      -6.189   3.620 129.396  0.00  0.00    +0.000 OA
ATOM      7  C   UNL     1      -4.932   3.905 128.923  0.00  0.00    +0.000 A 
ATOM      8  C   UNL     1      -4.388   2.961 128.038  0.00  0.00    +0.000 A 
ATOM      9  C   UNL     1      -3.116   3.161 127.516  0.00  0.00    +0.000 A 
ATOM     10  C   UNL     1      -2.378   4.281 127.870  0.00  0.00    +0.000 A 
ATOM     11  C   UNL     1      -2.922   5.221 128.744  0.00  0.00    +0.000 A 
ATOM     12  C   UNL     1      -4.212   5.050 129.282  0.00  0.00    +0.000 A 
ATOM     13  C   UNL     1      -4.822   6.078 130.217  0.00  0.00    +0.000 C 
ATOM     14  O   UNL     1      -4.887   7.341 129.495  0.00  0.00    +0.000 OA
ATOM     15  C   UNL     1      -4.120   8.313 130.069  0.00  0.00    +0.000 C 
ATOM     16  O   UNL     1      -3.986   9.455 129.677  0.00  0.00    +0.000 OA
ATOM     17  C   UNL     1      -3.508   7.729 131.255  0.00  0.00    +0.000 A 
ATOM     18  C   UNL     1      -3.930   6.418 131.372  0.00  0.00    +0.000 A 
ATOM     19  C   UNL     1      -3.518   5.645 132.448  0.00  0.00    +0.000 A 
ATOM     20  C   UNL     1      -2.656   6.219 133.387  0.00  0.00    +0.000 A 
ATOM     21  C   UNL     1      -2.217   7.546 133.244  0.00  0.00    +0.000 A 
ATOM     22  C   UNL     1      -2.649   8.322 132.166  0.00  0.00    +0.000 A 
ATOM     23  C   UNL     1      -8.094   4.166 130.651  0.00  0.00    +0.000 A 
ENDROOT
BRANCH   1  24
ATOM     24  O   UNL     1     -10.047   4.620 131.894  0.00  0.00    +0.000 OA
ATOM     25  H   UNL     1     -10.199   4.941 132.799  0.00  0.00    +0.000 HD
ENDBRANCH   1  24
BRANCH   9  26
ATOM     26  O   UNL     1      -2.535   2.287 126.644  0.00  0.00    +0.000 OA
ATOM     27  H   UNL     1      -1.571   2.308 126.758  0.00  0.00    +0.000 HD
ENDBRANCH   9  26
TORSDOF 2
ENDMDL
MODEL 5
REMARK VINA RESULT:      -8.0      3.360      5.576
REMARK  Name = Fluorescein
REMARK  2 active torsions:
REMARK  status: ('A' for Active; 'I' for Inactive)
REMARK    1  A    between atoms: O_1  and  C_2
REMARK    2  A    between atoms: C_10  and  O_11
REMARK                            x       y       z     vdW  Elec       q    Type
REMARK                         _______ _______ _______ _____ _____    ______ ____
ROOT
ATOM      1  C   UNL     1      -4.637  -1.275 129.892  0.00  0.00    +0.000 A 
ATOM      2  C   UNL     1      -4.787  -2.405 129.100  0.00  0.00    +0.000 A 
ATOM      3  C   UNL     1      -5.252  -2.266 127.792  0.00  0.00    +0.000 A 
ATOM      4  C   UNL     1      -5.580  -1.000 127.268  0.00  0.00    +0.000 A 
ATOM      5  C   UNL     1      -5.402   0.124 128.079  0.00  0.00    +0.000 A 
ATOM      6  O   UNL     1      -5.663   1.410 127.675  0.00  0.00    +0.000 OA
ATOM      7  C   UNL     1      -6.109   1.629 126.394  0.00  0.00    +0.000 A 
ATOM      8  C   UNL     1      -6.305   2.973 126.042  0.00  0.00    +0.000 A 
ATOM      9  C   UNL     1      -6.764   3.290 124.769  0.00  0.00    +0.000 A 
ATOM     10  C   UNL     1      -7.039   2.287 123.851  0.00  0.00    +0.000 A 
ATOM     11  C   UNL     1      -6.839   0.953 124.200  0.00  0.00    +0.000 A 
ATOM     12  C   UNL     1      -6.365   0.602 125.478  0.00  0.00    +0.000 A 
ATOM     13  C   UNL     1      -6.123  -0.846 125.862  0.00  0.00    +0.000 C 
ATOM     14  O   UNL     1      -5.130  -1.382 124.941  0.00  0.00    +0.000 OA
ATOM     15  C   UNL     1      -5.620  -2.403 124.180  0.00  0.00    +0.000 C 
ATOM     16  O   UNL     1      -5.014  -3.028 123.330  0.00  0.00    +0.000 OA
ATOM     17  C   UNL     1      -7.000  -2.619 124.591  0.00  0.00    +0.000 A 
ATOM     18  C   UNL     1      -7.307  -1.726 125.600  0.00  0.00    +0.000 A 
ATOM     19  C   UNL     1      -8.559  -1.750 126.198  0.00  0.00    +0.000 A 
ATOM     20  C   UNL     1      -9.496  -2.680 125.738  0.00  0.00    +0.000 A 
ATOM     21  C   UNL     1      -9.179  -3.567 124.696  0.00  0.00    +0.000 A 
ATOM     22  C   UNL     1      -7.911  -3.546 124.111  0.00  0.00    +0.000 A 
ATOM     23  C   UNL     1      -4.933  -0.014 129.390  0.00  0.00    +0.000 A 
ENDROOT
BRANCH   1  24
ATOM     24  O   UNL     1      -4.198  -1.365 131.179  0.00  0.00    +0.000 OA
ATOM     25  H   UNL     1      -4.968  -1.405 131.770  0.00  0.00    +0.000 HD
ENDBRANCH   1  24
BRANCH   9  26
ATOM     26  O   UNL     1      -6.966   4.575 124.361  0.00  0.00    +0.000 OA
ATOM     27  H   UNL     1      -7.748   4.616 123.788  0.00  0.00    +0.000 HD
ENDBRANCH   9  26
TORSDOF 2
ENDMDL
MODEL 6
REMARK VINA RESULT:      -7.9      2.629      2.962
REMARK  Name = Fluorescein
REMARK  2 active torsions:
REMARK  status: ('A' for Active; 'I' for Inactive)
REMARK    1  A    between atoms: O_1  and  C_2
REMARK    2  A    between atoms: C_10  and  O_11
REMARK                            x       y       z     vdW  Elec       q    Type
REMARK                         _______ _______ _______ _____ _____    ______ ____
ROOT
ATOM      1  C   UNL     1      -6.171   3.442 123.545  0.00  0.00    +0.000 A 
ATOM      2  C   UNL     1      -6.945   2.401 123.049  0.00  0.00    +0.000 A 
ATOM      3  C   UNL     1      -7.143   1.264 123.832  0.00  0.00    +0.000 A 
ATOM      4  C   UNL     1      -6.565   1.153 125.113  0.00  0.00    +0.000 A 
ATOM      5  C   UNL     1      -5.806   2.222 125.596  0.00  0.00    +0.000 A 
ATOM      6  O   UNL     1      -5.213   2.242 126.835  0.00  0.00    +0.000 OA
ATOM      7  C   UNL     1      -5.378   1.165 127.670  0.00  0.00    +0.000 A 
ATOM      8  C   UNL     1      -4.783   1.283 128.936  0.00  0.00    +0.000 A 
ATOM      9  C   UNL     1      -4.889   0.236 129.845  0.00  0.00    +0.000 A 
ATOM     10  C   UNL     1      -5.569  -0.924 129.507  0.00  0.00    +0.000 A 
ATOM     11  C   UNL     1      -6.164  -1.037 128.251  0.00  0.00    +0.000 A 
ATOM     12  C   UNL     1      -6.082   0.009 127.313  0.00  0.00    +0.000 A 
ATOM     13  C   UNL     1      -6.744  -0.095 125.952  0.00  0.00    +0.000 C 
ATOM     14  O   UNL     1      -8.172  -0.280 126.174  0.00  0.00    +0.000 OA
ATOM     15  C   UNL     1      -8.624  -1.478 125.701  0.00  0.00    +0.000 C 
ATOM     16  O   UNL     1      -9.766  -1.893 125.756  0.00  0.00    +0.000 OA
ATOM     17  C   UNL     1      -7.486  -2.157 125.099  0.00  0.00    +0.000 A 
ATOM     18  C   UNL     1      -6.373  -1.346 125.216  0.00  0.00    +0.000 A 
ATOM     19  C   UNL     1      -5.156  -1.748 124.683  0.00  0.00    +0.000 A 
ATOM     20  C   UNL     1      -5.087  -2.993 124.052  0.00  0.00    +0.000 A 
ATOM     21  C   UNL     1      -6.220  -3.818 123.960  0.00  0.00    +0.000 A 
ATOM     22  C   UNL     1      -7.444  -3.398 124.485  0.00  0.00    +0.000 A 
ATOM     23  C   UNL     1      -5.609   3.364 124.813  0.00  0.00    +0.000 A 
ENDROOT
BRANCH   1  24
ATOM     24  O   UNL     1      -5.939   4.566 122.810  0.00  0.00    +0.000 OA
ATOM     25  H   UNL     1      -5.521   5.232 123.380  0.00  0.00    +0.000 HD
ENDBRANCH   1  24
BRANCH   9  26
ATOM     26  O   UNL     1      -4.342   0.293 131.094  0.00  0.00    +0.000 OA
ATOM     27  H   UNL     1      -3.742  -0.460 131.219  0.00  0.00    +0.000 HD
ENDBRANCH   9  26
TORSDOF 2
ENDMDL
MODEL 7
REMARK VINA RESULT:      -7.7      2.297      5.184
REMARK  Name = Fluorescein
REMARK  2 active torsions:
REMARK  status: ('A' for Active; 'I' for Inactive)
REMARK    1  A    between atoms: O_1  and  C_2
REMARK    2  A    between atoms: C_10  and  O_11
REMARK                            x       y       z     vdW  Elec       q    Type
REMARK                         _______ _______ _______ _____ _____    ______ ____
ROOT
ATOM      1  C   UNL     1      -5.921   3.693 123.442  0.00  0.00    +0.000 A 
ATOM      2  C   UNL     1      -5.416   3.659 124.734  0.00  0.00    +0.000 A 
ATOM      3  C   UNL     1      -5.741   2.588 125.566  0.00  0.00    +0.000 A 
ATOM      4  C   UNL     1      -6.578   1.547 125.118  0.00  0.00    +0.000 A 
ATOM      5  C   UNL     1      -7.057   1.595 123.806  0.00  0.00    +0.000 A 
ATOM      6  O   UNL     1      -7.860   0.631 123.248  0.00  0.00    +0.000 OA
ATOM      7  C   UNL     1      -8.209  -0.464 124.001  0.00  0.00    +0.000 A 
ATOM      8  C   UNL     1      -8.989  -1.428 123.343  0.00  0.00    +0.000 A 
ATOM      9  C   UNL     1      -9.398  -2.566 124.029  0.00  0.00    +0.000 A 
ATOM     10  C   UNL     1      -9.050  -2.748 125.359  0.00  0.00    +0.000 A 
ATOM     11  C   UNL     1      -8.270  -1.793 126.009  0.00  0.00    +0.000 A 
ATOM     12  C   UNL     1      -7.833  -0.635 125.338  0.00  0.00    +0.000 A 
ATOM     13  C   UNL     1      -6.966   0.401 126.029  0.00  0.00    +0.000 C 
ATOM     14  O   UNL     1      -5.742  -0.265 126.452  0.00  0.00    +0.000 OA
ATOM     15  C   UNL     1      -5.589  -0.268 127.808  0.00  0.00    +0.000 C 
ATOM     16  O   UNL     1      -4.666  -0.756 128.431  0.00  0.00    +0.000 OA
ATOM     17  C   UNL     1      -6.729   0.443 128.368  0.00  0.00    +0.000 A 
ATOM     18  C   UNL     1      -7.540   0.866 127.332  0.00  0.00    +0.000 A 
ATOM     19  C   UNL     1      -8.683   1.607 127.598  0.00  0.00    +0.000 A 
ATOM     20  C   UNL     1      -8.996   1.890 128.931  0.00  0.00    +0.000 A 
ATOM     21  C   UNL     1      -8.175   1.434 129.975  0.00  0.00    +0.000 A 
ATOM     22  C   UNL     1      -7.019   0.702 129.698  0.00  0.00    +0.000 A 
ATOM     23  C   UNL     1      -6.731   2.667 122.970  0.00  0.00    +0.000 A 
ENDROOT
BRANCH   1  24
ATOM     24  O   UNL     1      -5.641   4.727 122.598  0.00  0.00    +0.000 OA
ATOM     25  H   UNL     1      -6.463   5.210 122.411  0.00  0.00    +0.000 HD
ENDBRANCH   1  24
BRANCH   9  26
ATOM     26  O   UNL     1     -10.148  -3.543 123.445  0.00  0.00    +0.000 OA
ATOM     27  H   UNL     1     -10.278  -3.335 122.506  0.00  0.00    +0.000 HD
ENDBRANCH   9  26
TORSDOF 2
ENDMDL
MODEL 8
REMARK VINA RESULT:      -7.6      3.516      5.978
REMARK  Name = Fluorescein
REMARK  2 active torsions:
REMARK  status: ('A' for Active; 'I' for Inactive)
REMARK    1  A    between atoms: O_1  and  C_2
REMARK    2  A    between atoms: C_10  and  O_11
REMARK                            x       y       z     vdW  Elec       q    Type
REMARK                         _______ _______ _______ _____ _____    ______ ____
ROOT
ATOM      1  C   UNL     1      -5.159   2.887 125.802  0.00  0.00    +0.000 A 
ATOM      2  C   UNL     1      -4.595   2.320 126.937  0.00  0.00    +0.000 A 
ATOM      3  C   UNL     1      -4.989   1.041 127.330  0.00  0.00    +0.000 A 
ATOM      4  C   UNL     1      -5.955   0.321 126.598  0.00  0.00    +0.000 A 
ATOM      5  C   UNL     1      -6.493   0.906 125.449  0.00  0.00    +0.000 A 
ATOM      6  O   UNL     1      -7.422   0.296 124.641  0.00  0.00    +0.000 OA
ATOM      7  C   UNL     1      -7.847  -0.972 124.954  0.00  0.00    +0.000 A 
ATOM      8  C   UNL     1      -8.758  -1.545 124.053  0.00  0.00    +0.000 A 
ATOM      9  C   UNL     1      -9.251  -2.822 124.294  0.00  0.00    +0.000 A 
ATOM     10  C   UNL     1      -8.856  -3.528 125.421  0.00  0.00    +0.000 A 
ATOM     11  C   UNL     1      -7.946  -2.960 126.311  0.00  0.00    +0.000 A 
ATOM     12  C   UNL     1      -7.423  -1.672 126.089  0.00  0.00    +0.000 A 
ATOM     13  C   UNL     1      -6.416  -1.052 127.040  0.00  0.00    +0.000 C 
ATOM     14  O   UNL     1      -5.250  -1.924 127.072  0.00  0.00    +0.000 OA
ATOM     15  C   UNL     1      -5.028  -2.459 128.307  0.00  0.00    +0.000 C 
ATOM     16  O   UNL     1      -4.132  -3.220 128.617  0.00  0.00    +0.000 OA
ATOM     17  C   UNL     1      -6.056  -1.929 129.193  0.00  0.00    +0.000 A 
ATOM     18  C   UNL     1      -6.869  -1.078 128.469  0.00  0.00    +0.000 A 
ATOM     19  C   UNL     1      -7.911  -0.407 129.093  0.00  0.00    +0.000 A 
ATOM     20  C   UNL     1      -8.123  -0.633 130.456  0.00  0.00    +0.000 A 
ATOM     21  C   UNL     1      -7.303  -1.519 131.175  0.00  0.00    +0.000 A 
ATOM     22  C   UNL     1      -6.247  -2.177 130.542  0.00  0.00    +0.000 A 
ATOM     23  C   UNL     1      -6.097   2.188 125.052  0.00  0.00    +0.000 A 
ENDROOT
BRANCH   1  24
ATOM     24  O   UNL     1      -4.814   4.139 125.389  0.00  0.00    +0.000 OA
ATOM     25  H   UNL     1      -5.403   4.402 124.663  0.00  0.00    +0.000 HD
ENDBRANCH   1  24
BRANCH   9  26
ATOM     26  O   UNL     1     -10.130  -3.439 123.453  0.00  0.00    +0.000 OA
ATOM     27  H   UNL     1     -10.482  -2.792 122.821  0.00  0.00    +0.000 HD
ENDBRANCH   9  26
TORSDOF 2
ENDMDL
MODEL 9
REMARK VINA RESULT:      -7.5      2.161      5.748
REMARK  Name = Fluorescein
REMARK  2 active torsions:
REMARK  status: ('A' for Active; 'I' for Inactive)
REMARK    1  A    between atoms: O_1  and  C_2
REMARK    2  A    between atoms: C_10  and  O_11
REMARK                            x       y       z     vdW  Elec       q    Type
REMARK                         _______ _______ _______ _____ _____    ______ ____
ROOT
ATOM      1  C   UNL     1      -9.331  -2.507 124.180  0.00  0.00    +0.000 A 
ATOM      2  C   UNL     1      -9.476  -2.344 125.551  0.00  0.00    +0.000 A 
ATOM      3  C   UNL     1      -8.968  -1.196 126.159  0.00  0.00    +0.000 A 
ATOM      4  C   UNL     1      -8.305  -0.207 125.407  0.00  0.00    +0.000 A 
ATOM      5  C   UNL     1      -8.189  -0.386 124.026  0.00  0.00    +0.000 A 
ATOM      6  O   UNL     1      -7.587   0.516 123.184  0.00  0.00    +0.000 OA
ATOM      7  C   UNL     1      -7.077   1.679 123.707  0.00  0.00    +0.000 A 
ATOM      8  C   UNL     1      -6.522   2.571 122.776  0.00  0.00    +0.000 A 
ATOM      9  C   UNL     1      -5.973   3.770 123.216  0.00  0.00    +0.000 A 
ATOM     10  C   UNL     1      -5.961   4.084 124.567  0.00  0.00    +0.000 A 
ATOM     11  C   UNL     1      -6.517   3.200 125.490  0.00  0.00    +0.000 A 
ATOM     12  C   UNL     1      -7.089   1.983 125.073  0.00  0.00    +0.000 A 
ATOM     13  C   UNL     1      -7.717   1.023 126.066  0.00  0.00    +0.000 C 
ATOM     14  O   UNL     1      -8.800   1.731 126.734  0.00  0.00    +0.000 OA
ATOM     15  C   UNL     1      -8.589   1.868 128.075  0.00  0.00    +0.000 C 
ATOM     16  O   UNL     1      -9.325   2.418 128.871  0.00  0.00    +0.000 OA
ATOM     17  C   UNL     1      -7.324   1.213 128.377  0.00  0.00    +0.000 A 
ATOM     18  C   UNL     1      -6.807   0.687 127.209  0.00  0.00    +0.000 A 
ATOM     19  C   UNL     1      -5.617  -0.027 127.230  0.00  0.00    +0.000 A 
ATOM     20  C   UNL     1      -4.955  -0.177 128.453  0.00  0.00    +0.000 A 
ATOM     21  C   UNL     1      -5.480   0.382 129.629  0.00  0.00    +0.000 A 
ATOM     22  C   UNL     1      -6.686   1.086 129.601  0.00  0.00    +0.000 A 
ATOM     23  C   UNL     1      -8.700  -1.535 123.413  0.00  0.00    +0.000 A 
ENDROOT
BRANCH   1  24
ATOM     24  O   UNL     1      -9.800  -3.619 123.545  0.00  0.00    +0.000 OA
ATOM     25  H   UNL     1     -10.771  -3.582 123.526  0.00  0.00    +0.000 HD
ENDBRANCH   1  24
BRANCH   9  26
ATOM     26  O   UNL     1      -5.428   4.683 122.362  0.00  0.00    +0.000 OA
ATOM     27  H   UNL     1      -6.071   4.901 121.668  0.00  0.00    +0.000 HD
ENDBRANCH   9  26
TORSDOF 2
ENDMDL
