MODEL 1
REMARK VINA RESULT:      -4.8      0.000      0.000
REMARK  Name = Fluorouracil
REMARK  0 active torsions:
REMARK  status: ('A' for Active; 'I' for Inactive)
REMARK                            x       y       z     vdW  Elec       q    Type
REMARK                         _______ _______ _______ _____ _____    ______ ____
ROOT
ATOM      1  F   UNL     1     -13.412   7.296 131.292  0.00  0.00    +0.000 F 
ATOM      2  C   UNL     1     -12.780   7.530 130.129  0.00  0.00    +0.000 A 
ATOM      3  C   UNL     1     -12.250   6.554 129.391  0.00  0.00    +0.000 A 
ATOM      4  N   UNL     1     -11.611   6.838 128.213  0.00  0.00    +0.000 N 
ATOM      5  C   UNL     1     -11.470   8.109 127.715  0.00  0.00    +0.000 A 
ATOM      6  O   UNL     1     -10.887   8.331 126.660  0.00  0.00    +0.000 OA
ATOM      7  N   UNL     1     -12.019   9.107 128.475  0.00  0.00    +0.000 N 
ATOM      8  C   UNL     1     -12.676   8.933 129.669  0.00  0.00    +0.000 A 
ATOM      9  O   UNL     1     -13.137   9.874 130.305  0.00  0.00    +0.000 OA
ATOM     10  H   UNL     1     -11.205   6.095 127.653  0.00  0.00    +0.000 HD
ATOM     11  H   UNL     1     -11.926  10.049 128.131  0.00  0.00    +0.000 HD
ENDROOT
TORSDOF 0
ENDMDL
MODEL 2
REMARK VINA RESULT:      -4.7      2.542      3.854
REMARK  Name = Fluorouracil
REMARK  0 active torsions:
REMARK  status: ('A' for Active; 'I' for Inactive)
REMARK                            x       y       z     vdW  Elec       q    Type
REMARK                         _______ _______ _______ _____ _____    ______ ____
ROOT
ATOM      1  F   UNL     1     -10.665   8.524 126.932  0.00  0.00    +0.000 F 
ATOM      2  C   UNL     1     -11.199   8.127 128.101  0.00  0.00    +0.000 A 
ATOM      3  C   UNL     1     -12.174   8.803 128.710  0.00  0.00    +0.000 A 
ATOM      4  N   UNL     1     -12.688   8.365 129.901  0.00  0.00    +0.000 N 
ATOM      5  C   UNL     1     -12.254   7.231 130.542  0.00  0.00    +0.000 A 
ATOM      6  O   UNL     1     -12.731   6.868 131.611  0.00  0.00    +0.000 OA
ATOM      7  N   UNL     1     -11.256   6.539 129.910  0.00  0.00    +0.000 N 
ATOM      8  C   UNL     1     -10.669   6.891 128.719  0.00  0.00    +0.000 A 
ATOM      9  O   UNL     1      -9.772   6.230 128.211  0.00  0.00    +0.000 OA
ATOM     10  H   UNL     1     -13.428   8.881 130.367  0.00  0.00    +0.000 HD
ATOM     11  H   UNL     1     -10.919   5.704 130.363  0.00  0.00    +0.000 HD
ENDROOT
TORSDOF 0
ENDMDL
MODEL 3
REMARK VINA RESULT:      -4.7      1.534      2.190
REMARK  Name = Fluorouracil
REMARK  0 active torsions:
REMARK  status: ('A' for Active; 'I' for Inactive)
REMARK                            x       y       z     vdW  Elec       q    Type
REMARK                         _______ _______ _______ _____ _____    ______ ____
ROOT
ATOM      1  F   UNL     1     -13.215   7.609 131.553  0.00  0.00    +0.000 F 
ATOM      2  C   UNL     1     -12.624   7.812 130.363  0.00  0.00    +0.000 A 
ATOM      3  C   UNL     1     -12.711   8.969 129.705  0.00  0.00    +0.000 A 
ATOM      4  N   UNL     1     -12.095   9.132 128.494  0.00  0.00    +0.000 N 
ATOM      5  C   UNL     1     -11.362   8.148 127.878  0.00  0.00    +0.000 A 
ATOM      6  O   UNL     1     -10.827   8.324 126.789  0.00  0.00    +0.000 OA
ATOM      7  N   UNL     1     -11.272   6.964 128.558  0.00  0.00    +0.000 N 
ATOM      8  C   UNL     1     -11.853   6.694 129.774  0.00  0.00    +0.000 A 
ATOM      9  O   UNL     1     -11.739   5.606 130.326  0.00  0.00    +0.000 OA
ATOM     10  H   UNL     1     -12.164  10.012 127.992  0.00  0.00    +0.000 HD
ATOM     11  H   UNL     1     -10.742   6.225 128.125  0.00  0.00    +0.000 HD
ENDROOT
TORSDOF 0
ENDMDL
MODEL 4
REMARK VINA RESULT:      -4.5      2.648      3.295
REMARK  Name = Fluorouracil
REMARK  0 active torsions:
REMARK  status: ('A' for Active; 'I' for Inactive)
REMARK                            x       y       z     vdW  Elec       q    Type
REMARK                         _______ _______ _______ _____ _____    ______ ____
ROOT
ATOM      1  F   UNL     1     -10.510   8.799 127.530  0.00  0.00    +0.000 F 
ATOM      2  C   UNL     1     -10.952   8.213 128.657  0.00  0.00    +0.000 A 
ATOM      3  C   UNL     1     -10.201   7.375 129.372  0.00  0.00    +0.000 A 
ATOM      4  N   UNL     1     -10.691   6.798 130.513  0.00  0.00    +0.000 N 
ATOM      5  C   UNL     1     -11.955   7.027 130.994  0.00  0.00    +0.000 A 
ATOM      6  O   UNL     1     -12.367   6.490 132.016  0.00  0.00    +0.000 OA
ATOM      7  N   UNL     1     -12.721   7.891 130.258  0.00  0.00    +0.000 N 
ATOM      8  C   UNL     1     -12.330   8.520 129.102  0.00  0.00    +0.000 A 
ATOM      9  O   UNL     1     -13.071   9.277 128.485  0.00  0.00    +0.000 OA
ATOM     10  H   UNL     1     -10.120   6.158 131.055  0.00  0.00    +0.000 HD
ATOM     11  H   UNL     1     -13.655   8.073 130.591  0.00  0.00    +0.000 HD
ENDROOT
TORSDOF 0
ENDMDL
MODEL 5
REMARK VINA RESULT:      -4.5     10.327     10.905
REMARK  Name = Fluorouracil
REMARK  0 active torsions:
REMARK  status: ('A' for Active; 'I' for Inactive)
REMARK                            x       y       z     vdW  Elec       q    Type
REMARK                         _______ _______ _______ _____ _____    ______ ____
ROOT
ATOM      1  F   UNL     1      -4.212   4.324 121.631  0.00  0.00    +0.000 F 
ATOM      2  C   UNL     1      -5.483   4.206 121.209  0.00  0.00    +0.000 A 
ATOM      3  C   UNL     1      -5.868   4.562 119.984  0.00  0.00    +0.000 A 
ATOM      4  N   UNL     1      -7.175   4.427 119.595  0.00  0.00    +0.000 N 
ATOM      5  C   UNL     1      -8.160   3.931 120.412  0.00  0.00    +0.000 A 
ATOM      6  O   UNL     1      -9.322   3.828 120.036  0.00  0.00    +0.000 OA
ATOM      7  N   UNL     1      -7.758   3.563 121.668  0.00  0.00    +0.000 N 
ATOM      8  C   UNL     1      -6.478   3.659 122.158  0.00  0.00    +0.000 A 
ATOM      9  O   UNL     1      -6.187   3.319 123.299  0.00  0.00    +0.000 OA
ATOM     10  H   UNL     1      -7.468   4.702 118.663  0.00  0.00    +0.000 HD
ATOM     11  H   UNL     1      -8.464   3.198 122.287  0.00  0.00    +0.000 HD
ENDROOT
TORSDOF 0
ENDMDL
MODEL 6
REMARK VINA RESULT:      -4.4      2.436      2.865
REMARK  Name = Fluorouracil
REMARK  0 active torsions:
REMARK  status: ('A' for Active; 'I' for Inactive)
REMARK                            x       y       z     vdW  Elec       q    Type
REMARK                         _______ _______ _______ _____ _____    ______ ____
ROOT
ATOM      1  F   UNL     1     -12.830   9.365 129.939  0.00  0.00    +0.000 F 
ATOM      2  C   UNL     1     -12.143   8.212 129.868  0.00  0.00    +0.000 A 
ATOM      3  C   UNL     1     -11.182   8.002 128.968  0.00  0.00    +0.000 A 
ATOM      4  N   UNL     1     -10.509   6.811 128.928  0.00  0.00    +0.000 N 
ATOM      5  C   UNL     1     -10.763   5.769 129.785  0.00  0.00    +0.000 A 
ATOM      6  O   UNL     1     -10.146   4.711 129.721  0.00  0.00    +0.000 OA
ATOM      7  N   UNL     1     -11.748   5.990 130.710  0.00  0.00    +0.000 N 
ATOM      8  C   UNL     1     -12.485   7.143 130.834  0.00  0.00    +0.000 A 
ATOM      9  O   UNL     1     -13.361   7.272 131.681  0.00  0.00    +0.000 OA
ATOM     10  H   UNL     1      -9.779   6.651 128.241  0.00  0.00    +0.000 HD
ATOM     11  H   UNL     1     -11.955   5.238 131.348  0.00  0.00    +0.000 HD
ENDROOT
TORSDOF 0
ENDMDL
MODEL 7
REMARK VINA RESULT:      -4.4      2.367      2.862
REMARK  Name = Fluorouracil
REMARK  0 active torsions:
REMARK  status: ('A' for Active; 'I' for Inactive)
REMARK                            x       y       z     vdW  Elec       q    Type
REMARK                         _______ _______ _______ _____ _____    ______ ____
ROOT
ATOM      1  F   UNL     1     -13.092   9.541 130.491  0.00  0.00    +0.000 F 
ATOM      2  C   UNL     1     -12.609   8.292 130.377  0.00  0.00    +0.000 A 
ATOM      3  C   UNL     1     -12.652   7.412 131.378  0.00  0.00    +0.000 A 
ATOM      4  N   UNL     1     -12.146   6.149 131.221  0.00  0.00    +0.000 N 
ATOM      5  C   UNL     1     -11.573   5.703 130.057  0.00  0.00    +0.000 A 
ATOM      6  O   UNL     1     -11.124   4.568 129.949  0.00  0.00    +0.000 OA
ATOM      7  N   UNL     1     -11.535   6.609 129.030  0.00  0.00    +0.000 N 
ATOM      8  C   UNL     1     -12.009   7.897 129.083  0.00  0.00    +0.000 A 
ATOM      9  O   UNL     1     -11.936   8.661 128.128  0.00  0.00    +0.000 OA
ATOM     10  H   UNL     1     -12.176   5.481 131.984  0.00  0.00    +0.000 HD
ATOM     11  H   UNL     1     -11.116   6.305 128.166  0.00  0.00    +0.000 HD
ENDROOT
TORSDOF 0
ENDMDL
MODEL 8
REMARK VINA RESULT:      -4.4      2.368      3.068
REMARK  Name = Fluorouracil
REMARK  0 active torsions:
REMARK  status: ('A' for Active; 'I' for Inactive)
REMARK                            x       y       z     vdW  Elec       q    Type
REMARK                         _______ _______ _______ _____ _____    ______ ____
ROOT
ATOM      1  F   UNL     1     -13.887   6.970 127.445  0.00  0.00    +0.000 F 
ATOM      2  C   UNL     1     -12.708   7.174 128.056  0.00  0.00    +0.000 A 
ATOM      3  C   UNL     1     -12.588   7.242 129.383  0.00  0.00    +0.000 A 
ATOM      4  N   UNL     1     -11.367   7.453 129.964  0.00  0.00    +0.000 N 
ATOM      5  C   UNL     1     -10.205   7.608 129.250  0.00  0.00    +0.000 A 
ATOM      6  O   UNL     1      -9.127   7.802 129.801  0.00  0.00    +0.000 OA
ATOM      7  N   UNL     1     -10.332   7.533 127.889  0.00  0.00    +0.000 N 
ATOM      8  C   UNL     1     -11.506   7.329 127.206  0.00  0.00    +0.000 A 
ATOM      9  O   UNL     1     -11.551   7.281 125.982  0.00  0.00    +0.000 OA
ATOM     10  H   UNL     1     -11.277   7.508 130.974  0.00  0.00    +0.000 HD
ATOM     11  H   UNL     1      -9.492   7.647 127.343  0.00  0.00    +0.000 HD
ENDROOT
TORSDOF 0
ENDMDL
MODEL 9
REMARK VINA RESULT:      -4.4      2.441      2.645
REMARK  Name = Fluorouracil
REMARK  0 active torsions:
REMARK  status: ('A' for Active; 'I' for Inactive)
REMARK                            x       y       z     vdW  Elec       q    Type
REMARK                         _______ _______ _______ _____ _____    ______ ____
ROOT
ATOM      1  F   UNL     1      -9.719   7.102 130.992  0.00  0.00    +0.000 F 
ATOM      2  C   UNL     1     -10.745   7.348 130.159  0.00  0.00    +0.000 A 
ATOM      3  C   UNL     1     -10.579   7.909 128.961  0.00  0.00    +0.000 A 
ATOM      4  N   UNL     1     -11.652   8.144 128.144  0.00  0.00    +0.000 N 
ATOM      5  C   UNL     1     -12.945   7.832 128.484  0.00  0.00    +0.000 A 
ATOM      6  O   UNL     1     -13.886   8.060 127.732  0.00  0.00    +0.000 OA
ATOM      7  N   UNL     1     -13.110   7.252 129.713  0.00  0.00    +0.000 N 
ATOM      8  C   UNL     1     -12.106   6.977 130.609  0.00  0.00    +0.000 A 
ATOM      9  O   UNL     1     -12.325   6.463 131.700  0.00  0.00    +0.000 OA
ATOM     10  H   UNL     1     -11.525   8.574 127.234  0.00  0.00    +0.000 HD
ATOM     11  H   UNL     1     -14.051   7.016 129.986  0.00  0.00    +0.000 HD
ENDROOT
TORSDOF 0
ENDMDL
