MODEL 1
REMARK VINA RESULT:      -9.1      0.000      0.000
REMARK  Name = Fluorometholone
REMARK  7 active torsions:
REMARK  status: ('A' for Active; 'I' for Inactive)
REMARK    1  A    between atoms: C_5  and  O_6
REMARK    2  A    between atoms: C_5  and  C_7
REMARK    3  A    between atoms: C_7  and  C_8
REMARK    4  A    between atoms: C_10  and  C_11
REMARK    5  A    between atoms: C_13  and  O_14
REMARK    6  A    between atoms: C_20  and  C_21
REMARK    7  A    between atoms: C_28  and  C_29
REMARK                            x       y       z     vdW  Elec       q    Type
REMARK                         _______ _______ _______ _____ _____    ______ ____
ROOT
ATOM      1  C   UNL     1      -6.980   2.378 126.105  0.00  0.00    +0.000 C 
ATOM      2  C   UNL     1      -5.571   2.123 126.120  0.00  0.00    +0.000 C 
ATOM      3  C   UNL     1      -6.264   1.298 125.087  0.00  0.00    +0.000 C 
ATOM      4  C   UNL     1      -8.188   1.824 124.646  0.00  0.00    +0.000 C 
ATOM      5  C   UNL     1      -7.036   2.301 124.195  0.00  0.00    +0.000 C 
ATOM      6  C   UNL     1      -6.649   3.629 123.622  0.00  0.00    +0.000 C 
ATOM      7  C   UNL     1      -7.175   0.554 123.402  0.00  0.00    +0.000 C 
ATOM      8  C   UNL     1      -7.941  -0.581 124.534  0.00  0.00    +0.000 C 
ATOM      9  C   UNL     1      -7.792  -0.452 126.248  0.00  0.00    +0.000 C 
ATOM     10  F   UNL     1      -6.428  -0.212 126.540  0.00  0.00    +0.000 F 
ATOM     11  C   UNL     1      -7.986   1.038 126.911  0.00  0.00    +0.000 C 
ATOM     12  C   UNL     1      -7.366   0.973 128.314  0.00  0.00    +0.000 C 
ATOM     13  C   UNL     1      -7.771  -0.287 129.038  0.00  0.00    +0.000 C 
ATOM     14  C   UNL     1      -7.185  -0.214 130.424  0.00  0.00    +0.000 C 
ATOM     15  C   UNL     1      -7.118  -1.494 128.398  0.00  0.00    +0.000 C 
ATOM     16  C   UNL     1      -6.462  -2.482 129.057  0.00  0.00    +0.000 C 
ATOM     17  C   UNL     1      -7.589  -3.091 129.752  0.00  0.00    +0.000 C 
ATOM     18  O   UNL     1      -7.738  -3.143 130.955  0.00  0.00    +0.000 OA
ATOM     19  C   UNL     1      -8.371  -3.767 128.674  0.00  0.00    +0.000 C 
ATOM     20  C   UNL     1      -8.465  -3.186 127.409  0.00  0.00    +0.000 C 
ATOM     21  C   UNL     1      -7.547  -1.889 127.001  0.00  0.00    +0.000 C 
ATOM     22  C   UNL     1      -6.031  -2.267 126.348  0.00  0.00    +0.000 C 
ENDROOT
BRANCH   4  23
ATOM     23  C   UNL     1      -9.146   2.142 123.267  0.00  0.00    +0.000 C 
ATOM     24  C   UNL     1      -8.711   2.961 122.036  0.00  0.00    +0.000 C 
ATOM     25  O   UNL     1     -10.315   1.707 123.271  0.00  0.00    +0.000 OA
ENDBRANCH   4  23
BRANCH   4  26
ATOM     26  O   UNL     1      -8.885   3.005 125.322  0.00  0.00    +0.000 OA
ATOM     27  H   UNL     1      -8.388   3.301 126.113  0.00  0.00    +0.000 HD
ENDBRANCH   4  26
BRANCH   8  28
ATOM     28  O   UNL     1      -9.335  -0.616 124.166  0.00  0.00    +0.000 OA
ATOM     29  H   UNL     1      -9.906  -0.292 124.889  0.00  0.00    +0.000 HD
ENDBRANCH   8  28
TORSDOF 3
ENDMDL
MODEL 2
REMARK VINA RESULT:      -8.7      2.273      3.510
REMARK  Name = Fluorometholone
REMARK  7 active torsions:
REMARK  status: ('A' for Active; 'I' for Inactive)
REMARK    1  A    between atoms: C_5  and  O_6
REMARK    2  A    between atoms: C_5  and  C_7
REMARK    3  A    between atoms: C_7  and  C_8
REMARK    4  A    between atoms: C_10  and  C_11
REMARK    5  A    between atoms: C_13  and  O_14
REMARK    6  A    between atoms: C_20  and  C_21
REMARK    7  A    between atoms: C_28  and  C_29
REMARK                            x       y       z     vdW  Elec       q    Type
REMARK                         _______ _______ _______ _____ _____    ______ ____
ROOT
ATOM      1  C   UNL     1      -6.212  -2.306 124.476  0.00  0.00    +0.000 C 
ATOM      2  C   UNL     1      -6.451  -3.717 124.451  0.00  0.00    +0.000 C 
ATOM      3  C   UNL     1      -7.708  -2.956 124.711  0.00  0.00    +0.000 C 
ATOM      4  C   UNL     1      -7.635  -0.942 124.376  0.00  0.00    +0.000 C 
ATOM      5  C   UNL     1      -7.842  -1.950 123.540  0.00  0.00    +0.000 C 
ATOM      6  C   UNL     1      -7.623  -2.102 122.067  0.00  0.00    +0.000 C 
ATOM      7  C   UNL     1      -9.447  -1.866 124.597  0.00  0.00    +0.000 C 
ATOM      8  C   UNL     1      -9.064  -1.413 126.272  0.00  0.00    +0.000 C 
ATOM      9  C   UNL     1      -7.576  -1.823 127.044  0.00  0.00    +0.000 C 
ATOM     10  F   UNL     1      -7.310  -3.184 126.762  0.00  0.00    +0.000 F 
ATOM     11  C   UNL     1      -6.193  -1.586 126.191  0.00  0.00    +0.000 C 
ATOM     12  C   UNL     1      -5.109  -2.428 126.879  0.00  0.00    +0.000 C 
ATOM     13  C   UNL     1      -5.163  -2.276 128.379  0.00  0.00    +0.000 C 
ATOM     14  C   UNL     1      -4.014  -3.068 128.949  0.00  0.00    +0.000 C 
ATOM     15  C   UNL     1      -6.409  -2.939 128.929  0.00  0.00    +0.000 C 
ATOM     16  C   UNL     1      -6.452  -3.790 129.985  0.00  0.00    +0.000 C 
ATOM     17  C   UNL     1      -6.116  -2.858 131.054  0.00  0.00    +0.000 C 
ATOM     18  O   UNL     1      -5.130  -2.912 131.759  0.00  0.00    +0.000 OA
ATOM     19  C   UNL     1      -7.322  -1.987 131.182  0.00  0.00    +0.000 C 
ATOM     20  C   UNL     1      -8.051  -1.631 130.047  0.00  0.00    +0.000 C 
ATOM     21  C   UNL     1      -7.754  -2.333 128.594  0.00  0.00    +0.000 C 
ATOM     22  C   UNL     1      -8.626  -3.754 128.299  0.00  0.00    +0.000 C 
ENDROOT
BRANCH   4  23
ATOM     23  C   UNL     1      -8.534   0.254 123.549  0.00  0.00    +0.000 C 
ATOM     24  C   UNL     1      -9.692  -0.007 122.566  0.00  0.00    +0.000 C 
ATOM     25  O   UNL     1      -8.200   1.442 123.725  0.00  0.00    +0.000 OA
ENDBRANCH   4  23
BRANCH   4  26
ATOM     26  O   UNL     1      -6.370  -0.246 123.872  0.00  0.00    +0.000 OA
ATOM     27  H   UNL     1      -6.490   0.083 122.957  0.00  0.00    +0.000 HD
ENDBRANCH   4  26
BRANCH   8  28
ATOM     28  O   UNL     1      -9.278   0.010 126.348  0.00  0.00    +0.000 OA
ATOM     29  H   UNL     1      -8.519   0.467 126.759  0.00  0.00    +0.000 HD
ENDBRANCH   8  28
TORSDOF 3
ENDMDL
MODEL 3
REMARK VINA RESULT:      -8.6      5.619      7.113
REMARK  Name = Fluorometholone
REMARK  7 active torsions:
REMARK  status: ('A' for Active; 'I' for Inactive)
REMARK    1  A    between atoms: C_5  and  O_6
REMARK    2  A    between atoms: C_5  and  C_7
REMARK    3  A    between atoms: C_7  and  C_8
REMARK    4  A    between atoms: C_10  and  C_11
REMARK    5  A    between atoms: C_13  and  O_14
REMARK    6  A    between atoms: C_20  and  C_21
REMARK    7  A    between atoms: C_28  and  C_29
REMARK                            x       y       z     vdW  Elec       q    Type
REMARK                         _______ _______ _______ _____ _____    ______ ____
ROOT
ATOM      1  C   UNL     1     -11.561   5.624 131.090  0.00  0.00    +0.000 C 
ATOM      2  C   UNL     1     -10.871   6.161 132.224  0.00  0.00    +0.000 C 
ATOM      3  C   UNL     1     -10.342   6.724 130.948  0.00  0.00    +0.000 C 
ATOM      4  C   UNL     1     -11.464   6.391 129.273  0.00  0.00    +0.000 C 
ATOM      5  C   UNL     1     -11.565   7.324 130.211  0.00  0.00    +0.000 C 
ATOM      6  C   UNL     1     -12.718   8.144 130.700  0.00  0.00    +0.000 C 
ATOM      7  C   UNL     1      -9.978   7.797 129.232  0.00  0.00    +0.000 C 
ATOM      8  C   UNL     1      -9.110   6.335 128.714  0.00  0.00    +0.000 C 
ATOM      9  C   UNL     1      -9.132   4.858 129.605  0.00  0.00    +0.000 C 
ATOM     10  F   UNL     1      -8.917   5.178 130.967  0.00  0.00    +0.000 F 
ATOM     11  C   UNL     1     -10.586   4.338 130.167  0.00  0.00    +0.000 C 
ATOM     12  C   UNL     1     -10.283   3.314 131.270  0.00  0.00    +0.000 C 
ATOM     13  C   UNL     1      -9.195   2.356 130.851  0.00  0.00    +0.000 C 
ATOM     14  C   UNL     1      -9.035   1.349 131.960  0.00  0.00    +0.000 C 
ATOM     15  C   UNL     1      -7.864   3.074 130.777  0.00  0.00    +0.000 C 
ATOM     16  C   UNL     1      -6.699   2.639 131.319  0.00  0.00    +0.000 C 
ATOM     17  C   UNL     1      -6.458   1.483 130.466  0.00  0.00    +0.000 C 
ATOM     18  O   UNL     1      -6.419   0.326 130.831  0.00  0.00    +0.000 OA
ATOM     19  C   UNL     1      -6.099   2.066 129.139  0.00  0.00    +0.000 C 
ATOM     20  C   UNL     1      -6.718   3.236 128.699  0.00  0.00    +0.000 C 
ATOM     21  C   UNL     1      -7.669   4.121 129.701  0.00  0.00    +0.000 C 
ATOM     22  C   UNL     1      -6.850   5.293 130.608  0.00  0.00    +0.000 C 
ENDROOT
BRANCH   4  23
ATOM     23  C   UNL     1     -12.113   7.283 127.967  0.00  0.00    +0.000 C 
ATOM     24  C   UNL     1     -12.727   8.694 128.054  0.00  0.00    +0.000 C 
ATOM     25  O   UNL     1     -12.127   6.729 126.850  0.00  0.00    +0.000 OA
ENDBRANCH   4  23
BRANCH   4  26
ATOM     26  O   UNL     1     -12.785   5.621 129.318  0.00  0.00    +0.000 OA
ATOM     27  H   UNL     1     -12.661   4.695 129.024  0.00  0.00    +0.000 HD
ENDBRANCH   4  26
BRANCH   8  28
ATOM     28  O   UNL     1      -9.532   6.094 127.357  0.00  0.00    +0.000 OA
ATOM     29  H   UNL     1     -10.502   6.151 127.266  0.00  0.00    +0.000 HD
ENDBRANCH   8  28
TORSDOF 3
ENDMDL
MODEL 4
REMARK VINA RESULT:      -8.6      2.612      4.868
REMARK  Name = Fluorometholone
REMARK  7 active torsions:
REMARK  status: ('A' for Active; 'I' for Inactive)
REMARK    1  A    between atoms: C_5  and  O_6
REMARK    2  A    between atoms: C_5  and  C_7
REMARK    3  A    between atoms: C_7  and  C_8
REMARK    4  A    between atoms: C_10  and  C_11
REMARK    5  A    between atoms: C_13  and  O_14
REMARK    6  A    between atoms: C_20  and  C_21
REMARK    7  A    between atoms: C_28  and  C_29
REMARK                            x       y       z     vdW  Elec       q    Type
REMARK                         _______ _______ _______ _____ _____    ______ ____
ROOT
ATOM      1  C   UNL     1      -5.944  -1.470 125.127  0.00  0.00    +0.000 C 
ATOM      2  C   UNL     1      -5.518  -2.103 126.338  0.00  0.00    +0.000 C 
ATOM      3  C   UNL     1      -6.999  -1.919 126.312  0.00  0.00    +0.000 C 
ATOM      4  C   UNL     1      -7.818  -1.415 124.509  0.00  0.00    +0.000 C 
ATOM      5  C   UNL     1      -7.485  -2.598 125.007  0.00  0.00    +0.000 C 
ATOM      6  C   UNL     1      -7.113  -3.896 124.362  0.00  0.00    +0.000 C 
ATOM      7  C   UNL     1      -9.029  -2.067 126.025  0.00  0.00    +0.000 C 
ATOM      8  C   UNL     1      -9.017  -0.312 126.300  0.00  0.00    +0.000 C 
ATOM      9  C   UNL     1      -7.566   0.613 126.440  0.00  0.00    +0.000 C 
ATOM     10  F   UNL     1      -6.694  -0.091 127.304  0.00  0.00    +0.000 F 
ATOM     11  C   UNL     1      -6.380   0.325 125.340  0.00  0.00    +0.000 C 
ATOM     12  C   UNL     1      -5.087   0.899 125.937  0.00  0.00    +0.000 C 
ATOM     13  C   UNL     1      -5.315   2.266 126.535  0.00  0.00    +0.000 C 
ATOM     14  C   UNL     1      -3.978   2.772 127.013  0.00  0.00    +0.000 C 
ATOM     15  C   UNL     1      -6.164   2.158 127.784  0.00  0.00    +0.000 C 
ATOM     16  C   UNL     1      -5.896   2.747 128.977  0.00  0.00    +0.000 C 
ATOM     17  C   UNL     1      -6.098   4.141 128.602  0.00  0.00    +0.000 C 
ATOM     18  O   UNL     1      -5.249   5.008 128.609  0.00  0.00    +0.000 OA
ATOM     19  C   UNL     1      -7.573   4.266 128.407  0.00  0.00    +0.000 C 
ATOM     20  C   UNL     1      -8.298   3.206 127.861  0.00  0.00    +0.000 C 
ATOM     21  C   UNL     1      -7.609   1.733 127.637  0.00  0.00    +0.000 C 
ATOM     22  C   UNL     1      -7.721   0.688 128.965  0.00  0.00    +0.000 C 
ENDROOT
BRANCH   4  23
ATOM     23  C   UNL     1      -9.097  -1.924 123.495  0.00  0.00    +0.000 C 
ATOM     24  C   UNL     1      -9.614  -3.369 123.352  0.00  0.00    +0.000 C 
ATOM     25  O   UNL     1      -9.635  -1.058 122.777  0.00  0.00    +0.000 OA
ENDBRANCH   4  23
BRANCH   4  26
ATOM     26  O   UNL     1      -6.971  -1.247 123.248  0.00  0.00    +0.000 OA
ATOM     27  H   UNL     1      -6.931  -2.083 122.737  0.00  0.00    +0.000 HD
ENDBRANCH   4  26
BRANCH   8  28
ATOM     28  O   UNL     1      -9.855   0.248 125.270  0.00  0.00    +0.000 OA
ATOM     29  H   UNL     1      -9.859   1.224 125.301  0.00  0.00    +0.000 HD
ENDBRANCH   8  28
TORSDOF 3
ENDMDL
MODEL 5
REMARK VINA RESULT:      -8.5      1.914      3.414
REMARK  Name = Fluorometholone
REMARK  7 active torsions:
REMARK  status: ('A' for Active; 'I' for Inactive)
REMARK    1  A    between atoms: C_5  and  O_6
REMARK    2  A    between atoms: C_5  and  C_7
REMARK    3  A    between atoms: C_7  and  C_8
REMARK    4  A    between atoms: C_10  and  C_11
REMARK    5  A    between atoms: C_13  and  O_14
REMARK    6  A    between atoms: C_20  and  C_21
REMARK    7  A    between atoms: C_28  and  C_29
REMARK                            x       y       z     vdW  Elec       q    Type
REMARK                         _______ _______ _______ _____ _____    ______ ____
ROOT
ATOM      1  C   UNL     1      -5.617  -1.641 125.284  0.00  0.00    +0.000 C 
ATOM      2  C   UNL     1      -6.047  -2.957 124.922  0.00  0.00    +0.000 C 
ATOM      3  C   UNL     1      -7.202  -2.093 125.303  0.00  0.00    +0.000 C 
ATOM      4  C   UNL     1      -6.827  -0.090 125.449  0.00  0.00    +0.000 C 
ATOM      5  C   UNL     1      -7.111  -0.842 124.394  0.00  0.00    +0.000 C 
ATOM      6  C   UNL     1      -6.810  -0.691 122.936  0.00  0.00    +0.000 C 
ATOM      7  C   UNL     1      -8.761  -0.756 125.379  0.00  0.00    +0.000 C 
ATOM      8  C   UNL     1      -8.440  -0.754 127.127  0.00  0.00    +0.000 C 
ATOM      9  C   UNL     1      -7.083  -1.546 127.840  0.00  0.00    +0.000 C 
ATOM     10  F   UNL     1      -6.988  -2.833 127.259  0.00  0.00    +0.000 F 
ATOM     11  C   UNL     1      -5.623  -1.335 127.118  0.00  0.00    +0.000 C 
ATOM     12  C   UNL     1      -4.717  -2.463 127.633  0.00  0.00    +0.000 C 
ATOM     13  C   UNL     1      -4.858  -2.647 129.124  0.00  0.00    +0.000 C 
ATOM     14  C   UNL     1      -3.873  -3.710 129.538  0.00  0.00    +0.000 C 
ATOM     15  C   UNL     1      -6.219  -3.220 129.457  0.00  0.00    +0.000 C 
ATOM     16  C   UNL     1      -6.455  -4.270 130.283  0.00  0.00    +0.000 C 
ATOM     17  C   UNL     1      -6.073  -3.663 131.552  0.00  0.00    +0.000 C 
ATOM     18  O   UNL     1      -5.156  -4.022 132.262  0.00  0.00    +0.000 OA
ATOM     19  C   UNL     1      -7.152  -2.671 131.832  0.00  0.00    +0.000 C 
ATOM     20  C   UNL     1      -7.742  -1.964 130.784  0.00  0.00    +0.000 C 
ATOM     21  C   UNL     1      -7.441  -2.358 129.220  0.00  0.00    +0.000 C 
ATOM     22  C   UNL     1      -8.477  -3.529 128.569  0.00  0.00    +0.000 C 
ENDROOT
BRANCH   4  23
ATOM     23  C   UNL     1      -7.491   1.382 124.889  0.00  0.00    +0.000 C 
ATOM     24  C   UNL     1      -8.231   1.588 123.552  0.00  0.00    +0.000 C 
ATOM     25  O   UNL     1      -7.331   2.390 125.606  0.00  0.00    +0.000 OA
ENDBRANCH   4  23
BRANCH   4  26
ATOM     26  O   UNL     1      -5.446   0.502 125.170  0.00  0.00    +0.000 OA
ATOM     27  H   UNL     1      -5.392   1.430 125.481  0.00  0.00    +0.000 HD
ENDBRANCH   4  26
BRANCH   8  28
ATOM     28  O   UNL     1      -8.461   0.631 127.524  0.00  0.00    +0.000 OA
ATOM     29  H   UNL     1      -8.297   1.225 126.767  0.00  0.00    +0.000 HD
ENDBRANCH   8  28
TORSDOF 3
ENDMDL
MODEL 6
REMARK VINA RESULT:      -8.3      2.561      6.496
REMARK  Name = Fluorometholone
REMARK  7 active torsions:
REMARK  status: ('A' for Active; 'I' for Inactive)
REMARK    1  A    between atoms: C_5  and  O_6
REMARK    2  A    between atoms: C_5  and  C_7
REMARK    3  A    between atoms: C_7  and  C_8
REMARK    4  A    between atoms: C_10  and  C_11
REMARK    5  A    between atoms: C_13  and  O_14
REMARK    6  A    between atoms: C_20  and  C_21
REMARK    7  A    between atoms: C_28  and  C_29
REMARK                            x       y       z     vdW  Elec       q    Type
REMARK                         _______ _______ _______ _____ _____    ______ ____
ROOT
ATOM      1  C   UNL     1      -6.976  -0.213 130.355  0.00  0.00    +0.000 C 
ATOM      2  C   UNL     1      -8.271  -0.619 130.809  0.00  0.00    +0.000 C 
ATOM      3  C   UNL     1      -7.357  -1.788 130.654  0.00  0.00    +0.000 C 
ATOM      4  C   UNL     1      -5.373  -1.363 130.415  0.00  0.00    +0.000 C 
ATOM      5  C   UNL     1      -6.109  -1.464 131.513  0.00  0.00    +0.000 C 
ATOM      6  C   UNL     1      -5.968  -0.874 132.881  0.00  0.00    +0.000 C 
ATOM      7  C   UNL     1      -5.950  -3.272 130.873  0.00  0.00    +0.000 C 
ATOM      8  C   UNL     1      -5.967  -3.303 129.096  0.00  0.00    +0.000 C 
ATOM      9  C   UNL     1      -6.822  -2.150 128.138  0.00  0.00    +0.000 C 
ATOM     10  F   UNL     1      -8.110  -1.998 128.703  0.00  0.00    +0.000 F 
ATOM     11  C   UNL     1      -6.675  -0.568 128.555  0.00  0.00    +0.000 C 
ATOM     12  C   UNL     1      -7.844   0.167 127.884  0.00  0.00    +0.000 C 
ATOM     13  C   UNL     1      -8.025  -0.273 126.452  0.00  0.00    +0.000 C 
ATOM     14  C   UNL     1      -9.132   0.562 125.864  0.00  0.00    +0.000 C 
ATOM     15  C   UNL     1      -8.536  -1.698 126.401  0.00  0.00    +0.000 C 
ATOM     16  C   UNL     1      -9.577  -2.138 125.650  0.00  0.00    +0.000 C 
ATOM     17  C   UNL     1      -8.991  -1.988 124.324  0.00  0.00    +0.000 C 
ATOM     18  O   UNL     1      -9.392  -1.247 123.451  0.00  0.00    +0.000 OA
ATOM     19  C   UNL     1      -7.952  -3.057 124.251  0.00  0.00    +0.000 C 
ATOM     20  C   UNL     1      -7.216  -3.396 125.387  0.00  0.00    +0.000 C 
ATOM     21  C   UNL     1      -7.620  -2.809 126.865  0.00  0.00    +0.000 C 
ATOM     22  C   UNL     1      -8.741  -3.746 127.721  0.00  0.00    +0.000 C 
ENDROOT
BRANCH   4  23
ATOM     23  C   UNL     1      -3.870  -1.837 131.078  0.00  0.00    +0.000 C 
ATOM     24  C   UNL     1      -3.594  -2.130 132.566  0.00  0.00    +0.000 C 
ATOM     25  O   UNL     1      -2.902  -1.917 130.297  0.00  0.00    +0.000 OA
ENDBRANCH   4  23
BRANCH   4  26
ATOM     26  O   UNL     1      -4.843   0.071 130.408  0.00  0.00    +0.000 OA
ATOM     27  H   UNL     1      -4.837   0.440 129.501  0.00  0.00    +0.000 HD
ENDBRANCH   4  26
BRANCH   8  28
ATOM     28  O   UNL     1      -4.583  -3.341 128.695  0.00  0.00    +0.000 OA
ATOM     29  H   UNL     1      -4.350  -2.576 128.135  0.00  0.00    +0.000 HD
ENDBRANCH   8  28
TORSDOF 3
ENDMDL
MODEL 7
REMARK VINA RESULT:      -8.3      2.942      6.720
REMARK  Name = Fluorometholone
REMARK  7 active torsions:
REMARK  status: ('A' for Active; 'I' for Inactive)
REMARK    1  A    between atoms: C_5  and  O_6
REMARK    2  A    between atoms: C_5  and  C_7
REMARK    3  A    between atoms: C_7  and  C_8
REMARK    4  A    between atoms: C_10  and  C_11
REMARK    5  A    between atoms: C_13  and  O_14
REMARK    6  A    between atoms: C_20  and  C_21
REMARK    7  A    between atoms: C_28  and  C_29
REMARK                            x       y       z     vdW  Elec       q    Type
REMARK                         _______ _______ _______ _____ _____    ______ ____
ROOT
ATOM      1  C   UNL     1      -5.358  -2.798 131.188  0.00  0.00    +0.000 C 
ATOM      2  C   UNL     1      -4.427  -3.485 130.345  0.00  0.00    +0.000 C 
ATOM      3  C   UNL     1      -4.297  -2.005 130.207  0.00  0.00    +0.000 C 
ATOM      4  C   UNL     1      -5.245  -0.875 131.620  0.00  0.00    +0.000 C 
ATOM      5  C   UNL     1      -4.059  -1.467 131.640  0.00  0.00    +0.000 C 
ATOM      6  C   UNL     1      -3.195  -1.961 132.758  0.00  0.00    +0.000 C 
ATOM      7  C   UNL     1      -3.846  -0.009 130.403  0.00  0.00    +0.000 C 
ATOM      8  C   UNL     1      -5.340   0.237 129.473  0.00  0.00    +0.000 C 
ATOM      9  C   UNL     1      -6.428  -1.042 129.076  0.00  0.00    +0.000 C 
ATOM     10  F   UNL     1      -5.654  -2.129 128.606  0.00  0.00    +0.000 F 
ATOM     11  C   UNL     1      -6.817  -2.099 130.272  0.00  0.00    +0.000 C 
ATOM     12  C   UNL     1      -7.386  -3.346 129.580  0.00  0.00    +0.000 C 
ATOM     13  C   UNL     1      -8.359  -2.975 128.488  0.00  0.00    +0.000 C 
ATOM     14  C   UNL     1      -8.921  -4.259 127.935  0.00  0.00    +0.000 C 
ATOM     15  C   UNL     1      -7.627  -2.334 127.328  0.00  0.00    +0.000 C 
ATOM     16  C   UNL     1      -7.780  -2.658 126.019  0.00  0.00    +0.000 C 
ATOM     17  C   UNL     1      -9.139  -2.175 125.813  0.00  0.00    +0.000 C 
ATOM     18  O   UNL     1     -10.099  -2.859 125.524  0.00  0.00    +0.000 OA
ATOM     19  C   UNL     1      -9.018  -0.688 125.854  0.00  0.00    +0.000 C 
ATOM     20  C   UNL     1      -8.107  -0.085 126.721  0.00  0.00    +0.000 C 
ATOM     21  C   UNL     1      -6.996  -0.974 127.538  0.00  0.00    +0.000 C 
ATOM     22  C   UNL     1      -5.538  -1.222 126.714  0.00  0.00    +0.000 C 
ENDROOT
BRANCH   4  23
ATOM     23  C   UNL     1      -4.891   0.426 132.672  0.00  0.00    +0.000 C 
ATOM     24  C   UNL     1      -3.519   0.719 133.312  0.00  0.00    +0.000 C 
ATOM     25  O   UNL     1      -5.832   1.182 132.981  0.00  0.00    +0.000 OA
ENDBRANCH   4  23
BRANCH   4  26
ATOM     26  O   UNL     1      -6.036  -1.502 132.769  0.00  0.00    +0.000 OA
ATOM     27  H   UNL     1      -6.972  -1.641 132.517  0.00  0.00    +0.000 HD
ENDBRANCH   4  26
BRANCH   8  28
ATOM     28  O   UNL     1      -6.052   1.290 130.152  0.00  0.00    +0.000 OA
ATOM     29  H   UNL     1      -6.805   1.616 129.622  0.00  0.00    +0.000 HD
ENDBRANCH   8  28
TORSDOF 3
ENDMDL
MODEL 8
REMARK VINA RESULT:      -8.2      4.413      6.536
REMARK  Name = Fluorometholone
REMARK  7 active torsions:
REMARK  status: ('A' for Active; 'I' for Inactive)
REMARK    1  A    between atoms: C_5  and  O_6
REMARK    2  A    between atoms: C_5  and  C_7
REMARK    3  A    between atoms: C_7  and  C_8
REMARK    4  A    between atoms: C_10  and  C_11
REMARK    5  A    between atoms: C_13  and  O_14
REMARK    6  A    between atoms: C_20  and  C_21
REMARK    7  A    between atoms: C_28  and  C_29
REMARK                            x       y       z     vdW  Elec       q    Type
REMARK                         _______ _______ _______ _____ _____    ______ ____
ROOT
ATOM      1  C   UNL     1      -4.760   3.587 125.870  0.00  0.00    +0.000 C 
ATOM      2  C   UNL     1      -4.056   2.455 126.394  0.00  0.00    +0.000 C 
ATOM      3  C   UNL     1      -5.452   2.518 126.917  0.00  0.00    +0.000 C 
ATOM      4  C   UNL     1      -6.718   3.814 125.971  0.00  0.00    +0.000 C 
ATOM      5  C   UNL     1      -6.368   2.571 125.669  0.00  0.00    +0.000 C 
ATOM      6  C   UNL     1      -6.334   1.818 124.375  0.00  0.00    +0.000 C 
ATOM      7  C   UNL     1      -7.480   2.391 127.228  0.00  0.00    +0.000 C 
ATOM      8  C   UNL     1      -7.216   3.752 128.339  0.00  0.00    +0.000 C 
ATOM      9  C   UNL     1      -5.707   4.577 128.480  0.00  0.00    +0.000 C 
ATOM     10  F   UNL     1      -4.690   3.596 128.553  0.00  0.00    +0.000 F 
ATOM     11  C   UNL     1      -4.936   4.982 127.087  0.00  0.00    +0.000 C 
ATOM     12  C   UNL     1      -3.474   5.261 127.466  0.00  0.00    +0.000 C 
ATOM     13  C   UNL     1      -3.379   6.107 128.711  0.00  0.00    +0.000 C 
ATOM     14  C   UNL     1      -1.918   6.393 128.947  0.00  0.00    +0.000 C 
ATOM     15  C   UNL     1      -3.824   5.313 129.921  0.00  0.00    +0.000 C 
ATOM     16  C   UNL     1      -3.158   5.226 131.100  0.00  0.00    +0.000 C 
ATOM     17  C   UNL     1      -3.325   6.595 131.568  0.00  0.00    +0.000 C 
ATOM     18  O   UNL     1      -2.433   7.396 131.756  0.00  0.00    +0.000 OA
ATOM     19  C   UNL     1      -4.772   6.695 131.923  0.00  0.00    +0.000 C 
ATOM     20  C   UNL     1      -5.726   6.015 131.165  0.00  0.00    +0.000 C 
ATOM     21  C   UNL     1      -5.282   4.919 130.027  0.00  0.00    +0.000 C 
ATOM     22  C   UNL     1      -5.095   3.336 130.599  0.00  0.00    +0.000 C 
ENDROOT
BRANCH   4  23
ATOM     23  C   UNL     1      -8.284   3.805 125.284  0.00  0.00    +0.000 C 
ATOM     24  C   UNL     1      -8.891   2.668 124.438  0.00  0.00    +0.000 C 
ATOM     25  O   UNL     1      -8.984   4.823 125.448  0.00  0.00    +0.000 OA
ENDBRANCH   4  23
BRANCH   4  26
ATOM     26  O   UNL     1      -6.272   4.665 124.782  0.00  0.00    +0.000 OA
ATOM     27  H   UNL     1      -6.973   4.709 124.099  0.00  0.00    +0.000 HD
ENDBRANCH   4  26
BRANCH   8  28
ATOM     28  O   UNL     1      -8.264   4.698 128.050  0.00  0.00    +0.000 OA
ATOM     29  H   UNL     1      -7.904   5.551 127.739  0.00  0.00    +0.000 HD
ENDBRANCH   8  28
TORSDOF 3
ENDMDL
MODEL 9
REMARK VINA RESULT:      -8.2      1.864      2.909
REMARK  Name = Fluorometholone
REMARK  7 active torsions:
REMARK  status: ('A' for Active; 'I' for Inactive)
REMARK    1  A    between atoms: C_5  and  O_6
REMARK    2  A    between atoms: C_5  and  C_7
REMARK    3  A    between atoms: C_7  and  C_8
REMARK    4  A    between atoms: C_10  and  C_11
REMARK    5  A    between atoms: C_13  and  O_14
REMARK    6  A    between atoms: C_20  and  C_21
REMARK    7  A    between atoms: C_28  and  C_29
REMARK                            x       y       z     vdW  Elec       q    Type
REMARK                         _______ _______ _______ _____ _____    ______ ____
ROOT
ATOM      1  C   UNL     1      -7.508   0.690 125.945  0.00  0.00    +0.000 C 
ATOM      2  C   UNL     1      -6.134   1.070 126.074  0.00  0.00    +0.000 C 
ATOM      3  C   UNL     1      -6.273  -0.394 125.820  0.00  0.00    +0.000 C 
ATOM      4  C   UNL     1      -8.112  -1.038 125.206  0.00  0.00    +0.000 C 
ATOM      5  C   UNL     1      -7.104  -0.519 124.519  0.00  0.00    +0.000 C 
ATOM      6  C   UNL     1      -7.044   0.228 123.223  0.00  0.00    +0.000 C 
ATOM      7  C   UNL     1      -6.493  -2.274 125.017  0.00  0.00    +0.000 C 
ATOM      8  C   UNL     1      -7.089  -2.701 126.636  0.00  0.00    +0.000 C 
ATOM      9  C   UNL     1      -7.381  -1.535 127.874  0.00  0.00    +0.000 C 
ATOM     10  F   UNL     1      -6.269  -0.660 127.906  0.00  0.00    +0.000 F 
ATOM     11  C   UNL     1      -8.187  -0.169 127.448  0.00  0.00    +0.000 C 
ATOM     12  C   UNL     1      -7.912   0.860 128.555  0.00  0.00    +0.000 C 
ATOM     13  C   UNL     1      -8.044   0.243 129.926  0.00  0.00    +0.000 C 
ATOM     14  C   UNL     1      -7.842   1.346 130.933  0.00  0.00    +0.000 C 
ATOM     15  C   UNL     1      -6.912  -0.731 130.175  0.00  0.00    +0.000 C 
ATOM     16  C   UNL     1      -6.141  -0.779 131.291  0.00  0.00    +0.000 C 
ATOM     17  C   UNL     1      -7.139  -1.237 132.248  0.00  0.00    +0.000 C 
ATOM     18  O   UNL     1      -7.532  -0.618 133.216  0.00  0.00    +0.000 OA
ATOM     19  C   UNL     1      -7.398  -2.657 131.868  0.00  0.00    +0.000 C 
ATOM     20  C   UNL     1      -7.385  -3.035 130.525  0.00  0.00    +0.000 C 
ATOM     21  C   UNL     1      -6.865  -2.004 129.359  0.00  0.00    +0.000 C 
ATOM     22  C   UNL     1      -5.202  -2.066 129.047  0.00  0.00    +0.000 C 
ENDROOT
BRANCH   4  23
ATOM     23  C   UNL     1      -8.784  -2.006 123.968  0.00  0.00    +0.000 C 
ATOM     24  C   UNL     1      -8.297  -2.068 122.507  0.00  0.00    +0.000 C 
ATOM     25  O   UNL     1      -9.781  -2.695 124.261  0.00  0.00    +0.000 OA
ENDBRANCH   4  23
BRANCH   4  26
ATOM     26  O   UNL     1      -9.285  -0.078 125.001  0.00  0.00    +0.000 OA
ATOM     27  H   UNL     1     -10.002  -0.503 124.487  0.00  0.00    +0.000 HD
ENDBRANCH   4  26
BRANCH   8  28
ATOM     28  O   UNL     1      -8.277  -3.488 126.417  0.00  0.00    +0.000 OA
ATOM     29  H   UNL     1      -8.098  -4.443 126.510  0.00  0.00    +0.000 HD
ENDBRANCH   8  28
TORSDOF 3
ENDMDL
