MODEL 1
REMARK VINA RESULT:      -8.3      0.000      0.000
REMARK  Name = Fluocortolone
REMARK  7 active torsions:
REMARK  status: ('A' for Active; 'I' for Inactive)
REMARK    1  A    between atoms: C_4  and  C_5
REMARK    2  A    between atoms: C_6  and  C_7
REMARK    3  A    between atoms: C_7  and  C_9
REMARK    4  A    between atoms: C_9  and  O_10
REMARK    5  A    between atoms: C_11  and  C_12
REMARK    6  A    between atoms: C_14  and  O_15
REMARK    7  A    between atoms: C_29  and  C_30
REMARK                            x       y       z     vdW  Elec       q    Type
REMARK                         _______ _______ _______ _____ _____    ______ ____
ROOT
ATOM      1  C   UNL     1      -7.971  -3.269 130.030  0.00  0.00    +0.000 C 
ATOM      2  C   UNL     1      -6.706  -3.941 129.920  0.00  0.00    +0.000 C 
ATOM      3  C   UNL     1      -6.371  -2.456 129.720  0.00  0.00    +0.000 C 
ATOM      4  C   UNL     1      -4.867  -2.069 128.757  0.00  0.00    +0.000 C 
ATOM      5  C   UNL     1      -7.994  -1.286 130.305  0.00  0.00    +0.000 C 
ATOM      6  C   UNL     1      -7.283  -2.011 131.162  0.00  0.00    +0.000 C 
ATOM      7  C   UNL     1      -7.363  -2.351 132.589  0.00  0.00    +0.000 C 
ATOM      8  C   UNL     1      -6.295  -0.555 130.486  0.00  0.00    +0.000 C 
ATOM      9  C   UNL     1      -6.856  -0.228 128.748  0.00  0.00    +0.000 C 
ATOM     10  C   UNL     1      -7.249  -1.600 127.728  0.00  0.00    +0.000 C 
ATOM     11  C   UNL     1      -8.333  -2.680 128.372  0.00  0.00    +0.000 C 
ATOM     12  C   UNL     1      -8.399  -3.906 127.474  0.00  0.00    +0.000 C 
ATOM     13  C   UNL     1      -8.618  -3.531 126.023  0.00  0.00    +0.000 C 
ATOM     14  F   UNL     1      -8.625  -4.688 125.308  0.00  0.00    +0.000 F 
ATOM     15  C   UNL     1      -7.672  -2.528 125.420  0.00  0.00    +0.000 C 
ATOM     16  C   UNL     1      -7.102  -2.643 124.205  0.00  0.00    +0.000 C 
ATOM     17  C   UNL     1      -6.342  -1.432 123.788  0.00  0.00    +0.000 C 
ATOM     18  O   UNL     1      -6.673  -0.574 122.982  0.00  0.00    +0.000 OA
ATOM     19  C   UNL     1      -5.117  -1.240 124.633  0.00  0.00    +0.000 C 
ATOM     20  C   UNL     1      -5.896  -0.762 125.645  0.00  0.00    +0.000 C 
ATOM     21  C   UNL     1      -7.361  -1.261 126.214  0.00  0.00    +0.000 C 
ATOM     22  C   UNL     1      -8.627  -0.400 126.168  0.00  0.00    +0.000 C 
ENDROOT
BRANCH   5  23
ATOM     23  C   UNL     1      -8.490   0.075 131.521  0.00  0.00    +0.000 C 
ATOM     24  O   UNL     1      -9.664   0.209 131.922  0.00  0.00    +0.000 OA
BRANCH  23  25
ATOM     25  C   UNL     1      -7.550   1.251 132.131  0.00  0.00    +0.000 C 
BRANCH  25  26
ATOM     26  O   UNL     1      -7.404   1.114 133.589  0.00  0.00    +0.000 OA
ATOM     27  H   UNL     1      -7.830   1.882 134.022  0.00  0.00    +0.000 HD
ENDBRANCH  25  26
ENDBRANCH  23  25
ENDBRANCH   5  23
BRANCH   9  28
ATOM     28  O   UNL     1      -8.041   0.606 128.846  0.00  0.00    +0.000 OA
ATOM     29  H   UNL     1      -7.820   1.526 128.607  0.00  0.00    +0.000 HD
ENDBRANCH   9  28
TORSDOF 4
ENDMDL
MODEL 2
REMARK VINA RESULT:      -8.2      1.826      2.329
REMARK  Name = Fluocortolone
REMARK  7 active torsions:
REMARK  status: ('A' for Active; 'I' for Inactive)
REMARK    1  A    between atoms: C_4  and  C_5
REMARK    2  A    between atoms: C_6  and  C_7
REMARK    3  A    between atoms: C_7  and  C_9
REMARK    4  A    between atoms: C_9  and  O_10
REMARK    5  A    between atoms: C_11  and  C_12
REMARK    6  A    between atoms: C_14  and  O_15
REMARK    7  A    between atoms: C_29  and  C_30
REMARK                            x       y       z     vdW  Elec       q    Type
REMARK                         _______ _______ _______ _____ _____    ______ ____
ROOT
ATOM      1  C   UNL     1      -6.346  -3.449 131.327  0.00  0.00    +0.000 C 
ATOM      2  C   UNL     1      -5.573  -4.529 130.781  0.00  0.00    +0.000 C 
ATOM      3  C   UNL     1      -4.862  -3.260 130.290  0.00  0.00    +0.000 C 
ATOM      4  C   UNL     1      -3.886  -3.402 128.751  0.00  0.00    +0.000 C 
ATOM      5  C   UNL     1      -5.556  -1.609 131.354  0.00  0.00    +0.000 C 
ATOM      6  C   UNL     1      -4.849  -2.583 131.917  0.00  0.00    +0.000 C 
ATOM      7  C   UNL     1      -4.424  -2.938 133.278  0.00  0.00    +0.000 C 
ATOM      8  C   UNL     1      -3.808  -1.557 130.728  0.00  0.00    +0.000 C 
ATOM      9  C   UNL     1      -4.906  -0.965 129.354  0.00  0.00    +0.000 C 
ATOM     10  C   UNL     1      -6.148  -2.050 128.756  0.00  0.00    +0.000 C 
ATOM     11  C   UNL     1      -7.153  -2.690 129.912  0.00  0.00    +0.000 C 
ATOM     12  C   UNL     1      -8.019  -3.763 129.271  0.00  0.00    +0.000 C 
ATOM     13  C   UNL     1      -8.692  -3.266 128.009  0.00  0.00    +0.000 C 
ATOM     14  F   UNL     1      -9.408  -4.305 127.502  0.00  0.00    +0.000 F 
ATOM     15  C   UNL     1      -7.812  -2.648 126.957  0.00  0.00    +0.000 C 
ATOM     16  C   UNL     1      -7.897  -2.905 125.637  0.00  0.00    +0.000 C 
ATOM     17  C   UNL     1      -7.021  -2.036 124.805  0.00  0.00    +0.000 C 
ATOM     18  O   UNL     1      -7.343  -1.079 124.114  0.00  0.00    +0.000 OA
ATOM     19  C   UNL     1      -5.569  -2.344 125.037  0.00  0.00    +0.000 C 
ATOM     20  C   UNL     1      -5.619  -1.664 126.218  0.00  0.00    +0.000 C 
ATOM     21  C   UNL     1      -6.772  -1.621 127.397  0.00  0.00    +0.000 C 
ATOM     22  C   UNL     1      -7.547  -0.357 127.780  0.00  0.00    +0.000 C 
ENDROOT
BRANCH   5  23
ATOM     23  C   UNL     1      -4.976  -0.220 132.499  0.00  0.00    +0.000 C 
ATOM     24  O   UNL     1      -3.925   0.417 132.289  0.00  0.00    +0.000 OA
BRANCH  23  25
ATOM     25  C   UNL     1      -5.665   0.275 133.885  0.00  0.00    +0.000 C 
BRANCH  25  26
ATOM     26  O   UNL     1      -7.086   0.600 133.687  0.00  0.00    +0.000 OA
ATOM     27  H   UNL     1      -7.613   0.142 134.373  0.00  0.00    +0.000 HD
ENDBRANCH  25  26
ENDBRANCH  23  25
ENDBRANCH   5  23
BRANCH   9  28
ATOM     28  O   UNL     1      -5.561   0.237 129.837  0.00  0.00    +0.000 OA
ATOM     29  H   UNL     1      -5.324   0.996 129.270  0.00  0.00    +0.000 HD
ENDBRANCH   9  28
TORSDOF 4
ENDMDL
MODEL 3
REMARK VINA RESULT:      -7.9      5.711      8.315
REMARK  Name = Fluocortolone
REMARK  7 active torsions:
REMARK  status: ('A' for Active; 'I' for Inactive)
REMARK    1  A    between atoms: C_4  and  C_5
REMARK    2  A    between atoms: C_6  and  C_7
REMARK    3  A    between atoms: C_7  and  C_9
REMARK    4  A    between atoms: C_9  and  O_10
REMARK    5  A    between atoms: C_11  and  C_12
REMARK    6  A    between atoms: C_14  and  O_15
REMARK    7  A    between atoms: C_29  and  C_30
REMARK                            x       y       z     vdW  Elec       q    Type
REMARK                         _______ _______ _______ _____ _____    ______ ____
ROOT
ATOM      1  C   UNL     1     -11.185   5.299 131.356  0.00  0.00    +0.000 C 
ATOM      2  C   UNL     1     -10.477   5.854 132.476  0.00  0.00    +0.000 C 
ATOM      3  C   UNL     1      -9.711   6.363 131.246  0.00  0.00    +0.000 C 
ATOM      4  C   UNL     1      -7.948   6.783 131.485  0.00  0.00    +0.000 C 
ATOM      5  C   UNL     1     -10.851   6.050 129.530  0.00  0.00    +0.000 C 
ATOM      6  C   UNL     1     -11.205   6.904 130.484  0.00  0.00    +0.000 C 
ATOM      7  C   UNL     1     -12.370   7.752 130.773  0.00  0.00    +0.000 C 
ATOM      8  C   UNL     1      -9.686   7.497 129.539  0.00  0.00    +0.000 C 
ATOM      9  C   UNL     1      -8.715   6.010 129.004  0.00  0.00    +0.000 C 
ATOM     10  C   UNL     1      -8.617   4.643 130.099  0.00  0.00    +0.000 C 
ATOM     11  C   UNL     1     -10.071   4.073 130.661  0.00  0.00    +0.000 C 
ATOM     12  C   UNL     1      -9.808   3.047 131.753  0.00  0.00    +0.000 C 
ATOM     13  C   UNL     1      -8.810   1.998 131.312  0.00  0.00    +0.000 C 
ATOM     14  F   UNL     1      -8.622   1.158 132.365  0.00  0.00    +0.000 F 
ATOM     15  C   UNL     1      -7.495   2.484 130.765  0.00  0.00    +0.000 C 
ATOM     16  C   UNL     1      -6.292   1.973 131.090  0.00  0.00    +0.000 C 
ATOM     17  C   UNL     1      -5.172   2.528 130.281  0.00  0.00    +0.000 C 
ATOM     18  O   UNL     1      -4.573   1.996 129.356  0.00  0.00    +0.000 OA
ATOM     19  C   UNL     1      -4.934   3.976 130.599  0.00  0.00    +0.000 C 
ATOM     20  C   UNL     1      -6.028   4.313 129.856  0.00  0.00    +0.000 C 
ATOM     21  C   UNL     1      -7.514   3.609 129.733  0.00  0.00    +0.000 C 
ATOM     22  C   UNL     1      -8.059   2.998 128.438  0.00  0.00    +0.000 C 
ENDROOT
BRANCH   5  23
ATOM     23  C   UNL     1     -11.665   6.969 128.092  0.00  0.00    +0.000 C 
ATOM     24  O   UNL     1     -12.793   6.657 127.659  0.00  0.00    +0.000 OA
BRANCH  23  25
ATOM     25  C   UNL     1     -11.036   8.175 127.202  0.00  0.00    +0.000 C 
BRANCH  25  26
ATOM     26  O   UNL     1     -10.703   7.717 125.844  0.00  0.00    +0.000 OA
ATOM     27  H   UNL     1     -11.152   6.862 125.681  0.00  0.00    +0.000 HD
ENDBRANCH  25  26
ENDBRANCH  23  25
ENDBRANCH   5  23
BRANCH   9  28
ATOM     28  O   UNL     1      -9.318   5.545 127.767  0.00  0.00    +0.000 OA
ATOM     29  H   UNL     1      -9.415   4.574 127.789  0.00  0.00    +0.000 HD
ENDBRANCH   9  28
TORSDOF 4
ENDMDL
MODEL 4
REMARK VINA RESULT:      -7.8      6.266      9.338
REMARK  Name = Fluocortolone
REMARK  7 active torsions:
REMARK  status: ('A' for Active; 'I' for Inactive)
REMARK    1  A    between atoms: C_4  and  C_5
REMARK    2  A    between atoms: C_6  and  C_7
REMARK    3  A    between atoms: C_7  and  C_9
REMARK    4  A    between atoms: C_9  and  O_10
REMARK    5  A    between atoms: C_11  and  C_12
REMARK    6  A    between atoms: C_14  and  O_15
REMARK    7  A    between atoms: C_29  and  C_30
REMARK                            x       y       z     vdW  Elec       q    Type
REMARK                         _______ _______ _______ _____ _____    ______ ____
ROOT
ATOM      1  C   UNL     1      -4.120   6.399 133.194  0.00  0.00    +0.000 C 
ATOM      2  C   UNL     1      -3.525   5.230 133.781  0.00  0.00    +0.000 C 
ATOM      3  C   UNL     1      -3.857   4.812 132.341  0.00  0.00    +0.000 C 
ATOM      4  C   UNL     1      -4.121   3.029 132.037  0.00  0.00    +0.000 C 
ATOM      5  C   UNL     1      -4.294   6.501 131.201  0.00  0.00    +0.000 C 
ATOM      6  C   UNL     1      -3.085   6.259 131.695  0.00  0.00    +0.000 C 
ATOM      7  C   UNL     1      -1.801   6.971 131.760  0.00  0.00    +0.000 C 
ATOM      8  C   UNL     1      -3.542   5.045 130.328  0.00  0.00    +0.000 C 
ATOM      9  C   UNL     1      -5.376   4.770 130.383  0.00  0.00    +0.000 C 
ATOM     10  C   UNL     1      -6.160   4.698 131.950  0.00  0.00    +0.000 C 
ATOM     11  C   UNL     1      -5.851   5.976 132.962  0.00  0.00    +0.000 C 
ATOM     12  C   UNL     1      -6.415   5.662 134.339  0.00  0.00    +0.000 C 
ATOM     13  C   UNL     1      -7.858   5.207 134.266  0.00  0.00    +0.000 C 
ATOM     14  F   UNL     1      -8.251   4.920 135.536  0.00  0.00    +0.000 F 
ATOM     15  C   UNL     1      -8.176   4.072 133.331  0.00  0.00    +0.000 C 
ATOM     16  C   UNL     1      -8.967   3.025 133.635  0.00  0.00    +0.000 C 
ATOM     17  C   UNL     1      -9.247   2.134 132.475  0.00  0.00    +0.000 C 
ATOM     18  O   UNL     1     -10.273   2.056 131.814  0.00  0.00    +0.000 OA
ATOM     19  C   UNL     1      -8.009   1.407 132.035  0.00  0.00    +0.000 C 
ATOM     20  C   UNL     1      -7.562   2.544 131.430  0.00  0.00    +0.000 C 
ATOM     21  C   UNL     1      -7.604   4.120 131.916  0.00  0.00    +0.000 C 
ATOM     22  C   UNL     1      -8.375   5.216 131.175  0.00  0.00    +0.000 C 
ENDROOT
BRANCH   5  23
ATOM     23  C   UNL     1      -3.725   7.458 129.673  0.00  0.00    +0.000 C 
ATOM     24  O   UNL     1      -3.825   8.699 129.592  0.00  0.00    +0.000 OA
BRANCH  23  25
ATOM     25  C   UNL     1      -3.132   6.851 128.287  0.00  0.00    +0.000 C 
BRANCH  25  26
ATOM     26  O   UNL     1      -4.214   6.519 127.346  0.00  0.00    +0.000 OA
ATOM     27  H   UNL     1      -5.071   6.596 127.811  0.00  0.00    +0.000 HD
ENDBRANCH  25  26
ENDBRANCH  23  25
ENDBRANCH   5  23
BRANCH   9  28
ATOM     28  O   UNL     1      -5.979   5.858 129.634  0.00  0.00    +0.000 OA
ATOM     29  H   UNL     1      -6.904   5.985 129.920  0.00  0.00    +0.000 HD
ENDBRANCH   9  28
TORSDOF 4
ENDMDL
MODEL 5
REMARK VINA RESULT:      -7.7      5.819      9.007
REMARK  Name = Fluocortolone
REMARK  7 active torsions:
REMARK  status: ('A' for Active; 'I' for Inactive)
REMARK    1  A    between atoms: C_4  and  C_5
REMARK    2  A    between atoms: C_6  and  C_7
REMARK    3  A    between atoms: C_7  and  C_9
REMARK    4  A    between atoms: C_9  and  O_10
REMARK    5  A    between atoms: C_11  and  C_12
REMARK    6  A    between atoms: C_14  and  O_15
REMARK    7  A    between atoms: C_29  and  C_30
REMARK                            x       y       z     vdW  Elec       q    Type
REMARK                         _______ _______ _______ _____ _____    ______ ____
ROOT
ATOM      1  C   UNL     1      -3.860   4.300 126.977  0.00  0.00    +0.000 C 
ATOM      2  C   UNL     1      -2.954   3.193 127.113  0.00  0.00    +0.000 C 
ATOM      3  C   UNL     1      -4.135   2.839 128.029  0.00  0.00    +0.000 C 
ATOM      4  C   UNL     1      -3.788   1.715 129.428  0.00  0.00    +0.000 C 
ATOM      5  C   UNL     1      -5.748   4.091 127.611  0.00  0.00    +0.000 C 
ATOM      6  C   UNL     1      -5.293   3.190 126.748  0.00  0.00    +0.000 C 
ATOM      7  C   UNL     1      -5.572   2.817 125.354  0.00  0.00    +0.000 C 
ATOM      8  C   UNL     1      -6.122   2.381 128.234  0.00  0.00    +0.000 C 
ATOM      9  C   UNL     1      -5.841   3.460 129.717  0.00  0.00    +0.000 C 
ATOM     10  C   UNL     1      -4.290   4.263 129.879  0.00  0.00    +0.000 C 
ATOM     11  C   UNL     1      -3.803   5.147 128.560  0.00  0.00    +0.000 C 
ATOM     12  C   UNL     1      -2.364   5.592 128.770  0.00  0.00    +0.000 C 
ATOM     13  C   UNL     1      -2.169   6.250 130.120  0.00  0.00    +0.000 C 
ATOM     14  F   UNL     1      -0.852   6.575 130.219  0.00  0.00    +0.000 F 
ATOM     15  C   UNL     1      -2.632   5.489 131.332  0.00  0.00    +0.000 C 
ATOM     16  C   UNL     1      -1.929   5.362 132.474  0.00  0.00    +0.000 C 
ATOM     17  C   UNL     1      -2.690   4.700 133.570  0.00  0.00    +0.000 C 
ATOM     18  O   UNL     1      -3.206   5.217 134.551  0.00  0.00    +0.000 OA
ATOM     19  C   UNL     1      -2.945   3.253 133.259  0.00  0.00    +0.000 C 
ATOM     20  C   UNL     1      -3.934   3.618 132.394  0.00  0.00    +0.000 C 
ATOM     21  C   UNL     1      -4.016   4.845 131.295  0.00  0.00    +0.000 C 
ATOM     22  C   UNL     1      -5.028   5.991 131.376  0.00  0.00    +0.000 C 
ENDROOT
BRANCH   5  23
ATOM     23  C   UNL     1      -7.549   4.061 127.038  0.00  0.00    +0.000 C 
ATOM     24  O   UNL     1      -8.420   3.385 127.623  0.00  0.00    +0.000 OA
BRANCH  23  25
ATOM     25  C   UNL     1      -8.188   4.796 125.737  0.00  0.00    +0.000 C 
BRANCH  25  26
ATOM     26  O   UNL     1      -9.031   3.871 124.963  0.00  0.00    +0.000 OA
ATOM     27  H   UNL     1      -9.969   4.119 125.089  0.00  0.00    +0.000 HD
ENDBRANCH  25  26
ENDBRANCH  23  25
ENDBRANCH   5  23
BRANCH   9  28
ATOM     28  O   UNL     1      -6.870   4.484 129.684  0.00  0.00    +0.000 OA
ATOM     29  H   UNL     1      -7.664   4.142 129.231  0.00  0.00    +0.000 HD
ENDBRANCH   9  28
TORSDOF 4
ENDMDL
MODEL 6
REMARK VINA RESULT:      -7.7      2.772      6.388
REMARK  Name = Fluocortolone
REMARK  7 active torsions:
REMARK  status: ('A' for Active; 'I' for Inactive)
REMARK    1  A    between atoms: C_4  and  C_5
REMARK    2  A    between atoms: C_6  and  C_7
REMARK    3  A    between atoms: C_7  and  C_9
REMARK    4  A    between atoms: C_9  and  O_10
REMARK    5  A    between atoms: C_11  and  C_12
REMARK    6  A    between atoms: C_14  and  O_15
REMARK    7  A    between atoms: C_29  and  C_30
REMARK                            x       y       z     vdW  Elec       q    Type
REMARK                         _______ _______ _______ _____ _____    ______ ____
ROOT
ATOM      1  C   UNL     1      -7.247  -3.332 128.441  0.00  0.00    +0.000 C 
ATOM      2  C   UNL     1      -8.422  -3.155 129.247  0.00  0.00    +0.000 C 
ATOM      3  C   UNL     1      -7.714  -1.793 129.295  0.00  0.00    +0.000 C 
ATOM      4  C   UNL     1      -8.043  -0.740 130.752  0.00  0.00    +0.000 C 
ATOM      5  C   UNL     1      -6.246  -1.713 127.818  0.00  0.00    +0.000 C 
ATOM      6  C   UNL     1      -7.544  -1.770 127.541  0.00  0.00    +0.000 C 
ATOM      7  C   UNL     1      -8.368  -1.899 126.331  0.00  0.00    +0.000 C 
ATOM      8  C   UNL     1      -7.063  -0.118 128.309  0.00  0.00    +0.000 C 
ATOM      9  C   UNL     1      -5.666  -0.412 129.494  0.00  0.00    +0.000 C 
ATOM     10  C   UNL     1      -5.685  -1.880 130.454  0.00  0.00    +0.000 C 
ATOM     11  C   UNL     1      -5.874  -3.290 129.599  0.00  0.00    +0.000 C 
ATOM     12  C   UNL     1      -6.089  -4.434 130.578  0.00  0.00    +0.000 C 
ATOM     13  C   UNL     1      -5.033  -4.453 131.663  0.00  0.00    +0.000 C 
ATOM     14  F   UNL     1      -5.336  -5.483 132.497  0.00  0.00    +0.000 F 
ATOM     15  C   UNL     1      -4.813  -3.179 132.433  0.00  0.00    +0.000 C 
ATOM     16  C   UNL     1      -4.677  -3.104 133.771  0.00  0.00    +0.000 C 
ATOM     17  C   UNL     1      -4.305  -1.747 134.256  0.00  0.00    +0.000 C 
ATOM     18  O   UNL     1      -3.211  -1.355 134.640  0.00  0.00    +0.000 OA
ATOM     19  C   UNL     1      -5.426  -0.769 134.053  0.00  0.00    +0.000 C 
ATOM     20  C   UNL     1      -5.120  -0.700 132.726  0.00  0.00    +0.000 C 
ATOM     21  C   UNL     1      -4.690  -1.874 131.650  0.00  0.00    +0.000 C 
ATOM     22  C   UNL     1      -3.333  -1.921 130.943  0.00  0.00    +0.000 C 
ENDROOT
BRANCH   5  23
ATOM     23  C   UNL     1      -5.730  -0.744 126.278  0.00  0.00    +0.000 C 
ATOM     24  O   UNL     1      -5.303  -1.309 125.252  0.00  0.00    +0.000 OA
BRANCH  23  25
ATOM     25  C   UNL     1      -5.689   0.870 126.090  0.00  0.00    +0.000 C 
BRANCH  25  26
ATOM     26  O   UNL     1      -4.360   1.410 126.417  0.00  0.00    +0.000 OA
ATOM     27  H   UNL     1      -4.416   1.890 127.268  0.00  0.00    +0.000 HD
ENDBRANCH  25  26
ENDBRANCH  23  25
ENDBRANCH   5  23
BRANCH   9  28
ATOM     28  O   UNL     1      -4.447  -0.414 128.704  0.00  0.00    +0.000 OA
ATOM     29  H   UNL     1      -4.065   0.484 128.680  0.00  0.00    +0.000 HD
ENDBRANCH   9  28
TORSDOF 4
ENDMDL
MODEL 7
REMARK VINA RESULT:      -7.6      6.334      8.878
REMARK  Name = Fluocortolone
REMARK  7 active torsions:
REMARK  status: ('A' for Active; 'I' for Inactive)
REMARK    1  A    between atoms: C_4  and  C_5
REMARK    2  A    between atoms: C_6  and  C_7
REMARK    3  A    between atoms: C_7  and  C_9
REMARK    4  A    between atoms: C_9  and  O_10
REMARK    5  A    between atoms: C_11  and  C_12
REMARK    6  A    between atoms: C_14  and  O_15
REMARK    7  A    between atoms: C_29  and  C_30
REMARK                            x       y       z     vdW  Elec       q    Type
REMARK                         _______ _______ _______ _____ _____    ______ ____
ROOT
ATOM      1  C   UNL     1      -7.101   3.493 129.572  0.00  0.00    +0.000 C 
ATOM      2  C   UNL     1      -6.661   2.544 130.556  0.00  0.00    +0.000 C 
ATOM      3  C   UNL     1      -7.064   3.783 131.369  0.00  0.00    +0.000 C 
ATOM      4  C   UNL     1      -6.261   4.002 132.996  0.00  0.00    +0.000 C 
ATOM      5  C   UNL     1      -8.157   5.087 130.166  0.00  0.00    +0.000 C 
ATOM      6  C   UNL     1      -8.608   3.890 130.525  0.00  0.00    +0.000 C 
ATOM      7  C   UNL     1      -9.777   3.056 130.214  0.00  0.00    +0.000 C 
ATOM      8  C   UNL     1      -8.528   5.078 131.986  0.00  0.00    +0.000 C 
ATOM      9  C   UNL     1      -7.104   6.237 131.717  0.00  0.00    +0.000 C 
ATOM     10  C   UNL     1      -5.638   5.600 130.995  0.00  0.00    +0.000 C 
ATOM     11  C   UNL     1      -5.846   4.778 129.567  0.00  0.00    +0.000 C 
ATOM     12  C   UNL     1      -4.532   4.110 129.190  0.00  0.00    +0.000 C 
ATOM     13  C   UNL     1      -3.372   5.081 129.233  0.00  0.00    +0.000 C 
ATOM     14  F   UNL     1      -2.251   4.380 128.916  0.00  0.00    +0.000 F 
ATOM     15  C   UNL     1      -3.179   5.868 130.502  0.00  0.00    +0.000 C 
ATOM     16  C   UNL     1      -1.993   6.066 131.109  0.00  0.00    +0.000 C 
ATOM     17  C   UNL     1      -2.063   7.016 132.253  0.00  0.00    +0.000 C 
ATOM     18  O   UNL     1      -1.692   8.182 132.290  0.00  0.00    +0.000 OA
ATOM     19  C   UNL     1      -2.848   6.439 133.395  0.00  0.00    +0.000 C 
ATOM     20  C   UNL     1      -4.006   6.701 132.725  0.00  0.00    +0.000 C 
ATOM     21  C   UNL     1      -4.400   6.531 131.133  0.00  0.00    +0.000 C 
ATOM     22  C   UNL     1      -4.774   7.704 130.222  0.00  0.00    +0.000 C 
ENDROOT
BRANCH   5  23
ATOM     23  C   UNL     1      -9.844   5.930 130.029  0.00  0.00    +0.000 C 
ATOM     24  O   UNL     1     -10.389   6.147 128.928  0.00  0.00    +0.000 OA
BRANCH  23  25
ATOM     25  C   UNL     1     -10.752   6.535 131.234  0.00  0.00    +0.000 C 
BRANCH  25  26
ATOM     26  O   UNL     1     -11.942   5.703 131.473  0.00  0.00    +0.000 OA
ATOM     27  H   UNL     1     -12.241   5.840 132.395  0.00  0.00    +0.000 HD
ENDBRANCH  25  26
ENDBRANCH  23  25
ENDBRANCH   5  23
BRANCH   9  28
ATOM     28  O   UNL     1      -7.594   7.303 130.861  0.00  0.00    +0.000 OA
ATOM     29  H   UNL     1      -7.802   6.948 129.976  0.00  0.00    +0.000 HD
ENDBRANCH   9  28
TORSDOF 4
ENDMDL
MODEL 8
REMARK VINA RESULT:      -7.4      2.828      6.505
REMARK  Name = Fluocortolone
REMARK  7 active torsions:
REMARK  status: ('A' for Active; 'I' for Inactive)
REMARK    1  A    between atoms: C_4  and  C_5
REMARK    2  A    between atoms: C_6  and  C_7
REMARK    3  A    between atoms: C_7  and  C_9
REMARK    4  A    between atoms: C_9  and  O_10
REMARK    5  A    between atoms: C_11  and  C_12
REMARK    6  A    between atoms: C_14  and  O_15
REMARK    7  A    between atoms: C_29  and  C_30
REMARK                            x       y       z     vdW  Elec       q    Type
REMARK                         _______ _______ _______ _____ _____    ______ ____
ROOT
ATOM      1  C   UNL     1      -8.229   1.484 125.996  0.00  0.00    +0.000 C 
ATOM      2  C   UNL     1      -6.929   2.092 126.057  0.00  0.00    +0.000 C 
ATOM      3  C   UNL     1      -6.661   0.660 125.572  0.00  0.00    +0.000 C 
ATOM      4  C   UNL     1      -5.007  -0.035 125.920  0.00  0.00    +0.000 C 
ATOM      5  C   UNL     1      -8.451  -0.228 124.980  0.00  0.00    +0.000 C 
ATOM      6  C   UNL     1      -7.907   0.798 124.334  0.00  0.00    +0.000 C 
ATOM      7  C   UNL     1      -8.288   1.674 123.217  0.00  0.00    +0.000 C 
ATOM      8  C   UNL     1      -6.894  -0.778 124.130  0.00  0.00    +0.000 C 
ATOM      9  C   UNL     1      -7.063  -1.784 125.680  0.00  0.00    +0.000 C 
ATOM     10  C   UNL     1      -7.116  -0.941 127.217  0.00  0.00    +0.000 C 
ATOM     11  C   UNL     1      -8.241   0.275 127.325  0.00  0.00    +0.000 C 
ATOM     12  C   UNL     1      -8.015   1.041 128.619  0.00  0.00    +0.000 C 
ATOM     13  C   UNL     1      -7.921   0.115 129.814  0.00  0.00    +0.000 C 
ATOM     14  F   UNL     1      -7.684   0.893 130.904  0.00  0.00    +0.000 F 
ATOM     15  C   UNL     1      -6.934  -1.017 129.732  0.00  0.00    +0.000 C 
ATOM     16  C   UNL     1      -6.094  -1.378 130.721  0.00  0.00    +0.000 C 
ATOM     17  C   UNL     1      -5.344  -2.633 130.438  0.00  0.00    +0.000 C 
ATOM     18  O   UNL     1      -5.540  -3.750 130.897  0.00  0.00    +0.000 OA
ATOM     19  C   UNL     1      -4.361  -2.439 129.319  0.00  0.00    +0.000 C 
ATOM     20  C   UNL     1      -5.383  -2.498 128.418  0.00  0.00    +0.000 C 
ATOM     21  C   UNL     1      -6.901  -1.856 128.456  0.00  0.00    +0.000 C 
ATOM     22  C   UNL     1      -8.179  -2.700 128.461  0.00  0.00    +0.000 C 
ENDROOT
BRANCH   5  23
ATOM     23  C   UNL     1      -9.306  -1.007 123.484  0.00  0.00    +0.000 C 
ATOM     24  O   UNL     1     -10.216  -0.424 122.862  0.00  0.00    +0.000 OA
BRANCH  23  25
ATOM     25  C   UNL     1      -9.064  -2.491 122.865  0.00  0.00    +0.000 C 
BRANCH  25  26
ATOM     26  O   UNL     1     -10.062  -3.447 123.370  0.00  0.00    +0.000 OA
ATOM     27  H   UNL     1     -10.320  -3.184 124.277  0.00  0.00    +0.000 HD
ENDBRANCH  25  26
ENDBRANCH  23  25
ENDBRANCH   5  23
BRANCH   9  28
ATOM     28  O   UNL     1      -8.293  -2.543 125.547  0.00  0.00    +0.000 OA
ATOM     29  H   UNL     1      -9.006  -2.112 126.056  0.00  0.00    +0.000 HD
ENDBRANCH   9  28
TORSDOF 4
ENDMDL
MODEL 9
REMARK VINA RESULT:      -7.1      6.127      8.646
REMARK  Name = Fluocortolone
REMARK  7 active torsions:
REMARK  status: ('A' for Active; 'I' for Inactive)
REMARK    1  A    between atoms: C_4  and  C_5
REMARK    2  A    between atoms: C_6  and  C_7
REMARK    3  A    between atoms: C_7  and  C_9
REMARK    4  A    between atoms: C_9  and  O_10
REMARK    5  A    between atoms: C_11  and  C_12
REMARK    6  A    between atoms: C_14  and  O_15
REMARK    7  A    between atoms: C_29  and  C_30
REMARK                            x       y       z     vdW  Elec       q    Type
REMARK                         _______ _______ _______ _____ _____    ______ ____
ROOT
ATOM      1  C   UNL     1      -3.177   7.323 130.102  0.00  0.00    +0.000 C 
ATOM      2  C   UNL     1      -4.300   8.183 129.856  0.00  0.00    +0.000 C 
ATOM      3  C   UNL     1      -4.782   7.226 130.956  0.00  0.00    +0.000 C 
ATOM      4  C   UNL     1      -6.583   6.938 131.073  0.00  0.00    +0.000 C 
ATOM      5  C   UNL     1      -3.152   6.214 131.770  0.00  0.00    +0.000 C 
ATOM      6  C   UNL     1      -3.331   7.523 131.912  0.00  0.00    +0.000 C 
ATOM      7  C   UNL     1      -2.570   8.645 132.479  0.00  0.00    +0.000 C 
ATOM      8  C   UNL     1      -4.609   6.530 132.877  0.00  0.00    +0.000 C 
ATOM      9  C   UNL     1      -4.950   4.961 131.949  0.00  0.00    +0.000 C 
ATOM     10  C   UNL     1      -4.996   5.024 130.197  0.00  0.00    +0.000 C 
ATOM     11  C   UNL     1      -3.672   5.715 129.473  0.00  0.00    +0.000 C 
ATOM     12  C   UNL     1      -3.958   5.892 127.989  0.00  0.00    +0.000 C 
ATOM     13  C   UNL     1      -4.469   4.614 127.357  0.00  0.00    +0.000 C 
ATOM     14  F   UNL     1      -4.725   4.890 126.050  0.00  0.00    +0.000 F 
ATOM     15  C   UNL     1      -5.648   3.945 128.011  0.00  0.00    +0.000 C 
ATOM     16  C   UNL     1      -6.712   3.449 127.352  0.00  0.00    +0.000 C 
ATOM     17  C   UNL     1      -7.653   2.694 128.225  0.00  0.00    +0.000 C 
ATOM     18  O   UNL     1      -7.793   1.482 128.313  0.00  0.00    +0.000 OA
ATOM     19  C   UNL     1      -8.349   3.606 129.194  0.00  0.00    +0.000 C 
ATOM     20  C   UNL     1      -7.218   3.653 129.954  0.00  0.00    +0.000 C 
ATOM     21  C   UNL     1      -5.629   3.770 129.528  0.00  0.00    +0.000 C 
ATOM     22  C   UNL     1      -4.589   2.685 129.825  0.00  0.00    +0.000 C 
ENDROOT
BRANCH   5  23
ATOM     23  C   UNL     1      -2.229   5.936 133.397  0.00  0.00    +0.000 C 
ATOM     24  O   UNL     1      -0.996   5.753 133.436  0.00  0.00    +0.000 OA
BRANCH  23  25
ATOM     25  C   UNL     1      -2.863   5.820 134.889  0.00  0.00    +0.000 C 
BRANCH  25  26
ATOM     26  O   UNL     1      -3.156   4.420 135.235  0.00  0.00    +0.000 OA
ATOM     27  H   UNL     1      -4.113   4.336 135.423  0.00  0.00    +0.000 HD
ENDBRANCH  25  26
ENDBRANCH  23  25
ENDBRANCH   5  23
BRANCH   9  28
ATOM     28  O   UNL     1      -3.913   4.020 132.332  0.00  0.00    +0.000 OA
ATOM     29  H   UNL     1      -3.033   4.418 132.188  0.00  0.00    +0.000 HD
ENDBRANCH   9  28
TORSDOF 4
ENDMDL
