MODEL 1
REMARK VINA RESULT:      -8.7      0.000      0.000
REMARK  Name = Fluocinolone acetonide
REMARK  8 active torsions:
REMARK  status: ('A' for Active; 'I' for Inactive)
REMARK    1  A    between atoms: C_17  and  C_18
REMARK    2  A    between atoms: C_21  and  O_22
REMARK    3  A    between atoms: C_24  and  C_25
REMARK    4  A    between atoms: C_26  and  C_32
REMARK    5  A    between atoms: C_28  and  C_29
REMARK    6  A    between atoms: C_28  and  C_30
REMARK    7  A    between atoms: C_32  and  C_34
REMARK    8  A    between atoms: C_34  and  O_35
REMARK                            x       y       z     vdW  Elec       q    Type
REMARK                         _______ _______ _______ _____ _____    ______ ____
ROOT
ATOM      1  C   UNL     1      -8.741  -1.061 124.641  0.00  0.00    +0.000 C 
ATOM      2  C   UNL     1      -9.483  -0.670 125.898  0.00  0.00    +0.000 C 
ATOM      3  C   UNL     1      -8.450   0.102 126.732  0.00  0.00    +0.000 C 
ATOM      4  C   UNL     1      -7.612  -0.912 127.512  0.00  0.00    +0.000 C 
ATOM      5  C   UNL     1      -8.252  -2.064 128.274  0.00  0.00    +0.000 C 
ATOM      6  C   UNL     1      -7.168  -3.027 128.682  0.00  0.00    +0.000 C 
ATOM      7  F   UNL     1      -7.774  -4.141 129.167  0.00  0.00    +0.000 F 
ATOM      8  C   UNL     1      -6.479  -2.267 129.762  0.00  0.00    +0.000 C 
ATOM      9  C   UNL     1      -6.168  -2.848 130.939  0.00  0.00    +0.000 C 
ATOM     10  C   UNL     1      -5.290  -3.886 130.432  0.00  0.00    +0.000 C 
ATOM     11  O   UNL     1      -5.571  -5.107 130.326  0.00  0.00    +0.000 OA
ATOM     12  C   UNL     1      -4.030  -3.229 130.033  0.00  0.00    +0.000 C 
ATOM     13  C   UNL     1      -4.112  -1.965 129.432  0.00  0.00    +0.000 C 
ATOM     14  C   UNL     1      -5.582  -1.098 129.366  0.00  0.00    +0.000 C 
ATOM     15  C   UNL     1      -5.807  -0.076 130.525  0.00  0.00    +0.000 C 
ATOM     16  C   UNL     1      -6.394  -0.168 128.243  0.00  0.00    +0.000 C 
ATOM     17  F   UNL     1      -7.315   0.645 129.000  0.00  0.00    +0.000 F 
ATOM     18  C   UNL     1      -5.615   1.130 127.552  0.00  0.00    +0.000 C 
ATOM     19  C   UNL     1      -6.735   1.967 126.813  0.00  0.00    +0.000 C 
ATOM     20  C   UNL     1      -7.645   1.157 125.748  0.00  0.00    +0.000 C 
ATOM     21  C   UNL     1      -6.378   1.453 124.796  0.00  0.00    +0.000 C 
ATOM     22  C   UNL     1      -8.012   0.236 124.310  0.00  0.00    +0.000 C 
ATOM     23  O   UNL     1      -6.803  -0.490 123.659  0.00  0.00    +0.000 OA
ATOM     24  C   UNL     1      -6.373  -1.574 124.557  0.00  0.00    +0.000 C 
ATOM     25  C   UNL     1      -5.049  -2.376 124.305  0.00  0.00    +0.000 C 
ATOM     26  C   UNL     1      -5.654  -1.259 125.909  0.00  0.00    +0.000 C 
ATOM     27  O   UNL     1      -7.673  -2.154 124.820  0.00  0.00    +0.000 OA
ENDROOT
BRANCH  18  28
ATOM     28  O   UNL     1      -4.356   1.024 126.852  0.00  0.00    +0.000 OA
ATOM     29  H   UNL     1      -4.048   0.122 126.651  0.00  0.00    +0.000 HD
ENDBRANCH  18  28
BRANCH  22  30
ATOM     30  C   UNL     1      -8.826   1.662 123.807  0.00  0.00    +0.000 C 
ATOM     31  O   UNL     1      -9.957   1.967 124.253  0.00  0.00    +0.000 OA
BRANCH  30  32
ATOM     32  C   UNL     1      -8.497   2.424 122.556  0.00  0.00    +0.000 C 
BRANCH  32  33
ATOM     33  O   UNL     1      -8.250   3.805 122.899  0.00  0.00    +0.000 OA
ATOM     34  H   UNL     1      -8.713   3.998 123.740  0.00  0.00    +0.000 HD
ENDBRANCH  32  33
ENDBRANCH  30  32
ENDBRANCH  22  30
TORSDOF 4
ENDMDL
MODEL 2
REMARK VINA RESULT:      -8.7      6.434      9.794
REMARK  Name = Fluocinolone acetonide
REMARK  8 active torsions:
REMARK  status: ('A' for Active; 'I' for Inactive)
REMARK    1  A    between atoms: C_17  and  C_18
REMARK    2  A    between atoms: C_21  and  O_22
REMARK    3  A    between atoms: C_24  and  C_25
REMARK    4  A    between atoms: C_26  and  C_32
REMARK    5  A    between atoms: C_28  and  C_29
REMARK    6  A    between atoms: C_28  and  C_30
REMARK    7  A    between atoms: C_32  and  C_34
REMARK    8  A    between atoms: C_34  and  O_35
REMARK                            x       y       z     vdW  Elec       q    Type
REMARK                         _______ _______ _______ _____ _____    ______ ____
ROOT
ATOM      1  C   UNL     1      -5.631   5.447 130.216  0.00  0.00    +0.000 C 
ATOM      2  C   UNL     1      -6.012   6.601 131.115  0.00  0.00    +0.000 C 
ATOM      3  C   UNL     1      -7.273   6.120 131.848  0.00  0.00    +0.000 C 
ATOM      4  C   UNL     1      -8.480   6.388 130.949  0.00  0.00    +0.000 C 
ATOM      5  C   UNL     1      -8.674   7.724 130.245  0.00  0.00    +0.000 C 
ATOM      6  C   UNL     1      -9.776   7.574 129.229  0.00  0.00    +0.000 C 
ATOM      7  F   UNL     1      -9.788   8.700 128.472  0.00  0.00    +0.000 F 
ATOM      8  C   UNL     1     -10.981   7.489 130.101  0.00  0.00    +0.000 C 
ATOM      9  C   UNL     1     -12.088   8.214 129.838  0.00  0.00    +0.000 C 
ATOM     10  C   UNL     1     -12.388   7.666 128.529  0.00  0.00    +0.000 C 
ATOM     11  O   UNL     1     -12.200   8.239 127.426  0.00  0.00    +0.000 OA
ATOM     12  C   UNL     1     -12.915   6.304 128.741  0.00  0.00    +0.000 C 
ATOM     13  C   UNL     1     -12.339   5.529 129.757  0.00  0.00    +0.000 C 
ATOM     14  C   UNL     1     -11.227   6.195 130.871  0.00  0.00    +0.000 C 
ATOM     15  C   UNL     1     -11.848   6.699 132.212  0.00  0.00    +0.000 C 
ATOM     16  C   UNL     1      -9.794   5.725 131.585  0.00  0.00    +0.000 C 
ATOM     17  F   UNL     1      -9.661   6.539 132.768  0.00  0.00    +0.000 F 
ATOM     18  C   UNL     1      -9.738   4.283 132.414  0.00  0.00    +0.000 C 
ATOM     19  C   UNL     1      -8.380   4.299 133.223  0.00  0.00    +0.000 C 
ATOM     20  C   UNL     1      -7.038   4.566 132.359  0.00  0.00    +0.000 C 
ATOM     21  C   UNL     1      -7.191   2.987 132.072  0.00  0.00    +0.000 C 
ATOM     22  C   UNL     1      -5.802   4.263 131.161  0.00  0.00    +0.000 C 
ATOM     23  O   UNL     1      -6.204   3.284 130.025  0.00  0.00    +0.000 OA
ATOM     24  C   UNL     1      -7.223   3.935 129.187  0.00  0.00    +0.000 C 
ATOM     25  C   UNL     1      -7.998   3.150 128.073  0.00  0.00    +0.000 C 
ATOM     26  C   UNL     1      -8.677   4.159 129.718  0.00  0.00    +0.000 C 
ATOM     27  O   UNL     1      -6.564   5.213 129.015  0.00  0.00    +0.000 OA
ENDROOT
BRANCH  18  28
ATOM     28  O   UNL     1     -10.096   3.012 131.828  0.00  0.00    +0.000 OA
ATOM     29  H   UNL     1     -10.964   2.649 132.081  0.00  0.00    +0.000 HD
ENDBRANCH  18  28
BRANCH  22  30
ATOM     30  C   UNL     1      -4.785   4.000 132.519  0.00  0.00    +0.000 C 
ATOM     31  O   UNL     1      -4.469   4.931 133.297  0.00  0.00    +0.000 OA
BRANCH  30  32
ATOM     32  C   UNL     1      -3.881   2.812 132.677  0.00  0.00    +0.000 C 
BRANCH  32  33
ATOM     33  O   UNL     1      -2.536   3.275 132.927  0.00  0.00    +0.000 OA
ATOM     34  H   UNL     1      -2.472   3.532 133.870  0.00  0.00    +0.000 HD
ENDBRANCH  32  33
ENDBRANCH  30  32
ENDBRANCH  22  30
TORSDOF 4
ENDMDL
MODEL 3
REMARK VINA RESULT:      -8.4      2.933      7.099
REMARK  Name = Fluocinolone acetonide
REMARK  8 active torsions:
REMARK  status: ('A' for Active; 'I' for Inactive)
REMARK    1  A    between atoms: C_17  and  C_18
REMARK    2  A    between atoms: C_21  and  O_22
REMARK    3  A    between atoms: C_24  and  C_25
REMARK    4  A    between atoms: C_26  and  C_32
REMARK    5  A    between atoms: C_28  and  C_29
REMARK    6  A    between atoms: C_28  and  C_30
REMARK    7  A    between atoms: C_32  and  C_34
REMARK    8  A    between atoms: C_34  and  O_35
REMARK                            x       y       z     vdW  Elec       q    Type
REMARK                         _______ _______ _______ _____ _____    ______ ____
ROOT
ATOM      1  C   UNL     1      -6.973  -2.469 132.944  0.00  0.00    +0.000 C 
ATOM      2  C   UNL     1      -6.095  -3.388 132.128  0.00  0.00    +0.000 C 
ATOM      3  C   UNL     1      -5.468  -2.478 131.062  0.00  0.00    +0.000 C 
ATOM      4  C   UNL     1      -6.456  -2.349 129.902  0.00  0.00    +0.000 C 
ATOM      5  C   UNL     1      -7.159  -3.563 129.310  0.00  0.00    +0.000 C 
ATOM      6  C   UNL     1      -8.259  -3.082 128.401  0.00  0.00    +0.000 C 
ATOM      7  F   UNL     1      -9.003  -4.162 128.054  0.00  0.00    +0.000 F 
ATOM      8  C   UNL     1      -7.485  -2.556 127.241  0.00  0.00    +0.000 C 
ATOM      9  C   UNL     1      -7.827  -2.867 125.973  0.00  0.00    +0.000 C 
ATOM     10  C   UNL     1      -9.161  -2.298 125.972  0.00  0.00    +0.000 C 
ATOM     11  O   UNL     1     -10.240  -2.941 126.028  0.00  0.00    +0.000 OA
ATOM     12  C   UNL     1      -9.005  -0.831 125.933  0.00  0.00    +0.000 C 
ATOM     13  C   UNL     1      -7.955  -0.264 126.669  0.00  0.00    +0.000 C 
ATOM     14  C   UNL     1      -6.751  -1.229 127.402  0.00  0.00    +0.000 C 
ATOM     15  C   UNL     1      -5.457  -1.441 126.554  0.00  0.00    +0.000 C 
ATOM     16  C   UNL     1      -5.932  -1.253 128.856  0.00  0.00    +0.000 C 
ATOM     17  F   UNL     1      -4.733  -2.020 128.617  0.00  0.00    +0.000 F 
ATOM     18  C   UNL     1      -5.116   0.112 129.347  0.00  0.00    +0.000 C 
ATOM     19  C   UNL     1      -4.203  -0.339 130.557  0.00  0.00    +0.000 C 
ATOM     20  C   UNL     1      -4.956  -1.081 131.782  0.00  0.00    +0.000 C 
ATOM     21  C   UNL     1      -5.271   0.443 132.202  0.00  0.00    +0.000 C 
ATOM     22  C   UNL     1      -6.057  -1.264 133.126  0.00  0.00    +0.000 C 
ATOM     23  O   UNL     1      -7.231  -0.248 133.167  0.00  0.00    +0.000 OA
ATOM     24  C   UNL     1      -8.140  -0.541 132.047  0.00  0.00    +0.000 C 
ATOM     25  C   UNL     1      -9.319   0.421 131.670  0.00  0.00    +0.000 C 
ATOM     26  C   UNL     1      -7.721  -0.234 130.572  0.00  0.00    +0.000 C 
ATOM     27  O   UNL     1      -8.246  -1.973 132.236  0.00  0.00    +0.000 OA
ENDROOT
BRANCH  18  28
ATOM     28  O   UNL     1      -5.740   1.406 129.490  0.00  0.00    +0.000 OA
ATOM     29  H   UNL     1      -5.238   2.075 129.989  0.00  0.00    +0.000 HD
ENDBRANCH  18  28
BRANCH  22  30
ATOM     30  C   UNL     1      -4.626  -1.316 134.074  0.00  0.00    +0.000 C 
ATOM     31  O   UNL     1      -3.892  -2.331 134.106  0.00  0.00    +0.000 OA
BRANCH  30  32
ATOM     32  C   UNL     1      -4.338  -0.385 135.216  0.00  0.00    +0.000 C 
BRANCH  32  33
ATOM     33  O   UNL     1      -3.016   0.171 135.048  0.00  0.00    +0.000 OA
ATOM     34  H   UNL     1      -2.584   0.204 135.927  0.00  0.00    +0.000 HD
ENDBRANCH  32  33
ENDBRANCH  30  32
ENDBRANCH  22  30
TORSDOF 4
ENDMDL
MODEL 4
REMARK VINA RESULT:      -8.1      3.530      5.157
REMARK  Name = Fluocinolone acetonide
REMARK  8 active torsions:
REMARK  status: ('A' for Active; 'I' for Inactive)
REMARK    1  A    between atoms: C_17  and  C_18
REMARK    2  A    between atoms: C_21  and  O_22
REMARK    3  A    between atoms: C_24  and  C_25
REMARK    4  A    between atoms: C_26  and  C_32
REMARK    5  A    between atoms: C_28  and  C_29
REMARK    6  A    between atoms: C_28  and  C_30
REMARK    7  A    between atoms: C_32  and  C_34
REMARK    8  A    between atoms: C_34  and  O_35
REMARK                            x       y       z     vdW  Elec       q    Type
REMARK                         _______ _______ _______ _____ _____    ______ ____
ROOT
ATOM      1  C   UNL     1      -6.879   2.827 128.740  0.00  0.00    +0.000 C 
ATOM      2  C   UNL     1      -7.761   1.709 128.237  0.00  0.00    +0.000 C 
ATOM      3  C   UNL     1      -8.114   0.900 129.493  0.00  0.00    +0.000 C 
ATOM      4  C   UNL     1      -6.977  -0.086 129.763  0.00  0.00    +0.000 C 
ATOM      5  C   UNL     1      -6.376  -0.939 128.654  0.00  0.00    +0.000 C 
ATOM      6  C   UNL     1      -5.112  -1.574 129.171  0.00  0.00    +0.000 C 
ATOM      7  F   UNL     1      -4.484  -2.151 128.116  0.00  0.00    +0.000 F 
ATOM      8  C   UNL     1      -5.650  -2.596 130.113  0.00  0.00    +0.000 C 
ATOM      9  C   UNL     1      -5.193  -3.865 130.104  0.00  0.00    +0.000 C 
ATOM     10  C   UNL     1      -3.804  -3.588 130.419  0.00  0.00    +0.000 C 
ATOM     11  O   UNL     1      -2.840  -3.628 129.614  0.00  0.00    +0.000 OA
ATOM     12  C   UNL     1      -3.752  -3.218 131.847  0.00  0.00    +0.000 C 
ATOM     13  C   UNL     1      -4.800  -2.443 132.362  0.00  0.00    +0.000 C 
ATOM     14  C   UNL     1      -6.210  -2.124 131.451  0.00  0.00    +0.000 C 
ATOM     15  C   UNL     1      -7.400  -3.104 131.697  0.00  0.00    +0.000 C 
ATOM     16  C   UNL     1      -7.206  -0.814 131.173  0.00  0.00    +0.000 C 
ATOM     17  F   UNL     1      -8.457  -1.364 130.712  0.00  0.00    +0.000 F 
ATOM     18  C   UNL     1      -7.883  -0.023 132.471  0.00  0.00    +0.000 C 
ATOM     19  C   UNL     1      -8.999   0.923 131.870  0.00  0.00    +0.000 C 
ATOM     20  C   UNL     1      -8.519   1.944 130.709  0.00  0.00    +0.000 C 
ATOM     21  C   UNL     1      -8.055   2.809 131.988  0.00  0.00    +0.000 C 
ATOM     22  C   UNL     1      -7.637   3.268 129.987  0.00  0.00    +0.000 C 
ATOM     23  O   UNL     1      -6.350   3.699 130.742  0.00  0.00    +0.000 OA
ATOM     24  C   UNL     1      -5.353   2.624 130.614  0.00  0.00    +0.000 C 
ATOM     25  C   UNL     1      -4.014   2.642 131.430  0.00  0.00    +0.000 C 
ATOM     26  C   UNL     1      -5.531   1.269 131.374  0.00  0.00    +0.000 C 
ATOM     27  O   UNL     1      -5.469   2.403 129.189  0.00  0.00    +0.000 OA
ENDROOT
BRANCH  18  28
ATOM     28  O   UNL     1      -7.111   0.539 133.554  0.00  0.00    +0.000 OA
ATOM     29  H   UNL     1      -6.225   0.161 133.694  0.00  0.00    +0.000 HD
ENDBRANCH  18  28
BRANCH  22  30
ATOM     30  C   UNL     1      -9.172   4.035 129.922  0.00  0.00    +0.000 C 
ATOM     31  O   UNL     1     -10.209   3.410 129.599  0.00  0.00    +0.000 OA
BRANCH  30  32
ATOM     32  C   UNL     1      -9.368   5.521 129.834  0.00  0.00    +0.000 C 
BRANCH  32  33
ATOM     33  O   UNL     1      -9.419   5.907 128.444  0.00  0.00    +0.000 OA
ATOM     34  H   UNL     1     -10.340   5.796 128.130  0.00  0.00    +0.000 HD
ENDBRANCH  32  33
ENDBRANCH  30  32
ENDBRANCH  22  30
TORSDOF 4
ENDMDL
MODEL 5
REMARK VINA RESULT:      -7.9      5.746      8.918
REMARK  Name = Fluocinolone acetonide
REMARK  8 active torsions:
REMARK  status: ('A' for Active; 'I' for Inactive)
REMARK    1  A    between atoms: C_17  and  C_18
REMARK    2  A    between atoms: C_21  and  O_22
REMARK    3  A    between atoms: C_24  and  C_25
REMARK    4  A    between atoms: C_26  and  C_32
REMARK    5  A    between atoms: C_28  and  C_29
REMARK    6  A    between atoms: C_28  and  C_30
REMARK    7  A    between atoms: C_32  and  C_34
REMARK    8  A    between atoms: C_34  and  O_35
REMARK                            x       y       z     vdW  Elec       q    Type
REMARK                         _______ _______ _______ _____ _____    ______ ____
ROOT
ATOM      1  C   UNL     1      -4.036   4.789 132.857  0.00  0.00    +0.000 C 
ATOM      2  C   UNL     1      -2.991   3.870 132.270  0.00  0.00    +0.000 C 
ATOM      3  C   UNL     1      -2.704   4.450 130.877  0.00  0.00    +0.000 C 
ATOM      4  C   UNL     1      -3.758   3.912 129.909  0.00  0.00    +0.000 C 
ATOM      5  C   UNL     1      -4.135   2.438 129.873  0.00  0.00    +0.000 C 
ATOM      6  C   UNL     1      -5.378   2.282 129.038  0.00  0.00    +0.000 C 
ATOM      7  F   UNL     1      -5.817   1.008 129.192  0.00  0.00    +0.000 F 
ATOM      8  C   UNL     1      -4.851   2.516 127.664  0.00  0.00    +0.000 C 
ATOM      9  C   UNL     1      -5.170   1.694 126.642  0.00  0.00    +0.000 C 
ATOM     10  C   UNL     1      -6.607   1.894 126.657  0.00  0.00    +0.000 C 
ATOM     11  O   UNL     1      -7.462   1.081 127.091  0.00  0.00    +0.000 OA
ATOM     12  C   UNL     1      -6.862   3.238 126.106  0.00  0.00    +0.000 C 
ATOM     13  C   UNL     1      -5.966   4.264 126.438  0.00  0.00    +0.000 C 
ATOM     14  C   UNL     1      -4.501   3.943 127.256  0.00  0.00    +0.000 C 
ATOM     15  C   UNL     1      -3.253   3.748 126.338  0.00  0.00    +0.000 C 
ATOM     16  C   UNL     1      -3.619   4.643 128.488  0.00  0.00    +0.000 C 
ATOM     17  F   UNL     1      -2.274   4.147 128.338  0.00  0.00    +0.000 F 
ATOM     18  C   UNL     1      -3.182   6.244 128.362  0.00  0.00    +0.000 C 
ATOM     19  C   UNL     1      -2.108   6.492 129.496  0.00  0.00    +0.000 C 
ATOM     20  C   UNL     1      -2.553   6.091 131.000  0.00  0.00    +0.000 C 
ATOM     21  C   UNL     1      -3.248   7.544 130.929  0.00  0.00    +0.000 C 
ATOM     22  C   UNL     1      -3.477   6.156 132.481  0.00  0.00    +0.000 C 
ATOM     23  O   UNL     1      -4.880   6.811 132.361  0.00  0.00    +0.000 OA
ATOM     24  C   UNL     1      -5.740   5.926 131.559  0.00  0.00    +0.000 C 
ATOM     25  C   UNL     1      -7.158   6.379 131.068  0.00  0.00    +0.000 C 
ATOM     26  C   UNL     1      -5.512   5.765 130.019  0.00  0.00    +0.000 C 
ATOM     27  O   UNL     1      -5.437   4.680 132.229  0.00  0.00    +0.000 OA
ENDROOT
BRANCH  18  28
ATOM     28  O   UNL     1      -4.128   7.315 128.159  0.00  0.00    +0.000 OA
ATOM     29  H   UNL     1      -4.646   7.284 127.335  0.00  0.00    +0.000 HD
ENDBRANCH  18  28
BRANCH  22  30
ATOM     30  C   UNL     1      -2.032   6.791 133.158  0.00  0.00    +0.000 C 
ATOM     31  O   UNL     1      -1.033   6.067 133.378  0.00  0.00    +0.000 OA
BRANCH  30  32
ATOM     32  C   UNL     1      -1.952   8.091 133.904  0.00  0.00    +0.000 C 
BRANCH  32  33
ATOM     33  O   UNL     1      -0.964   8.935 133.273  0.00  0.00    +0.000 OA
ATOM     34  H   UNL     1      -0.106   8.791 133.725  0.00  0.00    +0.000 HD
ENDBRANCH  32  33
ENDBRANCH  30  32
ENDBRANCH  22  30
TORSDOF 4
ENDMDL
MODEL 6
REMARK VINA RESULT:      -7.9      2.247      3.353
REMARK  Name = Fluocinolone acetonide
REMARK  8 active torsions:
REMARK  status: ('A' for Active; 'I' for Inactive)
REMARK    1  A    between atoms: C_17  and  C_18
REMARK    2  A    between atoms: C_21  and  O_22
REMARK    3  A    between atoms: C_24  and  C_25
REMARK    4  A    between atoms: C_26  and  C_32
REMARK    5  A    between atoms: C_28  and  C_29
REMARK    6  A    between atoms: C_28  and  C_30
REMARK    7  A    between atoms: C_32  and  C_34
REMARK    8  A    between atoms: C_34  and  O_35
REMARK                            x       y       z     vdW  Elec       q    Type
REMARK                         _______ _______ _______ _____ _____    ______ ____
ROOT
ATOM      1  C   UNL     1      -5.913   1.752 125.707  0.00  0.00    +0.000 C 
ATOM      2  C   UNL     1      -6.937   0.641 125.724  0.00  0.00    +0.000 C 
ATOM      3  C   UNL     1      -7.488   0.646 127.158  0.00  0.00    +0.000 C 
ATOM      4  C   UNL     1      -6.543  -0.176 128.035  0.00  0.00    +0.000 C 
ATOM      5  C   UNL     1      -6.028  -1.541 127.599  0.00  0.00    +0.000 C 
ATOM      6  C   UNL     1      -4.916  -1.952 128.528  0.00  0.00    +0.000 C 
ATOM      7  F   UNL     1      -4.333  -3.058 128.002  0.00  0.00    +0.000 F 
ATOM      8  C   UNL     1      -5.666  -2.271 129.776  0.00  0.00    +0.000 C 
ATOM      9  C   UNL     1      -5.424  -3.403 130.469  0.00  0.00    +0.000 C 
ATOM     10  C   UNL     1      -4.028  -3.158 130.782  0.00  0.00    +0.000 C 
ATOM     11  O   UNL     1      -3.040  -3.716 130.243  0.00  0.00    +0.000 OA
ATOM     12  C   UNL     1      -3.997  -2.110 131.821  0.00  0.00    +0.000 C 
ATOM     13  C   UNL     1      -4.932  -1.069 131.730  0.00  0.00    +0.000 C 
ATOM     14  C   UNL     1      -6.217  -1.115 130.605  0.00  0.00    +0.000 C 
ATOM     15  C   UNL     1      -7.562  -1.687 131.152  0.00  0.00    +0.000 C 
ATOM     16  C   UNL     1      -6.968  -0.038 129.575  0.00  0.00    +0.000 C 
ATOM     17  F   UNL     1      -8.264  -0.604 129.294  0.00  0.00    +0.000 F 
ATOM     18  C   UNL     1      -7.579   1.381 130.194  0.00  0.00    +0.000 C 
ATOM     19  C   UNL     1      -8.489   1.996 129.056  0.00  0.00    +0.000 C 
ATOM     20  C   UNL     1      -7.784   2.206 127.615  0.00  0.00    +0.000 C 
ATOM     21  C   UNL     1      -7.258   3.551 128.331  0.00  0.00    +0.000 C 
ATOM     22  C   UNL     1      -6.658   2.856 126.448  0.00  0.00    +0.000 C 
ATOM     23  O   UNL     1      -5.363   3.471 127.045  0.00  0.00    +0.000 OA
ATOM     24  C   UNL     1      -4.549   2.382 127.610  0.00  0.00    +0.000 C 
ATOM     25  C   UNL     1      -3.274   2.672 128.475  0.00  0.00    +0.000 C 
ATOM     26  C   UNL     1      -4.989   1.647 128.919  0.00  0.00    +0.000 C 
ATOM     27  O   UNL     1      -4.619   1.468 126.490  0.00  0.00    +0.000 OA
ENDROOT
BRANCH  18  28
ATOM     28  O   UNL     1      -6.788   2.333 130.937  0.00  0.00    +0.000 OA
ATOM     29  H   UNL     1      -7.159   3.230 131.023  0.00  0.00    +0.000 HD
ENDBRANCH  18  28
BRANCH  22  30
ATOM     30  C   UNL     1      -8.041   3.643 125.802  0.00  0.00    +0.000 C 
ATOM     31  O   UNL     1      -8.960   3.005 125.237  0.00  0.00    +0.000 OA
BRANCH  30  32
ATOM     32  C   UNL     1      -8.103   5.110 125.483  0.00  0.00    +0.000 C 
BRANCH  32  33
ATOM     33  O   UNL     1      -9.187   5.707 126.228  0.00  0.00    +0.000 OA
ATOM     34  H   UNL     1      -9.468   5.072 126.919  0.00  0.00    +0.000 HD
ENDBRANCH  32  33
ENDBRANCH  30  32
ENDBRANCH  22  30
TORSDOF 4
ENDMDL
MODEL 7
REMARK VINA RESULT:      -7.8      4.506      6.859
REMARK  Name = Fluocinolone acetonide
REMARK  8 active torsions:
REMARK  status: ('A' for Active; 'I' for Inactive)
REMARK    1  A    between atoms: C_17  and  C_18
REMARK    2  A    between atoms: C_21  and  O_22
REMARK    3  A    between atoms: C_24  and  C_25
REMARK    4  A    between atoms: C_26  and  C_32
REMARK    5  A    between atoms: C_28  and  C_29
REMARK    6  A    between atoms: C_28  and  C_30
REMARK    7  A    between atoms: C_32  and  C_34
REMARK    8  A    between atoms: C_34  and  O_35
REMARK                            x       y       z     vdW  Elec       q    Type
REMARK                         _______ _______ _______ _____ _____    ______ ____
ROOT
ATOM      1  C   UNL     1      -5.401   3.353 132.510  0.00  0.00    +0.000 C 
ATOM      2  C   UNL     1      -5.465   3.317 131.001  0.00  0.00    +0.000 C 
ATOM      3  C   UNL     1      -6.620   2.357 130.686  0.00  0.00    +0.000 C 
ATOM      4  C   UNL     1      -6.078   0.927 130.722  0.00  0.00    +0.000 C 
ATOM      5  C   UNL     1      -4.779   0.545 130.026  0.00  0.00    +0.000 C 
ATOM      6  C   UNL     1      -4.379  -0.833 130.483  0.00  0.00    +0.000 C 
ATOM      7  F   UNL     1      -3.124  -1.067 130.023  0.00  0.00    +0.000 F 
ATOM      8  C   UNL     1      -5.384  -1.686 129.787  0.00  0.00    +0.000 C 
ATOM      9  C   UNL     1      -5.015  -2.800 129.122  0.00  0.00    +0.000 C 
ATOM     10  C   UNL     1      -4.441  -3.527 130.237  0.00  0.00    +0.000 C 
ATOM     11  O   UNL     1      -3.215  -3.699 130.456  0.00  0.00    +0.000 OA
ATOM     12  C   UNL     1      -5.563  -3.988 131.077  0.00  0.00    +0.000 C 
ATOM     13  C   UNL     1      -6.659  -3.128 131.236  0.00  0.00    +0.000 C 
ATOM     14  C   UNL     1      -6.815  -1.696 130.316  0.00  0.00    +0.000 C 
ATOM     15  C   UNL     1      -7.667  -1.828 129.015  0.00  0.00    +0.000 C 
ATOM     16  C   UNL     1      -7.286  -0.120 130.594  0.00  0.00    +0.000 C 
ATOM     17  F   UNL     1      -7.644   0.415 129.304  0.00  0.00    +0.000 F 
ATOM     18  C   UNL     1      -8.777   0.171 131.273  0.00  0.00    +0.000 C 
ATOM     19  C   UNL     1      -9.041   1.721 131.096  0.00  0.00    +0.000 C 
ATOM     20  C   UNL     1      -7.897   2.709 131.673  0.00  0.00    +0.000 C 
ATOM     21  C   UNL     1      -8.685   2.432 133.052  0.00  0.00    +0.000 C 
ATOM     22  C   UNL     1      -6.878   3.474 132.868  0.00  0.00    +0.000 C 
ATOM     23  O   UNL     1      -6.723   2.697 134.204  0.00  0.00    +0.000 OA
ATOM     24  C   UNL     1      -5.945   1.475 133.945  0.00  0.00    +0.000 C 
ATOM     25  C   UNL     1      -5.780   0.358 135.032  0.00  0.00    +0.000 C 
ATOM     26  C   UNL     1      -6.566   0.283 133.144  0.00  0.00    +0.000 C 
ATOM     27  O   UNL     1      -4.872   2.071 133.178  0.00  0.00    +0.000 OA
ENDROOT
BRANCH  18  28
ATOM     28  O   UNL     1      -9.203  -0.390 132.533  0.00  0.00    +0.000 OA
ATOM     29  H   UNL     1      -8.844   0.029 133.336  0.00  0.00    +0.000 HD
ENDBRANCH  18  28
BRANCH  22  30
ATOM     30  C   UNL     1      -7.809   4.875 132.523  0.00  0.00    +0.000 C 
ATOM     31  O   UNL     1      -7.799   5.412 131.391  0.00  0.00    +0.000 OA
BRANCH  30  32
ATOM     32  C   UNL     1      -8.364   5.796 133.571  0.00  0.00    +0.000 C 
BRANCH  32  33
ATOM     33  O   UNL     1      -9.690   6.210 133.177  0.00  0.00    +0.000 OA
ATOM     34  H   UNL     1      -9.633   7.123 132.824  0.00  0.00    +0.000 HD
ENDBRANCH  32  33
ENDBRANCH  30  32
ENDBRANCH  22  30
TORSDOF 4
ENDMDL
MODEL 8
REMARK VINA RESULT:      -7.8      6.964      9.725
REMARK  Name = Fluocinolone acetonide
REMARK  8 active torsions:
REMARK  status: ('A' for Active; 'I' for Inactive)
REMARK    1  A    between atoms: C_17  and  C_18
REMARK    2  A    between atoms: C_21  and  O_22
REMARK    3  A    between atoms: C_24  and  C_25
REMARK    4  A    between atoms: C_26  and  C_32
REMARK    5  A    between atoms: C_28  and  C_29
REMARK    6  A    between atoms: C_28  and  C_30
REMARK    7  A    between atoms: C_32  and  C_34
REMARK    8  A    between atoms: C_34  and  O_35
REMARK                            x       y       z     vdW  Elec       q    Type
REMARK                         _______ _______ _______ _____ _____    ______ ____
ROOT
ATOM      1  C   UNL     1      -6.487   3.402 134.736  0.00  0.00    +0.000 C 
ATOM      2  C   UNL     1      -6.845   4.869 134.788  0.00  0.00    +0.000 C 
ATOM      3  C   UNL     1      -6.557   5.387 133.372  0.00  0.00    +0.000 C 
ATOM      4  C   UNL     1      -5.069   5.728 133.282  0.00  0.00    +0.000 C 
ATOM      5  C   UNL     1      -4.363   6.531 134.365  0.00  0.00    +0.000 C 
ATOM      6  C   UNL     1      -2.878   6.448 134.132  0.00  0.00    +0.000 C 
ATOM      7  F   UNL     1      -2.264   6.984 135.216  0.00  0.00    +0.000 F 
ATOM      8  C   UNL     1      -2.712   7.311 132.928  0.00  0.00    +0.000 C 
ATOM      9  C   UNL     1      -1.742   8.246 132.865  0.00  0.00    +0.000 C 
ATOM     10  C   UNL     1      -0.596   7.366 133.001  0.00  0.00    +0.000 C 
ATOM     11  O   UNL     1       0.114   7.230 134.028  0.00  0.00    +0.000 OA
ATOM     12  C   UNL     1      -0.455   6.642 131.723  0.00  0.00    +0.000 C 
ATOM     13  C   UNL     1      -1.625   6.242 131.062  0.00  0.00    +0.000 C 
ATOM     14  C   UNL     1      -3.168   6.765 131.578  0.00  0.00    +0.000 C 
ATOM     15  C   UNL     1      -3.718   8.035 130.856  0.00  0.00    +0.000 C 
ATOM     16  C   UNL     1      -4.680   6.086 131.768  0.00  0.00    +0.000 C 
ATOM     17  F   UNL     1      -5.609   7.189 131.765  0.00  0.00    +0.000 F 
ATOM     18  C   UNL     1      -5.389   5.317 130.473  0.00  0.00    +0.000 C 
ATOM     19  C   UNL     1      -6.901   5.090 130.877  0.00  0.00    +0.000 C 
ATOM     20  C   UNL     1      -7.157   4.310 132.272  0.00  0.00    +0.000 C 
ATOM     21  C   UNL     1      -6.907   3.027 131.329  0.00  0.00    +0.000 C 
ATOM     22  C   UNL     1      -7.119   2.987 133.412  0.00  0.00    +0.000 C 
ATOM     23  O   UNL     1      -6.051   1.896 133.128  0.00  0.00    +0.000 OA
ATOM     24  C   UNL     1      -4.718   2.476 133.360  0.00  0.00    +0.000 C 
ATOM     25  C   UNL     1      -3.408   1.711 132.967  0.00  0.00    +0.000 C 
ATOM     26  C   UNL     1      -4.122   3.536 132.377  0.00  0.00    +0.000 C 
ATOM     27  O   UNL     1      -4.983   3.095 134.642  0.00  0.00    +0.000 OA
ENDROOT
BRANCH  18  28
ATOM     28  O   UNL     1      -4.770   4.229 129.754  0.00  0.00    +0.000 OA
ATOM     29  H   UNL     1      -5.191   3.356 129.844  0.00  0.00    +0.000 HD
ENDBRANCH  18  28
BRANCH  22  30
ATOM     30  C   UNL     1      -8.817   2.942 133.163  0.00  0.00    +0.000 C 
ATOM     31  O   UNL     1      -9.604   3.632 133.853  0.00  0.00    +0.000 OA
BRANCH  30  32
ATOM     32  C   UNL     1      -9.533   1.839 132.438  0.00  0.00    +0.000 C 
BRANCH  32  33
ATOM     33  O   UNL     1     -10.585   2.413 131.632  0.00  0.00    +0.000 OA
ATOM     34  H   UNL     1     -11.367   2.552 132.205  0.00  0.00    +0.000 HD
ENDBRANCH  32  33
ENDBRANCH  30  32
ENDBRANCH  22  30
TORSDOF 4
ENDMDL
MODEL 9
REMARK VINA RESULT:      -7.8      2.697      5.655
REMARK  Name = Fluocinolone acetonide
REMARK  8 active torsions:
REMARK  status: ('A' for Active; 'I' for Inactive)
REMARK    1  A    between atoms: C_17  and  C_18
REMARK    2  A    between atoms: C_21  and  O_22
REMARK    3  A    between atoms: C_24  and  C_25
REMARK    4  A    between atoms: C_26  and  C_32
REMARK    5  A    between atoms: C_28  and  C_29
REMARK    6  A    between atoms: C_28  and  C_30
REMARK    7  A    between atoms: C_32  and  C_34
REMARK    8  A    between atoms: C_34  and  O_35
REMARK                            x       y       z     vdW  Elec       q    Type
REMARK                         _______ _______ _______ _____ _____    ______ ____
ROOT
ATOM      1  C   UNL     1      -7.309   3.341 128.400  0.00  0.00    +0.000 C 
ATOM      2  C   UNL     1      -8.557   2.551 128.719  0.00  0.00    +0.000 C 
ATOM      3  C   UNL     1      -8.050   1.133 129.021  0.00  0.00    +0.000 C 
ATOM      4  C   UNL     1      -7.888   0.391 127.694  0.00  0.00    +0.000 C 
ATOM      5  C   UNL     1      -8.968   0.421 126.621  0.00  0.00    +0.000 C 
ATOM      6  C   UNL     1      -8.396  -0.151 125.351  0.00  0.00    +0.000 C 
ATOM      7  F   UNL     1      -9.294   0.079 124.360  0.00  0.00    +0.000 F 
ATOM      8  C   UNL     1      -8.310  -1.601 125.684  0.00  0.00    +0.000 C 
ATOM      9  C   UNL     1      -8.750  -2.544 124.825  0.00  0.00    +0.000 C 
ATOM     10  C   UNL     1      -7.868  -2.241 123.714  0.00  0.00    +0.000 C 
ATOM     11  O   UNL     1      -8.191  -1.651 122.652  0.00  0.00    +0.000 OA
ATOM     12  C   UNL     1      -6.524  -2.721 124.087  0.00  0.00    +0.000 C 
ATOM     13  C   UNL     1      -6.119  -2.568 125.421  0.00  0.00    +0.000 C 
ATOM     14  C   UNL     1      -7.209  -2.061 126.635  0.00  0.00    +0.000 C 
ATOM     15  C   UNL     1      -7.898  -3.210 127.436  0.00  0.00    +0.000 C 
ATOM     16  C   UNL     1      -7.175  -1.024 127.942  0.00  0.00    +0.000 C 
ATOM     17  F   UNL     1      -8.253  -1.443 128.803  0.00  0.00    +0.000 F 
ATOM     18  C   UNL     1      -5.999  -1.224 129.102  0.00  0.00    +0.000 C 
ATOM     19  C   UNL     1      -6.438  -0.325 130.327  0.00  0.00    +0.000 C 
ATOM     20  C   UNL     1      -6.723   1.234 130.001  0.00  0.00    +0.000 C 
ATOM     21  C   UNL     1      -5.119   1.313 130.138  0.00  0.00    +0.000 C 
ATOM     22  C   UNL     1      -6.368   2.870 129.503  0.00  0.00    +0.000 C 
ATOM     23  O   UNL     1      -5.095   3.037 128.629  0.00  0.00    +0.000 OA
ATOM     24  C   UNL     1      -5.346   2.416 127.318  0.00  0.00    +0.000 C 
ATOM     25  C   UNL     1      -4.200   2.222 126.266  0.00  0.00    +0.000 C 
ATOM     26  C   UNL     1      -5.433   0.861 127.169  0.00  0.00    +0.000 C 
ATOM     27  O   UNL     1      -6.642   3.004 127.055  0.00  0.00    +0.000 OA
ENDROOT
BRANCH  18  28
ATOM     28  O   UNL     1      -4.584  -1.227 128.812  0.00  0.00    +0.000 OA
ATOM     29  H   UNL     1      -4.095  -0.416 129.039  0.00  0.00    +0.000 HD
ENDBRANCH  18  28
BRANCH  22  30
ATOM     30  C   UNL     1      -6.610   3.250 131.160  0.00  0.00    +0.000 C 
ATOM     31  O   UNL     1      -7.740   3.173 131.697  0.00  0.00    +0.000 OA
BRANCH  30  32
ATOM     32  C   UNL     1      -5.656   4.065 131.985  0.00  0.00    +0.000 C 
BRANCH  32  33
ATOM     33  O   UNL     1      -5.224   3.279 133.117  0.00  0.00    +0.000 OA
ATOM     34  H   UNL     1      -5.764   3.537 133.892  0.00  0.00    +0.000 HD
ENDBRANCH  32  33
ENDBRANCH  30  32
ENDBRANCH  22  30
TORSDOF 4
ENDMDL
