MODEL 1
REMARK VINA RESULT:      -6.4      0.000      0.000
REMARK  Name = Fluorodopa (18F)
REMARK  7 active torsions:
REMARK  status: ('A' for Active; 'I' for Inactive)
REMARK    1  A    between atoms: N_1  and  CA_2
REMARK    2  A    between atoms: CA_2  and  C_3
REMARK    3  A    between atoms: CA_2  and  C_13
REMARK    4  A    between atoms: C_3  and  C_4
REMARK    5  A    between atoms: C_6  and  O_7
REMARK    6  A    between atoms: C_8  and  O_9
REMARK    7  A    between atoms: C_13  and  O_14
REMARK                            x       y       z     vdW  Elec       q    Type
REMARK                         _______ _______ _______ _____ _____    ______ ____
ROOT
ATOM      1  C   UNL     1     -11.002   7.816 129.696  0.00  0.00    +0.000 A 
ATOM      2  C   UNL     1      -9.738   7.259 129.967  0.00  0.00    +0.000 A 
ATOM      3  C   UNL     1      -9.575   6.389 131.037  0.00  0.00    +0.000 A 
ATOM      4  C   UNL     1     -10.631   6.143 131.906  0.00  0.00    +0.000 A 
ATOM      5  C   UNL     1     -11.848   6.783 131.737  0.00  0.00    +0.000 A 
ATOM      6  C   UNL     1     -12.040   7.575 130.609  0.00  0.00    +0.000 A 
ATOM      7  F   UNL     1     -13.255   8.094 130.383  0.00  0.00    +0.000 F 
ENDROOT
BRANCH   3   8
ATOM      8  O   UNL     1      -8.395   5.732 131.244  0.00  0.00    +0.000 OA
ATOM      9  H   UNL     1      -7.708   6.384 131.470  0.00  0.00    +0.000 HD
ENDBRANCH   3   8
BRANCH   4  10
ATOM     10  O   UNL     1     -10.489   5.238 132.916  0.00  0.00    +0.000 OA
ATOM     11  H   UNL     1     -10.816   4.392 132.549  0.00  0.00    +0.000 HD
ENDBRANCH   4  10
BRANCH   1  12
ATOM     12  C   UNL     1     -11.307   8.564 128.410  0.00  0.00    +0.000 C 
BRANCH  12  13
ATOM     13  CA  UNL     1     -11.838   7.692 127.259  0.00  0.00    +0.000 C 
BRANCH  13  14
ATOM     14  N   UNL     1     -12.462   6.435 127.784  0.00  0.00    +0.000 NA
ATOM     15  H1  UNL     1     -11.787   6.018 128.438  0.00  0.00    +0.000 HD
ATOM     16  H2  UNL     1     -12.470   5.742 127.029  0.00  0.00    +0.000 HD
ENDBRANCH  13  14
BRANCH  13  17
ATOM     17  C   UNL     1     -10.720   7.351 126.272  0.00  0.00    +0.000 C 
ATOM     18  OXT UNL     1      -9.873   6.483 126.461  0.00  0.00    +0.000 OA
BRANCH  17  19
ATOM     19  O   UNL     1     -10.741   8.128 125.163  0.00  0.00    +0.000 OA
ATOM     20  H   UNL     1      -9.993   8.768 125.229  0.00  0.00    +0.000 HD
ENDBRANCH  17  19
ENDBRANCH  13  17
ENDBRANCH  12  13
ENDBRANCH   1  12
TORSDOF 7
ENDMDL
MODEL 2
REMARK VINA RESULT:      -6.0      7.796     10.710
REMARK  Name = Fluorodopa (18F)
REMARK  7 active torsions:
REMARK  status: ('A' for Active; 'I' for Inactive)
REMARK    1  A    between atoms: N_1  and  CA_2
REMARK    2  A    between atoms: CA_2  and  C_3
REMARK    3  A    between atoms: CA_2  and  C_13
REMARK    4  A    between atoms: C_3  and  C_4
REMARK    5  A    between atoms: C_6  and  O_7
REMARK    6  A    between atoms: C_8  and  O_9
REMARK    7  A    between atoms: C_13  and  O_14
REMARK                            x       y       z     vdW  Elec       q    Type
REMARK                         _______ _______ _______ _____ _____    ______ ____
ROOT
ATOM      1  C   UNL     1      -6.405   3.763 121.472  0.00  0.00    +0.000 A 
ATOM      2  C   UNL     1      -7.392   3.812 120.471  0.00  0.00    +0.000 A 
ATOM      3  C   UNL     1      -7.153   4.500 119.289  0.00  0.00    +0.000 A 
ATOM      4  C   UNL     1      -5.980   5.228 119.128  0.00  0.00    +0.000 A 
ATOM      5  C   UNL     1      -5.051   5.305 120.152  0.00  0.00    +0.000 A 
ATOM      6  C   UNL     1      -5.246   4.535 121.295  0.00  0.00    +0.000 A 
ATOM      7  F   UNL     1      -4.287   4.515 122.232  0.00  0.00    +0.000 F 
ENDROOT
BRANCH   3   8
ATOM      8  O   UNL     1      -8.038   4.453 118.248  0.00  0.00    +0.000 OA
ATOM      9  H   UNL     1      -7.552   4.591 117.416  0.00  0.00    +0.000 HD
ENDBRANCH   3   8
BRANCH   4  10
ATOM     10  O   UNL     1      -5.717   5.847 117.941  0.00  0.00    +0.000 OA
ATOM     11  H   UNL     1      -5.709   6.803 118.148  0.00  0.00    +0.000 HD
ENDBRANCH   4  10
BRANCH   1  12
ATOM     12  C   UNL     1      -6.497   2.831 122.667  0.00  0.00    +0.000 C 
BRANCH  12  13
ATOM     13  CA  UNL     1      -6.947   3.496 123.979  0.00  0.00    +0.000 C 
BRANCH  13  14
ATOM     14  N   UNL     1      -6.109   3.030 125.130  0.00  0.00    +0.000 NA
ATOM     15  H1  UNL     1      -6.758   2.741 125.873  0.00  0.00    +0.000 HD
ATOM     16  H2  UNL     1      -5.664   3.850 125.556  0.00  0.00    +0.000 HD
ENDBRANCH  13  14
BRANCH  13  17
ATOM     17  C   UNL     1      -8.425   3.211 124.257  0.00  0.00    +0.000 C 
ATOM     18  OXT UNL     1      -9.083   2.352 123.678  0.00  0.00    +0.000 OA
BRANCH  17  19
ATOM     19  O   UNL     1      -8.952   4.029 125.199  0.00  0.00    +0.000 OA
ATOM     20  H   UNL     1      -8.341   4.032 125.972  0.00  0.00    +0.000 HD
ENDBRANCH  17  19
ENDBRANCH  13  17
ENDBRANCH  12  13
ENDBRANCH   1  12
TORSDOF 7
ENDMDL
MODEL 3
REMARK VINA RESULT:      -6.0      7.183      9.777
REMARK  Name = Fluorodopa (18F)
REMARK  7 active torsions:
REMARK  status: ('A' for Active; 'I' for Inactive)
REMARK    1  A    between atoms: N_1  and  CA_2
REMARK    2  A    between atoms: CA_2  and  C_3
REMARK    3  A    between atoms: CA_2  and  C_13
REMARK    4  A    between atoms: C_3  and  C_4
REMARK    5  A    between atoms: C_6  and  O_7
REMARK    6  A    between atoms: C_8  and  O_9
REMARK    7  A    between atoms: C_13  and  O_14
REMARK                            x       y       z     vdW  Elec       q    Type
REMARK                         _______ _______ _______ _____ _____    ______ ____
ROOT
ATOM      1  C   UNL     1      -5.942   3.795 122.745  0.00  0.00    +0.000 A 
ATOM      2  C   UNL     1      -4.877   4.680 122.489  0.00  0.00    +0.000 A 
ATOM      3  C   UNL     1      -4.735   5.254 121.233  0.00  0.00    +0.000 A 
ATOM      4  C   UNL     1      -5.579   4.881 120.194  0.00  0.00    +0.000 A 
ATOM      5  C   UNL     1      -6.550   3.912 120.385  0.00  0.00    +0.000 A 
ATOM      6  C   UNL     1      -6.756   3.413 121.668  0.00  0.00    +0.000 A 
ATOM      7  F   UNL     1      -7.776   2.568 121.876  0.00  0.00    +0.000 F 
ENDROOT
BRANCH   3   8
ATOM      8  O   UNL     1      -3.793   6.216 120.994  0.00  0.00    +0.000 OA
ATOM      9  H   UNL     1      -3.687   6.757 121.796  0.00  0.00    +0.000 HD
ENDBRANCH   3   8
BRANCH   4  10
ATOM     10  O   UNL     1      -5.480   5.495 118.979  0.00  0.00    +0.000 OA
ATOM     11  H   UNL     1      -5.383   4.767 118.333  0.00  0.00    +0.000 HD
ENDBRANCH   4  10
BRANCH   1  12
ATOM     12  C   UNL     1      -6.303   3.334 124.146  0.00  0.00    +0.000 C 
BRANCH  12  13
ATOM     13  CA  UNL     1      -6.687   4.458 125.123  0.00  0.00    +0.000 C 
BRANCH  13  14
ATOM     14  N   UNL     1      -5.855   4.395 126.367  0.00  0.00    +0.000 NA
ATOM     15  H1  UNL     1      -5.326   3.515 126.326  0.00  0.00    +0.000 HD
ATOM     16  H2  UNL     1      -6.478   4.223 127.162  0.00  0.00    +0.000 HD
ENDBRANCH  13  14
BRANCH  13  17
ATOM     17  C   UNL     1      -8.173   4.385 125.482  0.00  0.00    +0.000 C 
ATOM     18  OXT UNL     1      -8.952   3.552 125.028  0.00  0.00    +0.000 OA
BRANCH  17  19
ATOM     19  O   UNL     1      -8.557   5.358 126.342  0.00  0.00    +0.000 OA
ATOM     20  H   UNL     1      -7.970   5.310 127.133  0.00  0.00    +0.000 HD
ENDBRANCH  17  19
ENDBRANCH  13  17
ENDBRANCH  12  13
ENDBRANCH   1  12
TORSDOF 7
ENDMDL
MODEL 4
REMARK VINA RESULT:      -5.8      7.533     10.091
REMARK  Name = Fluorodopa (18F)
REMARK  7 active torsions:
REMARK  status: ('A' for Active; 'I' for Inactive)
REMARK    1  A    between atoms: N_1  and  CA_2
REMARK    2  A    between atoms: CA_2  and  C_3
REMARK    3  A    between atoms: CA_2  and  C_13
REMARK    4  A    between atoms: C_3  and  C_4
REMARK    5  A    between atoms: C_6  and  O_7
REMARK    6  A    between atoms: C_8  and  O_9
REMARK    7  A    between atoms: C_13  and  O_14
REMARK                            x       y       z     vdW  Elec       q    Type
REMARK                         _______ _______ _______ _____ _____    ______ ____
ROOT
ATOM      1  C   UNL     1      -6.025   3.766 122.529  0.00  0.00    +0.000 A 
ATOM      2  C   UNL     1      -4.931   4.631 122.339  0.00  0.00    +0.000 A 
ATOM      3  C   UNL     1      -4.757   5.277 121.122  0.00  0.00    +0.000 A 
ATOM      4  C   UNL     1      -5.599   4.995 120.053  0.00  0.00    +0.000 A 
ATOM      5  C   UNL     1      -6.602   4.048 120.176  0.00  0.00    +0.000 A 
ATOM      6  C   UNL     1      -6.838   3.477 121.424  0.00  0.00    +0.000 A 
ATOM      7  F   UNL     1      -7.886   2.653 121.568  0.00  0.00    +0.000 F 
ENDROOT
BRANCH   3   8
ATOM      8  O   UNL     1      -3.783   6.221 120.952  0.00  0.00    +0.000 OA
ATOM      9  H   UNL     1      -3.831   6.857 121.687  0.00  0.00    +0.000 HD
ENDBRANCH   3   8
BRANCH   4  10
ATOM     10  O   UNL     1      -5.468   5.679 118.880  0.00  0.00    +0.000 OA
ATOM     11  H   UNL     1      -5.530   6.623 119.127  0.00  0.00    +0.000 HD
ENDBRANCH   4  10
BRANCH   1  12
ATOM     12  C   UNL     1      -6.416   3.232 123.896  0.00  0.00    +0.000 C 
BRANCH  12  13
ATOM     13  CA  UNL     1      -5.495   3.660 125.051  0.00  0.00    +0.000 C 
BRANCH  13  14
ATOM     14  N   UNL     1      -5.105   2.481 125.889  0.00  0.00    +0.000 NA
ATOM     15  H1  UNL     1      -4.671   2.854 126.743  0.00  0.00    +0.000 HD
ATOM     16  H2  UNL     1      -4.308   2.018 125.440  0.00  0.00    +0.000 HD
ENDBRANCH  13  14
BRANCH  13  17
ATOM     17  C   UNL     1      -6.170   4.722 125.922  0.00  0.00    +0.000 C 
ATOM     18  OXT UNL     1      -6.129   4.737 127.148  0.00  0.00    +0.000 OA
BRANCH  17  19
ATOM     19  O   UNL     1      -6.848   5.645 125.198  0.00  0.00    +0.000 OA
ATOM     20  H   UNL     1      -6.186   6.231 124.761  0.00  0.00    +0.000 HD
ENDBRANCH  17  19
ENDBRANCH  13  17
ENDBRANCH  12  13
ENDBRANCH   1  12
TORSDOF 7
ENDMDL
MODEL 5
REMARK VINA RESULT:      -5.7      2.379      4.824
REMARK  Name = Fluorodopa (18F)
REMARK  7 active torsions:
REMARK  status: ('A' for Active; 'I' for Inactive)
REMARK    1  A    between atoms: N_1  and  CA_2
REMARK    2  A    between atoms: CA_2  and  C_3
REMARK    3  A    between atoms: CA_2  and  C_13
REMARK    4  A    between atoms: C_3  and  C_4
REMARK    5  A    between atoms: C_6  and  O_7
REMARK    6  A    between atoms: C_8  and  O_9
REMARK    7  A    between atoms: C_13  and  O_14
REMARK                            x       y       z     vdW  Elec       q    Type
REMARK                         _______ _______ _______ _____ _____    ______ ____
ROOT
ATOM      1  C   UNL     1     -10.831   6.593 130.431  0.00  0.00    +0.000 A 
ATOM      2  C   UNL     1     -10.406   7.131 129.201  0.00  0.00    +0.000 A 
ATOM      3  C   UNL     1     -11.087   8.201 128.637  0.00  0.00    +0.000 A 
ATOM      4  C   UNL     1     -12.250   8.681 129.227  0.00  0.00    +0.000 A 
ATOM      5  C   UNL     1     -12.763   8.082 130.366  0.00  0.00    +0.000 A 
ATOM      6  C   UNL     1     -12.026   7.077 130.986  0.00  0.00    +0.000 A 
ATOM      7  F   UNL     1     -12.462   6.583 132.153  0.00  0.00    +0.000 F 
ENDROOT
BRANCH   3   8
ATOM      8  O   UNL     1     -10.621   8.828 127.515  0.00  0.00    +0.000 OA
ATOM      9  H   UNL     1     -10.490   9.772 127.713  0.00  0.00    +0.000 HD
ENDBRANCH   3   8
BRANCH   4  10
ATOM     10  O   UNL     1     -12.880   9.775 128.708  0.00  0.00    +0.000 OA
ATOM     11  H   UNL     1     -12.205  10.483 128.710  0.00  0.00    +0.000 HD
ENDBRANCH   4  10
BRANCH   1  12
ATOM     12  C   UNL     1      -9.995   5.603 131.222  0.00  0.00    +0.000 C 
BRANCH  12  13
ATOM     13  CA  UNL     1      -9.956   4.177 130.647  0.00  0.00    +0.000 C 
BRANCH  13  14
ATOM     14  N   UNL     1     -11.337   3.688 130.332  0.00  0.00    +0.000 NA
ATOM     15  H1  UNL     1     -11.778   4.403 129.740  0.00  0.00    +0.000 HD
ATOM     16  H2  UNL     1     -11.902   3.752 131.185  0.00  0.00    +0.000 HD
ENDBRANCH  13  14
BRANCH  13  17
ATOM     17  C   UNL     1      -9.267   3.216 131.617  0.00  0.00    +0.000 C 
ATOM     18  OXT UNL     1      -8.053   3.048 131.678  0.00  0.00    +0.000 OA
BRANCH  17  19
ATOM     19  O   UNL     1     -10.141   2.539 132.399  0.00  0.00    +0.000 OA
ATOM     20  H   UNL     1      -9.976   2.802 133.335  0.00  0.00    +0.000 HD
ENDBRANCH  17  19
ENDBRANCH  13  17
ENDBRANCH  12  13
ENDBRANCH   1  12
TORSDOF 7
ENDMDL
MODEL 6
REMARK VINA RESULT:      -5.7     10.420     10.671
REMARK  Name = Fluorodopa (18F)
REMARK  7 active torsions:
REMARK  status: ('A' for Active; 'I' for Inactive)
REMARK    1  A    between atoms: N_1  and  CA_2
REMARK    2  A    between atoms: CA_2  and  C_3
REMARK    3  A    between atoms: CA_2  and  C_13
REMARK    4  A    between atoms: C_3  and  C_4
REMARK    5  A    between atoms: C_6  and  O_7
REMARK    6  A    between atoms: C_8  and  O_9
REMARK    7  A    between atoms: C_13  and  O_14
REMARK                            x       y       z     vdW  Elec       q    Type
REMARK                         _______ _______ _______ _____ _____    ______ ____
ROOT
ATOM      1  C   UNL     1      -8.187  -2.788 127.162  0.00  0.00    +0.000 A 
ATOM      2  C   UNL     1      -6.980  -2.063 127.131  0.00  0.00    +0.000 A 
ATOM      3  C   UNL     1      -6.056  -2.205 128.157  0.00  0.00    +0.000 A 
ATOM      4  C   UNL     1      -6.358  -2.981 129.269  0.00  0.00    +0.000 A 
ATOM      5  C   UNL     1      -7.593  -3.598 129.386  0.00  0.00    +0.000 A 
ATOM      6  C   UNL     1      -8.477  -3.537 128.312  0.00  0.00    +0.000 A 
ATOM      7  F   UNL     1      -9.620  -4.236 128.377  0.00  0.00    +0.000 F 
ENDROOT
BRANCH   3   8
ATOM      8  O   UNL     1      -4.823  -1.618 128.088  0.00  0.00    +0.000 OA
ATOM      9  H   UNL     1      -4.149  -2.274 128.339  0.00  0.00    +0.000 HD
ENDBRANCH   3   8
BRANCH   4  10
ATOM     10  O   UNL     1      -5.423  -3.173 130.244  0.00  0.00    +0.000 OA
ATOM     11  H   UNL     1      -4.640  -2.666 129.950  0.00  0.00    +0.000 HD
ENDBRANCH   4  10
BRANCH   1  12
ATOM     12  C   UNL     1      -9.118  -2.876 125.967  0.00  0.00    +0.000 C 
BRANCH  12  13
ATOM     13  CA  UNL     1      -8.819  -1.882 124.832  0.00  0.00    +0.000 C 
BRANCH  13  14
ATOM     14  N   UNL     1      -9.652  -0.645 124.970  0.00  0.00    +0.000 NA
ATOM     15  H1  UNL     1      -9.762  -0.253 124.027  0.00  0.00    +0.000 HD
ATOM     16  H2  UNL     1      -9.084   0.076 125.427  0.00  0.00    +0.000 HD
ENDBRANCH  13  14
BRANCH  13  17
ATOM     17  C   UNL     1      -9.058  -2.526 123.465  0.00  0.00    +0.000 C 
ATOM     18  OXT UNL     1      -8.391  -2.286 122.463  0.00  0.00    +0.000 OA
BRANCH  17  19
ATOM     19  O   UNL     1     -10.109  -3.380 123.460  0.00  0.00    +0.000 OA
ATOM     20  H   UNL     1     -10.220  -3.726 124.377  0.00  0.00    +0.000 HD
ENDBRANCH  17  19
ENDBRANCH  13  17
ENDBRANCH  12  13
ENDBRANCH   1  12
TORSDOF 7
ENDMDL
MODEL 7
REMARK VINA RESULT:      -5.6      8.362     10.001
REMARK  Name = Fluorodopa (18F)
REMARK  7 active torsions:
REMARK  status: ('A' for Active; 'I' for Inactive)
REMARK    1  A    between atoms: N_1  and  CA_2
REMARK    2  A    between atoms: CA_2  and  C_3
REMARK    3  A    between atoms: CA_2  and  C_13
REMARK    4  A    between atoms: C_3  and  C_4
REMARK    5  A    between atoms: C_6  and  O_7
REMARK    6  A    between atoms: C_8  and  O_9
REMARK    7  A    between atoms: C_13  and  O_14
REMARK                            x       y       z     vdW  Elec       q    Type
REMARK                         _______ _______ _______ _____ _____    ______ ____
ROOT
ATOM      1  C   UNL     1      -7.555   3.314 122.543  0.00  0.00    +0.000 A 
ATOM      2  C   UNL     1      -6.209   3.662 122.766  0.00  0.00    +0.000 A 
ATOM      3  C   UNL     1      -5.468   4.259 121.755  0.00  0.00    +0.000 A 
ATOM      4  C   UNL     1      -6.015   4.423 120.489  0.00  0.00    +0.000 A 
ATOM      5  C   UNL     1      -7.293   3.968 120.207  0.00  0.00    +0.000 A 
ATOM      6  C   UNL     1      -8.069   3.462 121.246  0.00  0.00    +0.000 A 
ATOM      7  F   UNL     1      -9.345   3.135 120.998  0.00  0.00    +0.000 F 
ENDROOT
BRANCH   3   8
ATOM      8  O   UNL     1      -4.204   4.728 121.984  0.00  0.00    +0.000 OA
ATOM      9  H   UNL     1      -3.565   4.122 121.570  0.00  0.00    +0.000 HD
ENDBRANCH   3   8
BRANCH   4  10
ATOM     10  O   UNL     1      -5.309   5.071 119.517  0.00  0.00    +0.000 OA
ATOM     11  H   UNL     1      -5.971   5.605 119.034  0.00  0.00    +0.000 HD
ENDBRANCH   4  10
BRANCH   1  12
ATOM     12  C   UNL     1      -8.488   2.897 123.666  0.00  0.00    +0.000 C 
BRANCH  12  13
ATOM     13  CA  UNL     1      -8.631   1.379 123.864  0.00  0.00    +0.000 C 
BRANCH  13  14
ATOM     14  N   UNL     1      -7.540   0.640 123.151  0.00  0.00    +0.000 NA
ATOM     15  H1  UNL     1      -7.059   0.066 123.855  0.00  0.00    +0.000 HD
ATOM     16  H2  UNL     1      -6.808   1.312 122.900  0.00  0.00    +0.000 HD
ENDBRANCH  13  14
BRANCH  13  17
ATOM     17  C   UNL     1      -9.998   0.892 123.380  0.00  0.00    +0.000 C 
ATOM     18  OXT UNL     1     -10.161   0.090 122.465  0.00  0.00    +0.000 OA
BRANCH  17  19
ATOM     19  O   UNL     1     -11.029   1.459 124.051  0.00  0.00    +0.000 OA
ATOM     20  H   UNL     1     -11.805   1.487 123.444  0.00  0.00    +0.000 HD
ENDBRANCH  17  19
ENDBRANCH  13  17
ENDBRANCH  12  13
ENDBRANCH   1  12
TORSDOF 7
ENDMDL
MODEL 8
REMARK VINA RESULT:      -5.6      1.915      2.466
REMARK  Name = Fluorodopa (18F)
REMARK  7 active torsions:
REMARK  status: ('A' for Active; 'I' for Inactive)
REMARK    1  A    between atoms: N_1  and  CA_2
REMARK    2  A    between atoms: CA_2  and  C_3
REMARK    3  A    between atoms: CA_2  and  C_13
REMARK    4  A    between atoms: C_3  and  C_4
REMARK    5  A    between atoms: C_6  and  O_7
REMARK    6  A    between atoms: C_8  and  O_9
REMARK    7  A    between atoms: C_13  and  O_14
REMARK                            x       y       z     vdW  Elec       q    Type
REMARK                         _______ _______ _______ _____ _____    ______ ____
ROOT
ATOM      1  C   UNL     1     -11.164   6.828 129.735  0.00  0.00    +0.000 A 
ATOM      2  C   UNL     1     -11.649   5.530 129.987  0.00  0.00    +0.000 A 
ATOM      3  C   UNL     1     -10.795   4.550 130.476  0.00  0.00    +0.000 A 
ATOM      4  C   UNL     1      -9.438   4.814 130.622  0.00  0.00    +0.000 A 
ATOM      5  C   UNL     1      -8.914   6.042 130.255  0.00  0.00    +0.000 A 
ATOM      6  C   UNL     1      -9.785   7.053 129.861  0.00  0.00    +0.000 A 
ATOM      7  F   UNL     1      -9.289   8.276 129.624  0.00  0.00    +0.000 F 
ENDROOT
BRANCH   3   8
ATOM      8  O   UNL     1     -11.265   3.324 130.855  0.00  0.00    +0.000 OA
ATOM      9  H   UNL     1     -10.831   2.641 130.313  0.00  0.00    +0.000 HD
ENDBRANCH   3   8
BRANCH   4  10
ATOM     10  O   UNL     1      -8.614   3.872 131.166  0.00  0.00    +0.000 OA
ATOM     11  H   UNL     1      -9.203   3.279 131.673  0.00  0.00    +0.000 HD
ENDBRANCH   4  10
BRANCH   1  12
ATOM     12  C   UNL     1     -12.083   8.001 129.446  0.00  0.00    +0.000 C 
BRANCH  12  13
ATOM     13  CA  UNL     1     -12.745   7.984 128.058  0.00  0.00    +0.000 C 
BRANCH  13  14
ATOM     14  N   UNL     1     -13.887   7.017 128.020  0.00  0.00    +0.000 NA
ATOM     15  H1  UNL     1     -13.714   6.323 128.758  0.00  0.00    +0.000 HD
ATOM     16  H2  UNL     1     -13.796   6.444 127.175  0.00  0.00    +0.000 HD
ENDBRANCH  13  14
BRANCH  13  17
ATOM     17  C   UNL     1     -11.725   7.634 126.972  0.00  0.00    +0.000 C 
ATOM     18  OXT UNL     1     -10.735   8.311 126.710  0.00  0.00    +0.000 OA
BRANCH  17  19
ATOM     19  O   UNL     1     -12.039   6.502 126.299  0.00  0.00    +0.000 OA
ATOM     20  H   UNL     1     -12.528   5.909 126.917  0.00  0.00    +0.000 HD
ENDBRANCH  17  19
ENDBRANCH  13  17
ENDBRANCH  12  13
ENDBRANCH   1  12
TORSDOF 7
ENDMDL
MODEL 9
REMARK VINA RESULT:      -5.5      8.724     10.168
REMARK  Name = Fluorodopa (18F)
REMARK  7 active torsions:
REMARK  status: ('A' for Active; 'I' for Inactive)
REMARK    1  A    between atoms: N_1  and  CA_2
REMARK    2  A    between atoms: CA_2  and  C_3
REMARK    3  A    between atoms: CA_2  and  C_13
REMARK    4  A    between atoms: C_3  and  C_4
REMARK    5  A    between atoms: C_6  and  O_7
REMARK    6  A    between atoms: C_8  and  O_9
REMARK    7  A    between atoms: C_13  and  O_14
REMARK                            x       y       z     vdW  Elec       q    Type
REMARK                         _______ _______ _______ _____ _____    ______ ____
ROOT
ATOM      1  C   UNL     1      -7.973  -0.061 123.515  0.00  0.00    +0.000 A 
ATOM      2  C   UNL     1      -7.058   0.726 124.239  0.00  0.00    +0.000 A 
ATOM      3  C   UNL     1      -7.441   1.968 124.727  0.00  0.00    +0.000 A 
ATOM      4  C   UNL     1      -8.692   2.487 124.417  0.00  0.00    +0.000 A 
ATOM      5  C   UNL     1      -9.561   1.789 123.594  0.00  0.00    +0.000 A 
ATOM      6  C   UNL     1      -9.216   0.503 123.190  0.00  0.00    +0.000 A 
ATOM      7  F   UNL     1     -10.110  -0.217 122.497  0.00  0.00    +0.000 F 
ENDROOT
BRANCH   3   8
ATOM      8  O   UNL     1      -6.619   2.694 125.544  0.00  0.00    +0.000 OA
ATOM      9  H   UNL     1      -6.678   2.336 126.447  0.00  0.00    +0.000 HD
ENDBRANCH   3   8
BRANCH   4  10
ATOM     10  O   UNL     1      -9.091   3.677 124.952  0.00  0.00    +0.000 OA
ATOM     11  H   UNL     1      -8.317   4.269 124.863  0.00  0.00    +0.000 HD
ENDBRANCH   4  10
BRANCH   1  12
ATOM     12  C   UNL     1      -7.709  -1.517 123.175  0.00  0.00    +0.000 C 
BRANCH  12  13
ATOM     13  CA  UNL     1      -7.967  -2.511 124.320  0.00  0.00    +0.000 C 
BRANCH  13  14
ATOM     14  N   UNL     1      -7.019  -3.669 124.248  0.00  0.00    +0.000 NA
ATOM     15  H1  UNL     1      -6.645  -3.807 125.195  0.00  0.00    +0.000 HD
ATOM     16  H2  UNL     1      -6.182  -3.368 123.738  0.00  0.00    +0.000 HD
ENDBRANCH  13  14
BRANCH  13  17
ATOM     17  C   UNL     1      -9.412  -3.012 124.293  0.00  0.00    +0.000 C 
ATOM     18  OXT UNL     1      -9.980  -3.427 123.287  0.00  0.00    +0.000 OA
BRANCH  17  19
ATOM     19  O   UNL     1     -10.022  -2.929 125.499  0.00  0.00    +0.000 OA
ATOM     20  H   UNL     1      -9.654  -3.641 126.073  0.00  0.00    +0.000 HD
ENDBRANCH  17  19
ENDBRANCH  13  17
ENDBRANCH  12  13
ENDBRANCH   1  12
TORSDOF 7
ENDMDL
