MODEL 1
REMARK VINA RESULT:      -8.3      0.000      0.000
REMARK  Name = Fluoroestradiol F-18
REMARK  3 active torsions:
REMARK  status: ('A' for Active; 'I' for Inactive)
REMARK    1  A    between atoms: C_6  and  O_7
REMARK    2  A    between atoms: C_8  and  C_9
REMARK    3  A    between atoms: C_21  and  O_22
REMARK                            x       y       z     vdW  Elec       q    Type
REMARK                         _______ _______ _______ _____ _____    ______ ____
ROOT
ATOM      1  C   UNL     1      -8.869   2.405 124.895  0.00  0.00    +0.000 C 
ATOM      2  C   UNL     1      -8.658   1.003 124.799  0.00  0.00    +0.000 C 
ATOM      3  C   UNL     1      -7.334   1.688 124.969  0.00  0.00    +0.000 C 
ATOM      4  F   UNL     1      -6.374   1.246 124.123  0.00  0.00    +0.000 F 
ATOM      5  C   UNL     1      -7.575   3.710 125.426  0.00  0.00    +0.000 C 
ATOM      6  C   UNL     1      -7.614   2.642 126.260  0.00  0.00    +0.000 C 
ATOM      7  C   UNL     1      -8.012   2.295 127.613  0.00  0.00    +0.000 C 
ATOM      8  C   UNL     1      -5.800   2.906 125.821  0.00  0.00    +0.000 C 
ATOM      9  C   UNL     1      -5.679   3.636 124.227  0.00  0.00    +0.000 C 
ATOM     10  C   UNL     1      -6.710   3.148 123.022  0.00  0.00    +0.000 C 
ATOM     11  C   UNL     1      -6.488   3.835 121.716  0.00  0.00    +0.000 A 
ATOM     12  C   UNL     1      -7.509   3.845 120.750  0.00  0.00    +0.000 A 
ATOM     13  C   UNL     1      -8.887   3.254 120.978  0.00  0.00    +0.000 C 
ATOM     14  C   UNL     1      -9.015   2.384 122.212  0.00  0.00    +0.000 C 
ATOM     15  C   UNL     1      -8.330   3.111 123.344  0.00  0.00    +0.000 C 
ATOM     16  C   UNL     1      -7.248   4.488 119.548  0.00  0.00    +0.000 A 
ATOM     17  C   UNL     1      -5.984   5.034 119.312  0.00  0.00    +0.000 A 
ATOM     18  C   UNL     1      -4.959   4.936 120.235  0.00  0.00    +0.000 A 
ATOM     19  C   UNL     1      -5.204   4.312 121.431  0.00  0.00    +0.000 A 
ENDROOT
BRANCH   5  20
ATOM     20  O   UNL     1      -7.201   4.697 126.472  0.00  0.00    +0.000 OA
ATOM     21  H   UNL     1      -7.686   5.537 126.538  0.00  0.00    +0.000 HD
ENDBRANCH   5  20
BRANCH  17  22
ATOM     22  O   UNL     1      -5.700   5.685 118.153  0.00  0.00    +0.000 OA
ATOM     23  H   UNL     1      -4.748   5.603 117.996  0.00  0.00    +0.000 HD
ENDBRANCH  17  22
TORSDOF 2
ENDMDL
MODEL 2
REMARK VINA RESULT:      -8.3      1.779      3.077
REMARK  Name = Fluoroestradiol F-18
REMARK  3 active torsions:
REMARK  status: ('A' for Active; 'I' for Inactive)
REMARK    1  A    between atoms: C_6  and  O_7
REMARK    2  A    between atoms: C_8  and  C_9
REMARK    3  A    between atoms: C_21  and  O_22
REMARK                            x       y       z     vdW  Elec       q    Type
REMARK                         _______ _______ _______ _____ _____    ______ ____
ROOT
ATOM      1  C   UNL     1      -6.920   1.691 124.969  0.00  0.00    +0.000 C 
ATOM      2  C   UNL     1      -7.450   2.649 125.877  0.00  0.00    +0.000 C 
ATOM      3  C   UNL     1      -8.470   2.364 124.813  0.00  0.00    +0.000 C 
ATOM      4  F   UNL     1      -9.052   3.473 124.299  0.00  0.00    +0.000 F 
ATOM      5  C   UNL     1      -7.897   0.750 123.621  0.00  0.00    +0.000 C 
ATOM      6  C   UNL     1      -8.520   0.735 124.826  0.00  0.00    +0.000 C 
ATOM      7  C   UNL     1      -8.858  -0.183 125.898  0.00  0.00    +0.000 C 
ATOM      8  C   UNL     1      -9.814   1.271 123.564  0.00  0.00    +0.000 C 
ATOM      9  C   UNL     1      -9.028   2.094 122.224  0.00  0.00    +0.000 C 
ATOM     10  C   UNL     1      -7.760   3.120 122.525  0.00  0.00    +0.000 C 
ATOM     11  C   UNL     1      -7.196   3.763 121.302  0.00  0.00    +0.000 A 
ATOM     12  C   UNL     1      -5.900   4.308 121.333  0.00  0.00    +0.000 A 
ATOM     13  C   UNL     1      -4.980   4.217 122.536  0.00  0.00    +0.000 C 
ATOM     14  C   UNL     1      -5.645   3.757 123.818  0.00  0.00    +0.000 C 
ATOM     15  C   UNL     1      -6.519   2.576 123.469  0.00  0.00    +0.000 C 
ATOM     16  C   UNL     1      -5.427   4.905 120.173  0.00  0.00    +0.000 A 
ATOM     17  C   UNL     1      -6.259   5.007 119.056  0.00  0.00    +0.000 A 
ATOM     18  C   UNL     1      -7.563   4.550 119.068  0.00  0.00    +0.000 A 
ATOM     19  C   UNL     1      -8.042   3.949 120.204  0.00  0.00    +0.000 A 
ENDROOT
BRANCH   5  20
ATOM     20  O   UNL     1      -8.395  -0.582 123.186  0.00  0.00    +0.000 OA
ATOM     21  H   UNL     1      -8.716  -0.703 122.276  0.00  0.00    +0.000 HD
ENDBRANCH   5  20
BRANCH  17  22
ATOM     22  O   UNL     1      -5.821   5.571 117.898  0.00  0.00    +0.000 OA
ATOM     23  H   UNL     1      -4.942   5.210 117.711  0.00  0.00    +0.000 HD
ENDBRANCH  17  22
TORSDOF 2
ENDMDL
MODEL 3
REMARK VINA RESULT:      -7.6      5.141      8.668
REMARK  Name = Fluoroestradiol F-18
REMARK  3 active torsions:
REMARK  status: ('A' for Active; 'I' for Inactive)
REMARK    1  A    between atoms: C_6  and  O_7
REMARK    2  A    between atoms: C_8  and  C_9
REMARK    3  A    between atoms: C_21  and  O_22
REMARK                            x       y       z     vdW  Elec       q    Type
REMARK                         _______ _______ _______ _____ _____    ______ ____
ROOT
ATOM      1  C   UNL     1      -7.984  -3.316 124.888  0.00  0.00    +0.000 C 
ATOM      2  C   UNL     1      -9.327  -3.024 124.528  0.00  0.00    +0.000 C 
ATOM      3  C   UNL     1      -8.596  -1.738 124.783  0.00  0.00    +0.000 C 
ATOM      4  F   UNL     1      -9.282  -0.858 125.549  0.00  0.00    +0.000 F 
ATOM      5  C   UNL     1      -6.547  -2.059 125.014  0.00  0.00    +0.000 C 
ATOM      6  C   UNL     1      -7.260  -1.927 123.869  0.00  0.00    +0.000 C 
ATOM      7  C   UNL     1      -7.125  -2.136 122.438  0.00  0.00    +0.000 C 
ATOM      8  C   UNL     1      -7.123  -0.200 124.613  0.00  0.00    +0.000 C 
ATOM      9  C   UNL     1      -6.989  -0.320 126.361  0.00  0.00    +0.000 C 
ATOM     10  C   UNL     1      -7.888  -1.451 127.176  0.00  0.00    +0.000 C 
ATOM     11  C   UNL     1      -7.691  -1.434 128.655  0.00  0.00    +0.000 A 
ATOM     12  C   UNL     1      -8.040  -2.561 129.420  0.00  0.00    +0.000 A 
ATOM     13  C   UNL     1      -8.546  -3.859 128.819  0.00  0.00    +0.000 C 
ATOM     14  C   UNL     1      -8.937  -3.779 127.357  0.00  0.00    +0.000 C 
ATOM     15  C   UNL     1      -7.848  -3.015 126.645  0.00  0.00    +0.000 C 
ATOM     16  C   UNL     1      -7.847  -2.489 130.792  0.00  0.00    +0.000 A 
ATOM     17  C   UNL     1      -7.389  -1.303 131.368  0.00  0.00    +0.000 A 
ATOM     18  C   UNL     1      -7.138  -0.171 130.615  0.00  0.00    +0.000 A 
ATOM     19  C   UNL     1      -7.314  -0.229 129.257  0.00  0.00    +0.000 A 
ENDROOT
BRANCH   5  20
ATOM     20  O   UNL     1      -5.250  -1.631 124.428  0.00  0.00    +0.000 OA
ATOM     21  H   UNL     1      -4.418  -1.987 124.785  0.00  0.00    +0.000 HD
ENDBRANCH   5  20
BRANCH  17  22
ATOM     22  O   UNL     1      -7.174  -1.204 132.708  0.00  0.00    +0.000 OA
ATOM     23  H   UNL     1      -6.216  -1.222 132.852  0.00  0.00    +0.000 HD
ENDBRANCH  17  22
TORSDOF 2
ENDMDL
MODEL 4
REMARK VINA RESULT:      -7.5      3.195      4.819
REMARK  Name = Fluoroestradiol F-18
REMARK  3 active torsions:
REMARK  status: ('A' for Active; 'I' for Inactive)
REMARK    1  A    between atoms: C_6  and  O_7
REMARK    2  A    between atoms: C_8  and  C_9
REMARK    3  A    between atoms: C_21  and  O_22
REMARK                            x       y       z     vdW  Elec       q    Type
REMARK                         _______ _______ _______ _____ _____    ______ ____
ROOT
ATOM      1  C   UNL     1      -8.947  -1.949 124.011  0.00  0.00    +0.000 C 
ATOM      2  C   UNL     1      -8.583  -2.285 122.679  0.00  0.00    +0.000 C 
ATOM      3  C   UNL     1      -7.338  -2.087 123.493  0.00  0.00    +0.000 C 
ATOM      4  F   UNL     1      -6.396  -1.331 122.882  0.00  0.00    +0.000 F 
ATOM      5  C   UNL     1      -7.777  -1.896 125.524  0.00  0.00    +0.000 C 
ATOM      6  C   UNL     1      -7.634  -3.028 124.790  0.00  0.00    +0.000 C 
ATOM      7  C   UNL     1      -7.892  -4.454 124.874  0.00  0.00    +0.000 C 
ATOM      8  C   UNL     1      -5.899  -2.339 125.051  0.00  0.00    +0.000 C 
ATOM      9  C   UNL     1      -5.976  -0.592 125.223  0.00  0.00    +0.000 C 
ATOM     10  C   UNL     1      -7.026   0.278 124.279  0.00  0.00    +0.000 C 
ATOM     11  C   UNL     1      -6.979   1.751 124.516  0.00  0.00    +0.000 A 
ATOM     12  C   UNL     1      -8.060   2.558 124.120  0.00  0.00    +0.000 A 
ATOM     13  C   UNL     1      -9.341   2.009 123.520  0.00  0.00    +0.000 C 
ATOM     14  C   UNL     1      -9.279   0.556 123.096  0.00  0.00    +0.000 C 
ATOM     15  C   UNL     1      -8.604  -0.206 124.211  0.00  0.00    +0.000 C 
ATOM     16  C   UNL     1      -7.961   3.922 124.352  0.00  0.00    +0.000 A 
ATOM     17  C   UNL     1      -6.789   4.451 124.896  0.00  0.00    +0.000 A 
ATOM     18  C   UNL     1      -5.696   3.658 125.196  0.00  0.00    +0.000 A 
ATOM     19  C   UNL     1      -5.782   2.307 124.981  0.00  0.00    +0.000 A 
ENDROOT
BRANCH   5  20
ATOM     20  O   UNL     1      -7.446  -2.527 126.829  0.00  0.00    +0.000 OA
ATOM     21  H   UNL     1      -7.924  -3.325 127.114  0.00  0.00    +0.000 HD
ENDBRANCH   5  20
BRANCH  17  22
ATOM     22  O   UNL     1      -6.665   5.781 125.152  0.00  0.00    +0.000 OA
ATOM     23  H   UNL     1      -6.154   6.172 124.428  0.00  0.00    +0.000 HD
ENDBRANCH  17  22
TORSDOF 2
ENDMDL
MODEL 5
REMARK VINA RESULT:      -7.5      6.687      8.544
REMARK  Name = Fluoroestradiol F-18
REMARK  3 active torsions:
REMARK  status: ('A' for Active; 'I' for Inactive)
REMARK    1  A    between atoms: C_6  and  O_7
REMARK    2  A    between atoms: C_8  and  C_9
REMARK    3  A    between atoms: C_21  and  O_22
REMARK                            x       y       z     vdW  Elec       q    Type
REMARK                         _______ _______ _______ _____ _____    ______ ____
ROOT
ATOM      1  C   UNL     1      -4.391  -2.079 129.366  0.00  0.00    +0.000 C 
ATOM      2  C   UNL     1      -4.606  -0.762 129.856  0.00  0.00    +0.000 C 
ATOM      3  C   UNL     1      -5.776  -1.623 130.234  0.00  0.00    +0.000 C 
ATOM      4  F   UNL     1      -6.979  -1.048 130.005  0.00  0.00    +0.000 F 
ATOM      5  C   UNL     1      -5.403  -3.635 129.826  0.00  0.00    +0.000 C 
ATOM      6  C   UNL     1      -5.037  -2.910 130.911  0.00  0.00    +0.000 C 
ATOM      7  C   UNL     1      -4.153  -2.985 132.059  0.00  0.00    +0.000 C 
ATOM      8  C   UNL     1      -6.886  -3.237 131.087  0.00  0.00    +0.000 C 
ATOM      9  C   UNL     1      -7.611  -3.404 129.495  0.00  0.00    +0.000 C 
ATOM     10  C   UNL     1      -7.108  -2.419 128.259  0.00  0.00    +0.000 C 
ATOM     11  C   UNL     1      -7.816  -2.656 126.967  0.00  0.00    +0.000 A 
ATOM     12  C   UNL     1      -7.238  -2.217 125.763  0.00  0.00    +0.000 A 
ATOM     13  C   UNL     1      -5.869  -1.568 125.676  0.00  0.00    +0.000 C 
ATOM     14  C   UNL     1      -5.273  -1.149 127.005  0.00  0.00    +0.000 C 
ATOM     15  C   UNL     1      -5.487  -2.290 127.970  0.00  0.00    +0.000 C 
ATOM     16  C   UNL     1      -7.942  -2.451 124.591  0.00  0.00    +0.000 A 
ATOM     17  C   UNL     1      -9.207  -3.039 124.646  0.00  0.00    +0.000 A 
ATOM     18  C   UNL     1      -9.805  -3.382 125.845  0.00  0.00    +0.000 A 
ATOM     19  C   UNL     1      -9.118  -3.166 127.011  0.00  0.00    +0.000 A 
ENDROOT
BRANCH   5  20
ATOM     20  O   UNL     1      -5.364  -4.953 130.513  0.00  0.00    +0.000 OA
ATOM     21  H   UNL     1      -5.446  -5.771 129.993  0.00  0.00    +0.000 HD
ENDBRANCH   5  20
BRANCH  17  22
ATOM     22  O   UNL     1      -9.917  -3.299 123.515  0.00  0.00    +0.000 OA
ATOM     23  H   UNL     1     -10.444  -2.511 123.313  0.00  0.00    +0.000 HD
ENDBRANCH  17  22
TORSDOF 2
ENDMDL
MODEL 6
REMARK VINA RESULT:      -7.4      8.564      9.337
REMARK  Name = Fluoroestradiol F-18
REMARK  3 active torsions:
REMARK  status: ('A' for Active; 'I' for Inactive)
REMARK    1  A    between atoms: C_6  and  O_7
REMARK    2  A    between atoms: C_8  and  C_9
REMARK    3  A    between atoms: C_21  and  O_22
REMARK                            x       y       z     vdW  Elec       q    Type
REMARK                         _______ _______ _______ _____ _____    ______ ____
ROOT
ATOM      1  C   UNL     1      -6.996   3.061 132.456  0.00  0.00    +0.000 C 
ATOM      2  C   UNL     1      -7.253   3.240 133.842  0.00  0.00    +0.000 C 
ATOM      3  C   UNL     1      -8.482   2.687 133.183  0.00  0.00    +0.000 C 
ATOM      4  F   UNL     1      -9.628   3.313 133.541  0.00  0.00    +0.000 F 
ATOM      5  C   UNL     1      -8.096   2.105 131.216  0.00  0.00    +0.000 C 
ATOM      6  C   UNL     1      -7.877   1.415 132.362  0.00  0.00    +0.000 C 
ATOM      7  C   UNL     1      -7.171   0.240 132.842  0.00  0.00    +0.000 C 
ATOM      8  C   UNL     1      -9.738   1.372 132.062  0.00  0.00    +0.000 C 
ATOM      9  C   UNL     1     -10.226   2.809 131.176  0.00  0.00    +0.000 C 
ATOM     10  C   UNL     1      -9.529   4.269 131.537  0.00  0.00    +0.000 C 
ATOM     11  C   UNL     1     -10.046   5.408 130.722  0.00  0.00    +0.000 A 
ATOM     12  C   UNL     1      -9.290   6.588 130.611  0.00  0.00    +0.000 A 
ATOM     13  C   UNL     1      -7.910   6.761 131.218  0.00  0.00    +0.000 C 
ATOM     14  C   UNL     1      -7.505   5.687 132.207  0.00  0.00    +0.000 C 
ATOM     15  C   UNL     1      -7.880   4.356 131.600  0.00  0.00    +0.000 C 
ATOM     16  C   UNL     1      -9.820   7.620 129.851  0.00  0.00    +0.000 A 
ATOM     17  C   UNL     1     -11.092   7.487 129.290  0.00  0.00    +0.000 A 
ATOM     18  C   UNL     1     -11.865   6.357 129.484  0.00  0.00    +0.000 A 
ATOM     19  C   UNL     1     -11.350   5.324 130.224  0.00  0.00    +0.000 A 
ENDROOT
BRANCH   5  20
ATOM     20  O   UNL     1      -8.184   0.907 130.340  0.00  0.00    +0.000 OA
ATOM     21  H   UNL     1      -8.084   1.005 129.378  0.00  0.00    +0.000 HD
ENDBRANCH   5  20
BRANCH  17  22
ATOM     22  O   UNL     1     -11.635   8.473 128.526  0.00  0.00    +0.000 OA
ATOM     23  H   UNL     1     -12.562   8.570 128.788  0.00  0.00    +0.000 HD
ENDBRANCH  17  22
TORSDOF 2
ENDMDL
MODEL 7
REMARK VINA RESULT:      -7.4      5.948      9.104
REMARK  Name = Fluoroestradiol F-18
REMARK  3 active torsions:
REMARK  status: ('A' for Active; 'I' for Inactive)
REMARK    1  A    between atoms: C_6  and  O_7
REMARK    2  A    between atoms: C_8  and  C_9
REMARK    3  A    between atoms: C_21  and  O_22
REMARK                            x       y       z     vdW  Elec       q    Type
REMARK                         _______ _______ _______ _____ _____    ______ ____
ROOT
ATOM      1  C   UNL     1      -8.715  -2.849 125.659  0.00  0.00    +0.000 C 
ATOM      2  C   UNL     1      -9.385  -1.613 125.873  0.00  0.00    +0.000 C 
ATOM      3  C   UNL     1      -7.942  -1.341 125.561  0.00  0.00    +0.000 C 
ATOM      4  F   UNL     1      -7.362  -0.438 126.385  0.00  0.00    +0.000 F 
ATOM      5  C   UNL     1      -6.960  -3.071 124.932  0.00  0.00    +0.000 C 
ATOM      6  C   UNL     1      -7.723  -2.219 124.205  0.00  0.00    +0.000 C 
ATOM      7  C   UNL     1      -8.388  -2.135 122.917  0.00  0.00    +0.000 C 
ATOM      8  C   UNL     1      -6.084  -1.339 124.508  0.00  0.00    +0.000 C 
ATOM      9  C   UNL     1      -5.381  -1.903 126.017  0.00  0.00    +0.000 C 
ATOM     10  C   UNL     1      -6.364  -2.190 127.321  0.00  0.00    +0.000 C 
ATOM     11  C   UNL     1      -5.637  -2.649 128.541  0.00  0.00    +0.000 A 
ATOM     12  C   UNL     1      -6.337  -3.317 129.562  0.00  0.00    +0.000 A 
ATOM     13  C   UNL     1      -7.808  -3.680 129.472  0.00  0.00    +0.000 C 
ATOM     14  C   UNL     1      -8.563  -3.022 128.336  0.00  0.00    +0.000 C 
ATOM     15  C   UNL     1      -7.700  -3.137 127.101  0.00  0.00    +0.000 C 
ATOM     16  C   UNL     1      -5.617  -3.712 130.680  0.00  0.00    +0.000 A 
ATOM     17  C   UNL     1      -4.265  -3.382 130.788  0.00  0.00    +0.000 A 
ATOM     18  C   UNL     1      -3.610  -2.644 129.819  0.00  0.00    +0.000 A 
ATOM     19  C   UNL     1      -4.305  -2.254 128.703  0.00  0.00    +0.000 A 
ENDROOT
BRANCH   5  20
ATOM     20  O   UNL     1      -6.177  -3.585 123.776  0.00  0.00    +0.000 OA
ATOM     21  H   UNL     1      -6.633  -3.812 122.948  0.00  0.00    +0.000 HD
ENDBRANCH   5  20
BRANCH  17  22
ATOM     22  O   UNL     1      -3.526  -3.769 131.862  0.00  0.00    +0.000 OA
ATOM     23  H   UNL     1      -2.962  -3.022 132.114  0.00  0.00    +0.000 HD
ENDBRANCH  17  22
TORSDOF 2
ENDMDL
MODEL 8
REMARK VINA RESULT:      -7.4      6.003      7.453
REMARK  Name = Fluoroestradiol F-18
REMARK  3 active torsions:
REMARK  status: ('A' for Active; 'I' for Inactive)
REMARK    1  A    between atoms: C_6  and  O_7
REMARK    2  A    between atoms: C_8  and  C_9
REMARK    3  A    between atoms: C_21  and  O_22
REMARK                            x       y       z     vdW  Elec       q    Type
REMARK                         _______ _______ _______ _____ _____    ______ ____
ROOT
ATOM      1  C   UNL     1      -7.547  -2.393 130.374  0.00  0.00    +0.000 C 
ATOM      2  C   UNL     1      -6.894  -3.611 130.708  0.00  0.00    +0.000 C 
ATOM      3  C   UNL     1      -5.922  -2.709 130.005  0.00  0.00    +0.000 C 
ATOM      4  F   UNL     1      -5.197  -3.325 129.043  0.00  0.00    +0.000 F 
ATOM      5  C   UNL     1      -6.704  -0.790 129.757  0.00  0.00    +0.000 C 
ATOM      6  C   UNL     1      -6.089  -1.320 130.843  0.00  0.00    +0.000 C 
ATOM      7  C   UNL     1      -5.876  -1.045 132.252  0.00  0.00    +0.000 C 
ATOM      8  C   UNL     1      -4.735  -0.986 129.574  0.00  0.00    +0.000 C 
ATOM      9  C   UNL     1      -5.405  -1.095 127.953  0.00  0.00    +0.000 C 
ATOM     10  C   UNL     1      -6.525  -2.269 127.607  0.00  0.00    +0.000 C 
ATOM     11  C   UNL     1      -6.998  -2.259 126.191  0.00  0.00    +0.000 A 
ATOM     12  C   UNL     1      -8.210  -2.888 125.855  0.00  0.00    +0.000 A 
ATOM     13  C   UNL     1      -9.133  -3.529 126.874  0.00  0.00    +0.000 C 
ATOM     14  C   UNL     1      -8.536  -3.714 128.254  0.00  0.00    +0.000 C 
ATOM     15  C   UNL     1      -7.827  -2.429 128.610  0.00  0.00    +0.000 C 
ATOM     16  C   UNL     1      -8.598  -2.860 124.524  0.00  0.00    +0.000 A 
ATOM     17  C   UNL     1      -7.761  -2.282 123.567  0.00  0.00    +0.000 A 
ATOM     18  C   UNL     1      -6.529  -1.749 123.897  0.00  0.00    +0.000 A 
ATOM     19  C   UNL     1      -6.134  -1.761 125.210  0.00  0.00    +0.000 A 
ENDROOT
BRANCH   5  20
ATOM     20  O   UNL     1      -6.389   0.624 130.088  0.00  0.00    +0.000 OA
ATOM     21  H   UNL     1      -7.092   1.296 130.055  0.00  0.00    +0.000 HD
ENDBRANCH   5  20
BRANCH  17  22
ATOM     22  O   UNL     1      -8.120  -2.223 122.256  0.00  0.00    +0.000 OA
ATOM     23  H   UNL     1      -8.519  -3.075 122.023  0.00  0.00    +0.000 HD
ENDBRANCH  17  22
TORSDOF 2
ENDMDL
MODEL 9
REMARK VINA RESULT:      -7.2      5.379      8.780
REMARK  Name = Fluoroestradiol F-18
REMARK  3 active torsions:
REMARK  status: ('A' for Active; 'I' for Inactive)
REMARK    1  A    between atoms: C_6  and  O_7
REMARK    2  A    between atoms: C_8  and  C_9
REMARK    3  A    between atoms: C_21  and  O_22
REMARK                            x       y       z     vdW  Elec       q    Type
REMARK                         _______ _______ _______ _____ _____    ______ ____
ROOT
ATOM      1  C   UNL     1      -8.148  -0.365 125.077  0.00  0.00    +0.000 C 
ATOM      2  C   UNL     1      -6.800  -0.241 124.641  0.00  0.00    +0.000 C 
ATOM      3  C   UNL     1      -7.031  -1.641 125.132  0.00  0.00    +0.000 C 
ATOM      4  F   UNL     1      -6.054  -2.106 125.945  0.00  0.00    +0.000 F 
ATOM      5  C   UNL     1      -9.054  -1.996 125.499  0.00  0.00    +0.000 C 
ATOM      6  C   UNL     1      -8.383  -2.060 124.323  0.00  0.00    +0.000 C 
ATOM      7  C   UNL     1      -8.634  -2.136 122.895  0.00  0.00    +0.000 C 
ATOM      8  C   UNL     1      -7.885  -3.591 125.303  0.00  0.00    +0.000 C 
ATOM      9  C   UNL     1      -7.987  -3.250 127.024  0.00  0.00    +0.000 C 
ATOM     10  C   UNL     1      -7.506  -1.769 127.595  0.00  0.00    +0.000 C 
ATOM     11  C   UNL     1      -7.630  -1.619 129.074  0.00  0.00    +0.000 A 
ATOM     12  C   UNL     1      -7.665  -0.334 129.646  0.00  0.00    +0.000 A 
ATOM     13  C   UNL     1      -7.662   0.946 128.832  0.00  0.00    +0.000 C 
ATOM     14  C   UNL     1      -7.322   0.774 127.366  0.00  0.00    +0.000 C 
ATOM     15  C   UNL     1      -8.105  -0.415 126.863  0.00  0.00    +0.000 C 
ATOM     16  C   UNL     1      -7.769  -0.250 131.026  0.00  0.00    +0.000 A 
ATOM     17  C   UNL     1      -7.766  -1.415 131.796  0.00  0.00    +0.000 A 
ATOM     18  C   UNL     1      -7.637  -2.669 131.229  0.00  0.00    +0.000 A 
ATOM     19  C   UNL     1      -7.543  -2.770 129.864  0.00  0.00    +0.000 A 
ENDROOT
BRANCH   5  20
ATOM     20  O   UNL     1     -10.143  -2.923 125.093  0.00  0.00    +0.000 OA
ATOM     21  H   UNL     1     -10.981  -2.928 125.587  0.00  0.00    +0.000 HD
ENDBRANCH   5  20
BRANCH  17  22
ATOM     22  O   UNL     1      -7.884  -1.368 133.150  0.00  0.00    +0.000 OA
ATOM     23  H   UNL     1      -8.720  -1.797 133.387  0.00  0.00    +0.000 HD
ENDBRANCH  17  22
TORSDOF 2
ENDMDL
