MODEL 1
REMARK VINA RESULT:      -9.4      0.000      0.000
REMARK  Name = Fluocinonide
REMARK  10 active torsions:
REMARK  status: ('A' for Active; 'I' for Inactive)
REMARK    1  A    between atoms: C_17  and  C_18
REMARK    2  A    between atoms: C_21  and  O_22
REMARK    3  A    between atoms: C_24  and  C_25
REMARK    4  A    between atoms: C_26  and  C_32
REMARK    5  A    between atoms: C_28  and  C_29
REMARK    6  A    between atoms: C_28  and  C_30
REMARK    7  A    between atoms: C_32  and  C_34
REMARK    8  A    between atoms: C_34  and  O_35
REMARK    9  A    between atoms: O_35  and  C_36
REMARK   10  A    between atoms: C_36  and  C_37
REMARK                            x       y       z     vdW  Elec       q    Type
REMARK                         _______ _______ _______ _____ _____    ______ ____
ROOT
ATOM      1  C   UNL     1      -6.775   3.620 127.096  0.00  0.00    +0.000 C 
ATOM      2  C   UNL     1      -5.780   3.367 125.965  0.00  0.00    +0.000 C 
ATOM      3  C   UNL     1      -5.201   2.023 126.299  0.00  0.00    +0.000 C 
ATOM      4  C   UNL     1      -6.370   0.957 126.068  0.00  0.00    +0.000 C 
ATOM      5  C   UNL     1      -7.101   1.042 124.697  0.00  0.00    +0.000 C 
ATOM      6  C   UNL     1      -8.157  -0.003 124.393  0.00  0.00    +0.000 C 
ATOM      7  F   UNL     1      -9.266   0.041 125.163  0.00  0.00    +0.000 F 
ATOM      8  C   UNL     1      -7.425  -1.284 124.491  0.00  0.00    +0.000 C 
ATOM      9  C   UNL     1      -7.676  -2.304 123.641  0.00  0.00    +0.000 C 
ATOM     10  C   UNL     1      -9.061  -2.551 123.927  0.00  0.00    +0.000 C 
ATOM     11  O   UNL     1      -9.946  -2.426 123.051  0.00  0.00    +0.000 OA
ATOM     12  C   UNL     1      -9.118  -3.100 125.323  0.00  0.00    +0.000 C 
ATOM     13  C   UNL     1      -8.179  -2.680 126.278  0.00  0.00    +0.000 C 
ATOM     14  C   UNL     1      -6.844  -1.714 125.826  0.00  0.00    +0.000 C 
ATOM     15  C   UNL     1      -5.571  -2.477 125.290  0.00  0.00    +0.000 C 
ATOM     16  C   UNL     1      -5.991  -0.451 126.503  0.00  0.00    +0.000 C 
ATOM     17  F   UNL     1      -4.751  -0.443 125.795  0.00  0.00    +0.000 F 
ATOM     18  C   UNL     1      -5.435  -0.558 127.951  0.00  0.00    +0.000 C 
ATOM     19  C   UNL     1      -4.485   0.604 128.199  0.00  0.00    +0.000 C 
ATOM     20  C   UNL     1      -4.822   2.157 127.847  0.00  0.00    +0.000 C 
ATOM     21  C   UNL     1      -3.463   2.678 128.395  0.00  0.00    +0.000 C 
ATOM     22  C   UNL     1      -6.084   3.255 128.369  0.00  0.00    +0.000 C 
ATOM     23  O   UNL     1      -7.021   2.432 129.054  0.00  0.00    +0.000 OA
ATOM     24  C   UNL     1      -8.286   2.131 128.417  0.00  0.00    +0.000 C 
ATOM     25  C   UNL     1      -8.039   0.590 129.028  0.00  0.00    +0.000 C 
ATOM     26  C   UNL     1      -9.165   1.298 127.347  0.00  0.00    +0.000 C 
ATOM     27  O   UNL     1      -8.015   2.964 127.211  0.00  0.00    +0.000 OA
ENDROOT
BRANCH  18  28
ATOM     28  O   UNL     1      -4.754  -1.811 128.143  0.00  0.00    +0.000 OA
ATOM     29  H   UNL     1      -3.858  -1.715 127.775  0.00  0.00    +0.000 HD
ENDBRANCH  18  28
BRANCH  22  30
ATOM     30  C   UNL     1      -5.906   4.852 128.991  0.00  0.00    +0.000 C 
ATOM     31  O   UNL     1      -5.063   5.631 128.536  0.00  0.00    +0.000 OA
BRANCH  30  32
ATOM     32  C   UNL     1      -6.854   5.374 130.295  0.00  0.00    +0.000 C 
BRANCH  32  33
ATOM     33  O   UNL     1      -8.094   6.101 130.065  0.00  0.00    +0.000 OA
BRANCH  33  34
ATOM     34  C   UNL     1      -9.223   5.584 129.484  0.00  0.00    +0.000 C 
ATOM     35  C   UNL     1     -10.194   4.762 130.296  0.00  0.00    +0.000 C 
ATOM     36  O   UNL     1      -9.476   5.799 128.298  0.00  0.00    +0.000 OA
ENDBRANCH  33  34
ENDBRANCH  32  33
ENDBRANCH  30  32
ENDBRANCH  22  30
TORSDOF 5
ENDMDL
MODEL 2
REMARK VINA RESULT:      -9.3      5.369      8.570
REMARK  Name = Fluocinonide
REMARK  10 active torsions:
REMARK  status: ('A' for Active; 'I' for Inactive)
REMARK    1  A    between atoms: C_17  and  C_18
REMARK    2  A    between atoms: C_21  and  O_22
REMARK    3  A    between atoms: C_24  and  C_25
REMARK    4  A    between atoms: C_26  and  C_32
REMARK    5  A    between atoms: C_28  and  C_29
REMARK    6  A    between atoms: C_28  and  C_30
REMARK    7  A    between atoms: C_32  and  C_34
REMARK    8  A    between atoms: C_34  and  O_35
REMARK    9  A    between atoms: O_35  and  C_36
REMARK   10  A    between atoms: C_36  and  C_37
REMARK                            x       y       z     vdW  Elec       q    Type
REMARK                         _______ _______ _______ _____ _____    ______ ____
ROOT
ATOM      1  C   UNL     1      -8.034   5.444 130.226  0.00  0.00    +0.000 C 
ATOM      2  C   UNL     1      -7.987   6.717 131.068  0.00  0.00    +0.000 C 
ATOM      3  C   UNL     1      -7.466   6.242 132.394  0.00  0.00    +0.000 C 
ATOM      4  C   UNL     1      -5.935   5.843 132.162  0.00  0.00    +0.000 C 
ATOM      5  C   UNL     1      -5.059   6.913 131.449  0.00  0.00    +0.000 C 
ATOM      6  C   UNL     1      -3.580   6.621 131.284  0.00  0.00    +0.000 C 
ATOM      7  F   UNL     1      -3.272   5.594 130.462  0.00  0.00    +0.000 F 
ATOM      8  C   UNL     1      -3.102   6.425 132.670  0.00  0.00    +0.000 C 
ATOM      9  C   UNL     1      -1.894   6.879 133.068  0.00  0.00    +0.000 C 
ATOM     10  C   UNL     1      -1.032   6.145 132.185  0.00  0.00    +0.000 C 
ATOM     11  O   UNL     1      -0.285   6.723 131.364  0.00  0.00    +0.000 OA
ATOM     12  C   UNL     1      -1.131   4.703 132.590  0.00  0.00    +0.000 C 
ATOM     13  C   UNL     1      -2.336   4.204 133.111  0.00  0.00    +0.000 C 
ATOM     14  C   UNL     1      -3.629   5.257 133.486  0.00  0.00    +0.000 C 
ATOM     15  C   UNL     1      -3.595   5.935 134.911  0.00  0.00    +0.000 C 
ATOM     16  C   UNL     1      -5.292   5.201 133.382  0.00  0.00    +0.000 C 
ATOM     17  F   UNL     1      -5.736   6.221 134.277  0.00  0.00    +0.000 F 
ATOM     18  C   UNL     1      -6.082   4.002 133.980  0.00  0.00    +0.000 C 
ATOM     19  C   UNL     1      -7.564   4.345 133.984  0.00  0.00    +0.000 C 
ATOM     20  C   UNL     1      -8.369   4.960 132.709  0.00  0.00    +0.000 C 
ATOM     21  C   UNL     1      -9.732   4.985 133.459  0.00  0.00    +0.000 C 
ATOM     22  C   UNL     1      -8.646   4.382 131.079  0.00  0.00    +0.000 C 
ATOM     23  O   UNL     1      -7.773   3.268 130.935  0.00  0.00    +0.000 OA
ATOM     24  C   UNL     1      -6.590   3.406 130.112  0.00  0.00    +0.000 C 
ATOM     25  C   UNL     1      -5.842   2.530 131.328  0.00  0.00    +0.000 C 
ATOM     26  C   UNL     1      -5.076   3.925 129.893  0.00  0.00    +0.000 C 
ATOM     27  O   UNL     1      -6.892   4.808 129.702  0.00  0.00    +0.000 OA
ENDROOT
BRANCH  18  28
ATOM     28  O   UNL     1      -5.631   3.713 135.315  0.00  0.00    +0.000 OA
ATOM     29  H   UNL     1      -4.663   3.618 135.281  0.00  0.00    +0.000 HD
ENDBRANCH  18  28
BRANCH  22  30
ATOM     30  C   UNL     1     -10.147   4.262 130.241  0.00  0.00    +0.000 C 
ATOM     31  O   UNL     1     -10.490   3.218 129.678  0.00  0.00    +0.000 OA
BRANCH  30  32
ATOM     32  C   UNL     1     -11.170   5.608 130.120  0.00  0.00    +0.000 C 
BRANCH  32  33
ATOM     33  O   UNL     1     -11.465   6.200 128.822  0.00  0.00    +0.000 OA
BRANCH  33  34
ATOM     34  C   UNL     1     -10.605   6.975 128.088  0.00  0.00    +0.000 C 
ATOM     35  C   UNL     1     -10.640   8.479 128.205  0.00  0.00    +0.000 C 
ATOM     36  O   UNL     1      -9.775   6.458 127.340  0.00  0.00    +0.000 OA
ENDBRANCH  33  34
ENDBRANCH  32  33
ENDBRANCH  30  32
ENDBRANCH  22  30
TORSDOF 5
ENDMDL
MODEL 3
REMARK VINA RESULT:      -9.2      4.375      8.579
REMARK  Name = Fluocinonide
REMARK  10 active torsions:
REMARK  status: ('A' for Active; 'I' for Inactive)
REMARK    1  A    between atoms: C_17  and  C_18
REMARK    2  A    between atoms: C_21  and  O_22
REMARK    3  A    between atoms: C_24  and  C_25
REMARK    4  A    between atoms: C_26  and  C_32
REMARK    5  A    between atoms: C_28  and  C_29
REMARK    6  A    between atoms: C_28  and  C_30
REMARK    7  A    between atoms: C_32  and  C_34
REMARK    8  A    between atoms: C_34  and  O_35
REMARK    9  A    between atoms: O_35  and  C_36
REMARK   10  A    between atoms: C_36  and  C_37
REMARK                            x       y       z     vdW  Elec       q    Type
REMARK                         _______ _______ _______ _____ _____    ______ ____
ROOT
ATOM      1  C   UNL     1      -6.553   2.767 131.896  0.00  0.00    +0.000 C 
ATOM      2  C   UNL     1      -5.301   2.059 131.382  0.00  0.00    +0.000 C 
ATOM      3  C   UNL     1      -4.718   3.041 130.407  0.00  0.00    +0.000 C 
ATOM      4  C   UNL     1      -4.172   4.269 131.273  0.00  0.00    +0.000 C 
ATOM      5  C   UNL     1      -3.251   3.894 132.470  0.00  0.00    +0.000 C 
ATOM      6  C   UNL     1      -2.635   5.027 133.270  0.00  0.00    +0.000 C 
ATOM      7  F   UNL     1      -3.501   5.788 133.972  0.00  0.00    +0.000 F 
ATOM      8  C   UNL     1      -1.865   5.791 132.265  0.00  0.00    +0.000 C 
ATOM      9  C   UNL     1      -0.662   6.331 132.562  0.00  0.00    +0.000 C 
ATOM     10  C   UNL     1      -1.029   7.223 133.624  0.00  0.00    +0.000 C 
ATOM     11  O   UNL     1      -0.561   7.100 134.779  0.00  0.00    +0.000 OA
ATOM     12  C   UNL     1      -1.871   8.302 133.006  0.00  0.00    +0.000 C 
ATOM     13  C   UNL     1      -2.693   8.004 131.908  0.00  0.00    +0.000 C 
ATOM     14  C   UNL     1      -2.597   6.485 131.130  0.00  0.00    +0.000 C 
ATOM     15  C   UNL     1      -1.491   6.334 130.013  0.00  0.00    +0.000 C 
ATOM     16  C   UNL     1      -3.675   5.428 130.423  0.00  0.00    +0.000 C 
ATOM     17  F   UNL     1      -2.862   4.599 129.591  0.00  0.00    +0.000 F 
ATOM     18  C   UNL     1      -4.681   5.926 129.347  0.00  0.00    +0.000 C 
ATOM     19  C   UNL     1      -5.336   4.719 128.693  0.00  0.00    +0.000 C 
ATOM     20  C   UNL     1      -5.973   3.463 129.510  0.00  0.00    +0.000 C 
ATOM     21  C   UNL     1      -6.438   2.733 128.218  0.00  0.00    +0.000 C 
ATOM     22  C   UNL     1      -7.248   3.337 130.705  0.00  0.00    +0.000 C 
ATOM     23  O   UNL     1      -7.534   4.681 131.074  0.00  0.00    +0.000 OA
ATOM     24  C   UNL     1      -7.100   5.160 132.370  0.00  0.00    +0.000 C 
ATOM     25  C   UNL     1      -6.698   6.556 131.536  0.00  0.00    +0.000 C 
ATOM     26  C   UNL     1      -5.945   5.711 133.357  0.00  0.00    +0.000 C 
ATOM     27  O   UNL     1      -6.527   3.850 132.795  0.00  0.00    +0.000 OA
ENDROOT
BRANCH  18  28
ATOM     28  O   UNL     1      -4.012   6.730 128.359  0.00  0.00    +0.000 OA
ATOM     29  H   UNL     1      -3.057   6.668 128.532  0.00  0.00    +0.000 HD
ENDBRANCH  18  28
BRANCH  22  30
ATOM     30  C   UNL     1      -8.598   2.266 130.701  0.00  0.00    +0.000 C 
ATOM     31  O   UNL     1      -8.468   1.065 130.447  0.00  0.00    +0.000 OA
BRANCH  30  32
ATOM     32  C   UNL     1     -10.160   2.855 130.992  0.00  0.00    +0.000 C 
BRANCH  32  33
ATOM     33  O   UNL     1     -10.823   3.710 130.016  0.00  0.00    +0.000 OA
BRANCH  33  34
ATOM     34  C   UNL     1     -11.266   4.986 130.249  0.00  0.00    +0.000 C 
ATOM     35  C   UNL     1     -10.783   5.757 131.454  0.00  0.00    +0.000 C 
ATOM     36  O   UNL     1     -12.044   5.535 129.468  0.00  0.00    +0.000 OA
ENDBRANCH  33  34
ENDBRANCH  32  33
ENDBRANCH  30  32
ENDBRANCH  22  30
TORSDOF 5
ENDMDL
MODEL 4
REMARK VINA RESULT:      -9.0      5.340      7.243
REMARK  Name = Fluocinonide
REMARK  10 active torsions:
REMARK  status: ('A' for Active; 'I' for Inactive)
REMARK    1  A    between atoms: C_17  and  C_18
REMARK    2  A    between atoms: C_21  and  O_22
REMARK    3  A    between atoms: C_24  and  C_25
REMARK    4  A    between atoms: C_26  and  C_32
REMARK    5  A    between atoms: C_28  and  C_29
REMARK    6  A    between atoms: C_28  and  C_30
REMARK    7  A    between atoms: C_32  and  C_34
REMARK    8  A    between atoms: C_34  and  O_35
REMARK    9  A    between atoms: O_35  and  C_36
REMARK   10  A    between atoms: C_36  and  C_37
REMARK                            x       y       z     vdW  Elec       q    Type
REMARK                         _______ _______ _______ _____ _____    ______ ____
ROOT
ATOM      1  C   UNL     1     -10.032   4.268 130.866  0.00  0.00    +0.000 C 
ATOM      2  C   UNL     1      -9.177   4.240 129.601  0.00  0.00    +0.000 C 
ATOM      3  C   UNL     1      -7.901   4.909 130.024  0.00  0.00    +0.000 C 
ATOM      4  C   UNL     1      -7.177   3.904 131.035  0.00  0.00    +0.000 C 
ATOM      5  C   UNL     1      -7.024   2.438 130.536  0.00  0.00    +0.000 C 
ATOM      6  C   UNL     1      -6.266   1.466 131.419  0.00  0.00    +0.000 C 
ATOM      7  F   UNL     1      -6.849   1.168 132.600  0.00  0.00    +0.000 F 
ATOM      8  C   UNL     1      -4.932   2.087 131.564  0.00  0.00    +0.000 C 
ATOM      9  C   UNL     1      -3.806   1.340 131.575  0.00  0.00    +0.000 C 
ATOM     10  C   UNL     1      -4.047   0.515 132.724  0.00  0.00    +0.000 C 
ATOM     11  O   UNL     1      -4.128  -0.731 132.635  0.00  0.00    +0.000 OA
ATOM     12  C   UNL     1      -4.002   1.422 133.920  0.00  0.00    +0.000 C 
ATOM     13  C   UNL     1      -4.428   2.755 133.803  0.00  0.00    +0.000 C 
ATOM     14  C   UNL     1      -4.801   3.423 132.275  0.00  0.00    +0.000 C 
ATOM     15  C   UNL     1      -3.591   4.009 131.447  0.00  0.00    +0.000 C 
ATOM     16  C   UNL     1      -5.930   4.494 131.676  0.00  0.00    +0.000 C 
ATOM     17  F   UNL     1      -5.377   4.930 130.433  0.00  0.00    +0.000 F 
ATOM     18  C   UNL     1      -6.135   5.883 132.343  0.00  0.00    +0.000 C 
ATOM     19  C   UNL     1      -7.011   6.737 131.439  0.00  0.00    +0.000 C 
ATOM     20  C   UNL     1      -8.405   6.232 130.768  0.00  0.00    +0.000 C 
ATOM     21  C   UNL     1      -8.680   7.599 130.078  0.00  0.00    +0.000 C 
ATOM     22  C   UNL     1      -9.911   5.640 131.440  0.00  0.00    +0.000 C 
ATOM     23  O   UNL     1      -9.633   5.422 132.818  0.00  0.00    +0.000 OA
ATOM     24  C   UNL     1      -9.504   4.063 133.300  0.00  0.00    +0.000 C 
ATOM     25  C   UNL     1      -8.226   4.676 134.194  0.00  0.00    +0.000 C 
ATOM     26  C   UNL     1      -8.650   2.702 133.474  0.00  0.00    +0.000 C 
ATOM     27  O   UNL     1      -9.809   3.438 131.981  0.00  0.00    +0.000 OA
ENDROOT
BRANCH  18  28
ATOM     28  O   UNL     1      -4.870   6.529 132.571  0.00  0.00    +0.000 OA
ATOM     29  H   UNL     1      -5.031   7.489 132.583  0.00  0.00    +0.000 HD
ENDBRANCH  18  28
BRANCH  22  30
ATOM     30  C   UNL     1     -11.511   6.173 131.082  0.00  0.00    +0.000 C 
ATOM     31  O   UNL     1     -12.257   6.612 131.962  0.00  0.00    +0.000 OA
BRANCH  30  32
ATOM     32  C   UNL     1     -12.121   6.049 129.505  0.00  0.00    +0.000 C 
BRANCH  32  33
ATOM     33  O   UNL     1     -11.415   6.658 128.387  0.00  0.00    +0.000 OA
BRANCH  33  34
ATOM     34  C   UNL     1     -11.611   7.933 127.922  0.00  0.00    +0.000 C 
ATOM     35  C   UNL     1     -12.672   8.816 128.533  0.00  0.00    +0.000 C 
ATOM     36  O   UNL     1     -10.911   8.388 127.017  0.00  0.00    +0.000 OA
ENDBRANCH  33  34
ENDBRANCH  32  33
ENDBRANCH  30  32
ENDBRANCH  22  30
TORSDOF 5
ENDMDL
MODEL 5
REMARK VINA RESULT:      -9.0      4.270      6.413
REMARK  Name = Fluocinonide
REMARK  10 active torsions:
REMARK  status: ('A' for Active; 'I' for Inactive)
REMARK    1  A    between atoms: C_17  and  C_18
REMARK    2  A    between atoms: C_21  and  O_22
REMARK    3  A    between atoms: C_24  and  C_25
REMARK    4  A    between atoms: C_26  and  C_32
REMARK    5  A    between atoms: C_28  and  C_29
REMARK    6  A    between atoms: C_28  and  C_30
REMARK    7  A    between atoms: C_32  and  C_34
REMARK    8  A    between atoms: C_34  and  O_35
REMARK    9  A    between atoms: O_35  and  C_36
REMARK   10  A    between atoms: C_36  and  C_37
REMARK                            x       y       z     vdW  Elec       q    Type
REMARK                         _______ _______ _______ _____ _____    ______ ____
ROOT
ATOM      1  C   UNL     1      -8.360   1.227 132.397  0.00  0.00    +0.000 C 
ATOM      2  C   UNL     1      -9.188   0.127 131.736  0.00  0.00    +0.000 C 
ATOM      3  C   UNL     1      -8.239  -0.475 130.739  0.00  0.00    +0.000 C 
ATOM      4  C   UNL     1      -7.124  -1.248 131.585  0.00  0.00    +0.000 C 
ATOM      5  C   UNL     1      -7.657  -2.228 132.670  0.00  0.00    +0.000 C 
ATOM      6  C   UNL     1      -6.643  -3.051 133.439  0.00  0.00    +0.000 C 
ATOM      7  F   UNL     1      -5.816  -2.357 134.250  0.00  0.00    +0.000 F 
ATOM      8  C   UNL     1      -5.931  -3.808 132.386  0.00  0.00    +0.000 C 
ATOM      9  C   UNL     1      -5.550  -5.091 132.577  0.00  0.00    +0.000 C 
ATOM     10  C   UNL     1      -4.669  -4.940 133.700  0.00  0.00    +0.000 C 
ATOM     11  O   UNL     1      -4.898  -5.498 134.796  0.00  0.00    +0.000 OA
ATOM     12  C   UNL     1      -3.472  -4.180 133.206  0.00  0.00    +0.000 C 
ATOM     13  C   UNL     1      -3.622  -3.225 132.187  0.00  0.00    +0.000 C 
ATOM     14  C   UNL     1      -5.105  -3.060 131.355  0.00  0.00    +0.000 C 
ATOM     15  C   UNL     1      -5.336  -4.026 130.128  0.00  0.00    +0.000 C 
ATOM     16  C   UNL     1      -5.995  -1.798 130.727  0.00  0.00    +0.000 C 
ATOM     17  F   UNL     1      -6.877  -2.420 129.790  0.00  0.00    +0.000 F 
ATOM     18  C   UNL     1      -5.335  -0.760 129.775  0.00  0.00    +0.000 C 
ATOM     19  C   UNL     1      -6.426   0.097 129.152  0.00  0.00    +0.000 C 
ATOM     20  C   UNL     1      -7.633   0.800 129.989  0.00  0.00    +0.000 C 
ATOM     21  C   UNL     1      -8.245   1.474 128.727  0.00  0.00    +0.000 C 
ATOM     22  C   UNL     1      -7.660   1.960 131.302  0.00  0.00    +0.000 C 
ATOM     23  O   UNL     1      -6.309   2.043 131.741  0.00  0.00    +0.000 OA
ATOM     24  C   UNL     1      -5.943   1.430 133.001  0.00  0.00    +0.000 C 
ATOM     25  C   UNL     1      -4.569   0.943 132.177  0.00  0.00    +0.000 C 
ATOM     26  C   UNL     1      -5.577   0.127 133.883  0.00  0.00    +0.000 C 
ATOM     27  O   UNL     1      -7.329   0.983 133.324  0.00  0.00    +0.000 OA
ENDROOT
BRANCH  18  28
ATOM     28  O   UNL     1      -4.573  -1.423 128.751  0.00  0.00    +0.000 OA
ATOM     29  H   UNL     1      -3.850  -1.904 129.191  0.00  0.00    +0.000 HD
ENDBRANCH  18  28
BRANCH  22  30
ATOM     30  C   UNL     1      -8.563   3.424 131.400  0.00  0.00    +0.000 C 
ATOM     31  O   UNL     1      -8.123   4.416 131.990  0.00  0.00    +0.000 OA
BRANCH  30  32
ATOM     32  C   UNL     1     -10.119   3.517 130.733  0.00  0.00    +0.000 C 
BRANCH  32  33
ATOM     33  O   UNL     1     -10.477   4.607 129.836  0.00  0.00    +0.000 OA
BRANCH  33  34
ATOM     34  C   UNL     1     -11.461   5.534 130.065  0.00  0.00    +0.000 C 
ATOM     35  C   UNL     1     -11.519   6.281 131.375  0.00  0.00    +0.000 C 
ATOM     36  O   UNL     1     -12.298   5.789 129.199  0.00  0.00    +0.000 OA
ENDBRANCH  33  34
ENDBRANCH  32  33
ENDBRANCH  30  32
ENDBRANCH  22  30
TORSDOF 5
ENDMDL
MODEL 6
REMARK VINA RESULT:      -9.0      3.299      7.948
REMARK  Name = Fluocinonide
REMARK  10 active torsions:
REMARK  status: ('A' for Active; 'I' for Inactive)
REMARK    1  A    between atoms: C_17  and  C_18
REMARK    2  A    between atoms: C_21  and  O_22
REMARK    3  A    between atoms: C_24  and  C_25
REMARK    4  A    between atoms: C_26  and  C_32
REMARK    5  A    between atoms: C_28  and  C_29
REMARK    6  A    between atoms: C_28  and  C_30
REMARK    7  A    between atoms: C_32  and  C_34
REMARK    8  A    between atoms: C_34  and  O_35
REMARK    9  A    between atoms: O_35  and  C_36
REMARK   10  A    between atoms: C_36  and  C_37
REMARK                            x       y       z     vdW  Elec       q    Type
REMARK                         _______ _______ _______ _____ _____    ______ ____
ROOT
ATOM      1  C   UNL     1      -8.168  -0.053 130.531  0.00  0.00    +0.000 C 
ATOM      2  C   UNL     1      -9.000   0.051 131.808  0.00  0.00    +0.000 C 
ATOM      3  C   UNL     1      -8.295   1.114 132.600  0.00  0.00    +0.000 C 
ATOM      4  C   UNL     1      -8.546   2.493 131.830  0.00  0.00    +0.000 C 
ATOM      5  C   UNL     1     -10.027   2.805 131.468  0.00  0.00    +0.000 C 
ATOM      6  C   UNL     1     -10.329   4.141 130.817  0.00  0.00    +0.000 C 
ATOM      7  F   UNL     1      -9.826   4.317 129.576  0.00  0.00    +0.000 F 
ATOM      8  C   UNL     1      -9.832   5.132 131.796  0.00  0.00    +0.000 C 
ATOM      9  C   UNL     1     -10.498   6.285 132.029  0.00  0.00    +0.000 C 
ATOM     10  C   UNL     1     -10.458   6.881 130.723  0.00  0.00    +0.000 C 
ATOM     11  O   UNL     1     -11.503   7.134 130.083  0.00  0.00    +0.000 OA
ATOM     12  C   UNL     1      -9.023   7.231 130.455  0.00  0.00    +0.000 C 
ATOM     13  C   UNL     1      -7.998   6.434 130.990  0.00  0.00    +0.000 C 
ATOM     14  C   UNL     1      -8.348   5.194 132.112  0.00  0.00    +0.000 C 
ATOM     15  C   UNL     1      -8.451   5.623 133.627  0.00  0.00    +0.000 C 
ATOM     16  C   UNL     1      -7.774   3.661 132.425  0.00  0.00    +0.000 C 
ATOM     17  F   UNL     1      -8.200   3.391 133.761  0.00  0.00    +0.000 F 
ATOM     18  C   UNL     1      -6.250   3.409 132.609  0.00  0.00    +0.000 C 
ATOM     19  C   UNL     1      -6.048   2.000 133.146  0.00  0.00    +0.000 C 
ATOM     20  C   UNL     1      -6.761   0.671 132.533  0.00  0.00    +0.000 C 
ATOM     21  C   UNL     1      -6.059  -0.287 133.537  0.00  0.00    +0.000 C 
ATOM     22  C   UNL     1      -6.735  -0.076 130.948  0.00  0.00    +0.000 C 
ATOM     23  O   UNL     1      -6.108   0.883 130.104  0.00  0.00    +0.000 OA
ATOM     24  C   UNL     1      -6.917   1.618 129.155  0.00  0.00    +0.000 C 
ATOM     25  C   UNL     1      -5.977   2.926 129.618  0.00  0.00    +0.000 C 
ATOM     26  C   UNL     1      -7.959   2.804 128.809  0.00  0.00    +0.000 C 
ATOM     27  O   UNL     1      -8.183   0.911 129.505  0.00  0.00    +0.000 OA
ENDROOT
BRANCH  18  28
ATOM     28  O   UNL     1      -5.681   4.375 133.510  0.00  0.00    +0.000 OA
ATOM     29  H   UNL     1      -5.023   4.888 133.008  0.00  0.00    +0.000 HD
ENDBRANCH  18  28
BRANCH  22  30
ATOM     30  C   UNL     1      -6.417  -1.725 130.562  0.00  0.00    +0.000 C 
ATOM     31  O   UNL     1      -6.393  -2.599 131.433  0.00  0.00    +0.000 OA
BRANCH  30  32
ATOM     32  C   UNL     1      -6.068  -2.179 128.966  0.00  0.00    +0.000 C 
BRANCH  32  33
ATOM     33  O   UNL     1      -6.972  -1.825 127.881  0.00  0.00    +0.000 OA
BRANCH  33  34
ATOM     34  C   UNL     1      -8.012  -2.595 127.430  0.00  0.00    +0.000 C 
ATOM     35  C   UNL     1      -8.621  -3.655 128.315  0.00  0.00    +0.000 C 
ATOM     36  O   UNL     1      -8.484  -2.420 126.306  0.00  0.00    +0.000 OA
ENDBRANCH  33  34
ENDBRANCH  32  33
ENDBRANCH  30  32
ENDBRANCH  22  30
TORSDOF 5
ENDMDL
MODEL 7
REMARK VINA RESULT:      -8.9      4.221      5.596
REMARK  Name = Fluocinonide
REMARK  10 active torsions:
REMARK  status: ('A' for Active; 'I' for Inactive)
REMARK    1  A    between atoms: C_17  and  C_18
REMARK    2  A    between atoms: C_21  and  O_22
REMARK    3  A    between atoms: C_24  and  C_25
REMARK    4  A    between atoms: C_26  and  C_32
REMARK    5  A    between atoms: C_28  and  C_29
REMARK    6  A    between atoms: C_28  and  C_30
REMARK    7  A    between atoms: C_32  and  C_34
REMARK    8  A    between atoms: C_34  and  O_35
REMARK    9  A    between atoms: O_35  and  C_36
REMARK   10  A    between atoms: C_36  and  C_37
REMARK                            x       y       z     vdW  Elec       q    Type
REMARK                         _______ _______ _______ _____ _____    ______ ____
ROOT
ATOM      1  C   UNL     1      -8.915   4.341 129.713  0.00  0.00    +0.000 C 
ATOM      2  C   UNL     1      -7.631   4.116 128.917  0.00  0.00    +0.000 C 
ATOM      3  C   UNL     1      -6.599   3.863 129.978  0.00  0.00    +0.000 C 
ATOM      4  C   UNL     1      -6.946   2.437 130.613  0.00  0.00    +0.000 C 
ATOM      5  C   UNL     1      -7.153   1.277 129.598  0.00  0.00    +0.000 C 
ATOM      6  C   UNL     1      -7.396  -0.114 130.153  0.00  0.00    +0.000 C 
ATOM      7  F   UNL     1      -8.556  -0.284 130.823  0.00  0.00    +0.000 F 
ATOM      8  C   UNL     1      -6.198  -0.379 130.978  0.00  0.00    +0.000 C 
ATOM      9  C   UNL     1      -5.631  -1.605 131.020  0.00  0.00    +0.000 C 
ATOM     10  C   UNL     1      -6.719  -2.382 131.541  0.00  0.00    +0.000 C 
ATOM     11  O   UNL     1      -7.226  -3.323 130.890  0.00  0.00    +0.000 OA
ATOM     12  C   UNL     1      -6.929  -1.930 132.957  0.00  0.00    +0.000 C 
ATOM     13  C   UNL     1      -6.674  -0.595 133.310  0.00  0.00    +0.000 C 
ATOM     14  C   UNL     1      -5.930   0.475 132.205  0.00  0.00    +0.000 C 
ATOM     15  C   UNL     1      -4.352   0.457 132.160  0.00  0.00    +0.000 C 
ATOM     16  C   UNL     1      -6.076   2.089 131.812  0.00  0.00    +0.000 C 
ATOM     17  F   UNL     1      -4.854   2.401 131.142  0.00  0.00    +0.000 F 
ATOM     18  C   UNL     1      -6.024   3.180 132.918  0.00  0.00    +0.000 C 
ATOM     19  C   UNL     1      -5.908   4.544 132.256  0.00  0.00    +0.000 C 
ATOM     20  C   UNL     1      -6.841   5.049 131.022  0.00  0.00    +0.000 C 
ATOM     21  C   UNL     1      -6.169   6.450 130.958  0.00  0.00    +0.000 C 
ATOM     22  C   UNL     1      -8.571   5.259 130.839  0.00  0.00    +0.000 C 
ATOM     23  O   UNL     1      -9.136   4.636 131.986  0.00  0.00    +0.000 OA
ATOM     24  C   UNL     1      -9.814   3.365 131.831  0.00  0.00    +0.000 C 
ATOM     25  C   UNL     1      -9.039   2.965 133.263  0.00  0.00    +0.000 C 
ATOM     26  C   UNL     1      -9.779   1.760 131.652  0.00  0.00    +0.000 C 
ATOM     27  O   UNL     1      -9.631   3.311 130.352  0.00  0.00    +0.000 OA
ENDROOT
BRANCH  18  28
ATOM     28  O   UNL     1      -4.911   2.955 133.801  0.00  0.00    +0.000 OA
ATOM     29  H   UNL     1      -5.273   2.721 134.673  0.00  0.00    +0.000 HD
ENDBRANCH  18  28
BRANCH  22  30
ATOM     30  C   UNL     1      -9.412   6.647 130.258  0.00  0.00    +0.000 C 
ATOM     31  O   UNL     1      -8.817   7.691 129.978  0.00  0.00    +0.000 OA
BRANCH  30  32
ATOM     32  C   UNL     1     -11.101   6.627 130.115  0.00  0.00    +0.000 C 
BRANCH  32  33
ATOM     33  O   UNL     1     -11.734   6.237 128.863  0.00  0.00    +0.000 OA
BRANCH  33  34
ATOM     34  C   UNL     1     -12.284   7.098 127.949  0.00  0.00    +0.000 C 
ATOM     35  C   UNL     1     -12.546   8.538 128.315  0.00  0.00    +0.000 C 
ATOM     36  O   UNL     1     -12.552   6.718 126.809  0.00  0.00    +0.000 OA
ENDBRANCH  33  34
ENDBRANCH  32  33
ENDBRANCH  30  32
ENDBRANCH  22  30
TORSDOF 5
ENDMDL
MODEL 8
REMARK VINA RESULT:      -8.9      2.211      6.942
REMARK  Name = Fluocinonide
REMARK  10 active torsions:
REMARK  status: ('A' for Active; 'I' for Inactive)
REMARK    1  A    between atoms: C_17  and  C_18
REMARK    2  A    between atoms: C_21  and  O_22
REMARK    3  A    between atoms: C_24  and  C_25
REMARK    4  A    between atoms: C_26  and  C_32
REMARK    5  A    between atoms: C_28  and  C_29
REMARK    6  A    between atoms: C_28  and  C_30
REMARK    7  A    between atoms: C_32  and  C_34
REMARK    8  A    between atoms: C_34  and  O_35
REMARK    9  A    between atoms: O_35  and  C_36
REMARK   10  A    between atoms: C_36  and  C_37
REMARK                            x       y       z     vdW  Elec       q    Type
REMARK                         _______ _______ _______ _____ _____    ______ ____
ROOT
ATOM      1  C   UNL     1      -8.848   1.444 125.587  0.00  0.00    +0.000 C 
ATOM      2  C   UNL     1      -8.653   0.445 126.726  0.00  0.00    +0.000 C 
ATOM      3  C   UNL     1      -7.189   0.552 127.041  0.00  0.00    +0.000 C 
ATOM      4  C   UNL     1      -6.974   1.988 127.710  0.00  0.00    +0.000 C 
ATOM      5  C   UNL     1      -7.933   2.336 128.885  0.00  0.00    +0.000 C 
ATOM      6  C   UNL     1      -7.713   3.649 129.612  0.00  0.00    +0.000 C 
ATOM      7  F   UNL     1      -7.942   4.766 128.888  0.00  0.00    +0.000 F 
ATOM      8  C   UNL     1      -6.325   3.548 130.112  0.00  0.00    +0.000 C 
ATOM      9  C   UNL     1      -5.978   4.028 131.326  0.00  0.00    +0.000 C 
ATOM     10  C   UNL     1      -6.300   5.417 131.162  0.00  0.00    +0.000 C 
ATOM     11  O   UNL     1      -7.160   5.982 131.875  0.00  0.00    +0.000 OA
ATOM     12  C   UNL     1      -5.325   5.967 130.162  0.00  0.00    +0.000 C 
ATOM     13  C   UNL     1      -4.840   5.144 129.133  0.00  0.00    +0.000 C 
ATOM     14  C   UNL     1      -5.177   3.468 129.121  0.00  0.00    +0.000 C 
ATOM     15  C   UNL     1      -4.208   2.548 129.963  0.00  0.00    +0.000 C 
ATOM     16  C   UNL     1      -5.511   2.319 127.961  0.00  0.00    +0.000 C 
ATOM     17  F   UNL     1      -5.237   1.075 128.607  0.00  0.00    +0.000 F 
ATOM     18  C   UNL     1      -4.583   2.150 126.724  0.00  0.00    +0.000 C 
ATOM     19  C   UNL     1      -4.967   0.873 125.994  0.00  0.00    +0.000 C 
ATOM     20  C   UNL     1      -6.493   0.460 125.604  0.00  0.00    +0.000 C 
ATOM     21  C   UNL     1      -6.060  -0.857 124.900  0.00  0.00    +0.000 C 
ATOM     22  C   UNL     1      -7.727   1.229 124.625  0.00  0.00    +0.000 C 
ATOM     23  O   UNL     1      -7.226   2.536 124.370  0.00  0.00    +0.000 OA
ATOM     24  C   UNL     1      -7.825   3.662 125.056  0.00  0.00    +0.000 C 
ATOM     25  C   UNL     1      -6.245   4.199 125.208  0.00  0.00    +0.000 C 
ATOM     26  C   UNL     1      -8.002   4.580 126.374  0.00  0.00    +0.000 C 
ATOM     27  O   UNL     1      -8.850   2.841 125.762  0.00  0.00    +0.000 OA
ENDROOT
BRANCH  18  28
ATOM     28  O   UNL     1      -3.203   2.101 127.127  0.00  0.00    +0.000 OA
ATOM     29  H   UNL     1      -3.182   2.147 128.099  0.00  0.00    +0.000 HD
ENDBRANCH  18  28
BRANCH  22  30
ATOM     30  C   UNL     1      -8.656   0.529 123.354  0.00  0.00    +0.000 C 
ATOM     31  O   UNL     1      -9.375   1.219 122.625  0.00  0.00    +0.000 OA
BRANCH  30  32
ATOM     32  C   UNL     1      -8.648  -1.148 123.111  0.00  0.00    +0.000 C 
BRANCH  32  33
ATOM     33  O   UNL     1      -9.609  -2.000 123.796  0.00  0.00    +0.000 OA
BRANCH  33  34
ATOM     34  C   UNL     1      -9.314  -2.885 124.801  0.00  0.00    +0.000 C 
ATOM     35  C   UNL     1      -8.163  -3.850 124.657  0.00  0.00    +0.000 C 
ATOM     36  O   UNL     1      -9.965  -2.891 125.845  0.00  0.00    +0.000 OA
ENDBRANCH  33  34
ENDBRANCH  32  33
ENDBRANCH  30  32
ENDBRANCH  22  30
TORSDOF 5
ENDMDL
MODEL 9
REMARK VINA RESULT:      -8.9      3.339      5.326
REMARK  Name = Fluocinonide
REMARK  10 active torsions:
REMARK  status: ('A' for Active; 'I' for Inactive)
REMARK    1  A    between atoms: C_17  and  C_18
REMARK    2  A    between atoms: C_21  and  O_22
REMARK    3  A    between atoms: C_24  and  C_25
REMARK    4  A    between atoms: C_26  and  C_32
REMARK    5  A    between atoms: C_28  and  C_29
REMARK    6  A    between atoms: C_28  and  C_30
REMARK    7  A    between atoms: C_32  and  C_34
REMARK    8  A    between atoms: C_34  and  O_35
REMARK    9  A    between atoms: O_35  and  C_36
REMARK   10  A    between atoms: C_36  and  C_37
REMARK                            x       y       z     vdW  Elec       q    Type
REMARK                         _______ _______ _______ _____ _____    ______ ____
ROOT
ATOM      1  C   UNL     1      -8.854   3.780 131.180  0.00  0.00    +0.000 C 
ATOM      2  C   UNL     1      -9.706   2.905 130.263  0.00  0.00    +0.000 C 
ATOM      3  C   UNL     1      -8.692   2.180 129.426  0.00  0.00    +0.000 C 
ATOM      4  C   UNL     1      -7.951   1.154 130.404  0.00  0.00    +0.000 C 
ATOM      5  C   UNL     1      -8.879   0.245 131.259  0.00  0.00    +0.000 C 
ATOM      6  C   UNL     1      -8.226  -0.806 132.137  0.00  0.00    +0.000 C 
ATOM      7  F   UNL     1      -7.482  -0.337 133.161  0.00  0.00    +0.000 F 
ATOM      8  C   UNL     1      -7.455  -1.633 131.183  0.00  0.00    +0.000 C 
ATOM      9  C   UNL     1      -7.370  -2.974 131.325  0.00  0.00    +0.000 C 
ATOM     10  C   UNL     1      -6.741  -3.064 132.612  0.00  0.00    +0.000 C 
ATOM     11  O   UNL     1      -7.303  -3.623 133.581  0.00  0.00    +0.000 OA
ATOM     12  C   UNL     1      -5.346  -2.535 132.445  0.00  0.00    +0.000 C 
ATOM     13  C   UNL     1      -5.091  -1.517 131.513  0.00  0.00    +0.000 C 
ATOM     14  C   UNL     1      -6.301  -1.012 130.417  0.00  0.00    +0.000 C 
ATOM     15  C   UNL     1      -6.434  -1.844 129.082  0.00  0.00    +0.000 C 
ATOM     16  C   UNL     1      -6.784   0.435 129.744  0.00  0.00    +0.000 C 
ATOM     17  F   UNL     1      -7.540   0.054 128.594  0.00  0.00    +0.000 F 
ATOM     18  C   UNL     1      -5.752   1.368 129.049  0.00  0.00    +0.000 C 
ATOM     19  C   UNL     1      -6.503   2.460 128.302  0.00  0.00    +0.000 C 
ATOM     20  C   UNL     1      -7.711   3.345 128.940  0.00  0.00    +0.000 C 
ATOM     21  C   UNL     1      -7.899   4.194 127.650  0.00  0.00    +0.000 C 
ATOM     22  C   UNL     1      -7.808   4.415 130.324  0.00  0.00    +0.000 C 
ATOM     23  O   UNL     1      -6.594   4.201 131.034  0.00  0.00    +0.000 OA
ATOM     24  C   UNL     1      -6.631   3.460 132.278  0.00  0.00    +0.000 C 
ATOM     25  C   UNL     1      -5.224   2.751 131.707  0.00  0.00    +0.000 C 
ATOM     26  C   UNL     1      -6.713   2.064 133.088  0.00  0.00    +0.000 C 
ATOM     27  O   UNL     1      -8.112   3.284 132.269  0.00  0.00    +0.000 OA
ENDROOT
BRANCH  18  28
ATOM     28  O   UNL     1      -4.921   0.621 128.143  0.00  0.00    +0.000 OA
ATOM     29  H   UNL     1      -4.828  -0.277 128.506  0.00  0.00    +0.000 HD
ENDBRANCH  18  28
BRANCH  22  30
ATOM     30  C   UNL     1      -8.424   6.023 130.376  0.00  0.00    +0.000 C 
ATOM     31  O   UNL     1      -7.711   6.977 130.701  0.00  0.00    +0.000 OA
BRANCH  30  32
ATOM     32  C   UNL     1     -10.057   6.326 130.035  0.00  0.00    +0.000 C 
BRANCH  32  33
ATOM     33  O   UNL     1     -10.583   6.125 128.692  0.00  0.00    +0.000 OA
BRANCH  33  34
ATOM     34  C   UNL     1     -10.549   7.048 127.679  0.00  0.00    +0.000 C 
ATOM     35  C   UNL     1     -10.601   8.525 127.986  0.00  0.00    +0.000 C 
ATOM     36  O   UNL     1     -10.452   6.690 126.505  0.00  0.00    +0.000 OA
ENDBRANCH  33  34
ENDBRANCH  32  33
ENDBRANCH  30  32
ENDBRANCH  22  30
TORSDOF 5
ENDMDL
