MODEL 1
REMARK VINA RESULT:      -7.5      0.000      0.000
REMARK  Name = Fluoxetine
REMARK  8 active torsions:
REMARK  status: ('A' for Active; 'I' for Inactive)
REMARK    1  A    between atoms: C_1  and  N_2
REMARK    2  A    between atoms: N_2  and  C_3
REMARK    3  A    between atoms: C_3  and  C_4
REMARK    4  A    between atoms: C_4  and  C_5
REMARK    5  A    between atoms: C_5  and  O_6
REMARK    6  A    between atoms: C_5  and  C_17
REMARK    7  A    between atoms: O_6  and  C_7
REMARK    8  A    between atoms: C_10  and  C_13
REMARK                            x       y       z     vdW  Elec       q    Type
REMARK                         _______ _______ _______ _____ _____    ______ ____
ROOT
ATOM      1  C   UNL     1      -6.338   3.313 122.493  0.00  0.00    +0.000 C 
ENDROOT
BRANCH   1   2
ATOM      2  C   UNL     1      -6.348   3.963 121.077  0.00  0.00    +0.000 A 
ATOM      3  C   UNL     1      -5.258   4.740 120.648  0.00  0.00    +0.000 A 
ATOM      4  C   UNL     1      -5.292   5.426 119.425  0.00  0.00    +0.000 A 
ATOM      5  C   UNL     1      -6.393   5.316 118.579  0.00  0.00    +0.000 A 
ATOM      6  C   UNL     1      -7.471   4.537 118.962  0.00  0.00    +0.000 A 
ATOM      7  C   UNL     1      -7.446   3.876 120.192  0.00  0.00    +0.000 A 
ENDBRANCH   1   2
BRANCH   1   8
ATOM      8  C   UNL     1      -5.608   4.251 123.497  0.00  0.00    +0.000 C 
BRANCH   8   9
ATOM      9  C   UNL     1      -6.196   4.352 124.903  0.00  0.00    +0.000 C 
BRANCH   9  11
ATOM     10  C   UNL     1      -8.243   4.824 126.079  0.00  0.00    +0.000 C 
ATOM     11  N   UNL     1      -7.536   4.940 124.814  0.00  0.00    +0.000 NA
ATOM     12  H   UNL     1      -7.470   5.914 124.527  0.00  0.00    +0.000 HD
ENDBRANCH   9  11
ENDBRANCH   8   9
ENDBRANCH   1   8
BRANCH   1  13
ATOM     13  O   UNL     1      -7.730   2.956 122.800  0.00  0.00    +0.000 OA
BRANCH  13  14
ATOM     14  C   UNL     1      -8.052   1.673 123.146  0.00  0.00    +0.000 A 
ATOM     15  C   UNL     1      -9.359   1.187 123.000  0.00  0.00    +0.000 A 
ATOM     16  C   UNL     1      -9.653  -0.153 123.338  0.00  0.00    +0.000 A 
ATOM     17  C   UNL     1      -8.636  -1.053 123.643  0.00  0.00    +0.000 A 
ATOM     18  C   UNL     1      -7.373  -0.519 123.883  0.00  0.00    +0.000 A 
ATOM     19  C   UNL     1      -7.159   0.858 123.805  0.00  0.00    +0.000 A 
BRANCH  17  20
ATOM     20  C   UNL     1      -8.844  -2.535 123.821  0.00  0.00    +0.000 C 
ATOM     21  F   UNL     1      -7.686  -3.235 123.686  0.00  0.00    +0.000 F 
ATOM     22  F   UNL     1      -9.352  -2.863 125.041  0.00  0.00    +0.000 F 
ATOM     23  F   UNL     1      -9.709  -3.075 122.912  0.00  0.00    +0.000 F 
ENDBRANCH  17  20
ENDBRANCH  13  14
ENDBRANCH   1  13
TORSDOF 7
ENDMDL
MODEL 2
REMARK VINA RESULT:      -7.2      1.472      2.026
REMARK  Name = Fluoxetine
REMARK  8 active torsions:
REMARK  status: ('A' for Active; 'I' for Inactive)
REMARK    1  A    between atoms: C_1  and  N_2
REMARK    2  A    between atoms: N_2  and  C_3
REMARK    3  A    between atoms: C_3  and  C_4
REMARK    4  A    between atoms: C_4  and  C_5
REMARK    5  A    between atoms: C_5  and  O_6
REMARK    6  A    between atoms: C_5  and  C_17
REMARK    7  A    between atoms: O_6  and  C_7
REMARK    8  A    between atoms: C_10  and  C_13
REMARK                            x       y       z     vdW  Elec       q    Type
REMARK                         _______ _______ _______ _____ _____    ______ ____
ROOT
ATOM      1  C   UNL     1      -6.768   2.922 123.257  0.00  0.00    +0.000 C 
ENDROOT
BRANCH   1   2
ATOM      2  C   UNL     1      -7.192   3.470 121.862  0.00  0.00    +0.000 A 
ATOM      3  C   UNL     1      -8.546   3.473 121.486  0.00  0.00    +0.000 A 
ATOM      4  C   UNL     1      -8.941   3.856 120.194  0.00  0.00    +0.000 A 
ATOM      5  C   UNL     1      -8.000   4.291 119.264  0.00  0.00    +0.000 A 
ATOM      6  C   UNL     1      -6.661   4.325 119.615  0.00  0.00    +0.000 A 
ATOM      7  C   UNL     1      -6.268   3.918 120.891  0.00  0.00    +0.000 A 
ENDBRANCH   1   2
BRANCH   1   8
ATOM      8  C   UNL     1      -6.000   4.023 124.043  0.00  0.00    +0.000 C 
BRANCH   8   9
ATOM      9  C   UNL     1      -5.053   3.554 125.146  0.00  0.00    +0.000 C 
BRANCH   9  11
ATOM     10  C   UNL     1      -5.218   1.512 126.411  0.00  0.00    +0.000 C 
ATOM     11  N   UNL     1      -5.825   2.806 126.143  0.00  0.00    +0.000 NA
ATOM     12  H   UNL     1      -5.905   3.349 127.000  0.00  0.00    +0.000 HD
ENDBRANCH   9  11
ENDBRANCH   8   9
ENDBRANCH   1   8
BRANCH   1  13
ATOM     13  O   UNL     1      -7.982   2.379 123.880  0.00  0.00    +0.000 OA
BRANCH  13  14
ATOM     14  C   UNL     1      -8.099   1.036 124.108  0.00  0.00    +0.000 A 
ATOM     15  C   UNL     1      -8.876   0.542 125.165  0.00  0.00    +0.000 A 
ATOM     16  C   UNL     1      -9.001  -0.852 125.356  0.00  0.00    +0.000 A 
ATOM     17  C   UNL     1      -8.515  -1.750 124.409  0.00  0.00    +0.000 A 
ATOM     18  C   UNL     1      -7.663  -1.237 123.434  0.00  0.00    +0.000 A 
ATOM     19  C   UNL     1      -7.333   0.119 123.424  0.00  0.00    +0.000 A 
BRANCH  17  20
ATOM     20  C   UNL     1      -8.778  -3.233 124.436  0.00  0.00    +0.000 C 
ATOM     21  F   UNL     1      -7.682  -3.955 124.082  0.00  0.00    +0.000 F 
ATOM     22  F   UNL     1      -9.158  -3.688 125.662  0.00  0.00    +0.000 F 
ATOM     23  F   UNL     1      -9.770  -3.625 123.582  0.00  0.00    +0.000 F 
ENDBRANCH  17  20
ENDBRANCH  13  14
ENDBRANCH   1  13
TORSDOF 7
ENDMDL
MODEL 3
REMARK VINA RESULT:      -6.9      9.979     11.247
REMARK  Name = Fluoxetine
REMARK  8 active torsions:
REMARK  status: ('A' for Active; 'I' for Inactive)
REMARK    1  A    between atoms: C_1  and  N_2
REMARK    2  A    between atoms: N_2  and  C_3
REMARK    3  A    between atoms: C_3  and  C_4
REMARK    4  A    between atoms: C_4  and  C_5
REMARK    5  A    between atoms: C_5  and  O_6
REMARK    6  A    between atoms: C_5  and  C_17
REMARK    7  A    between atoms: O_6  and  C_7
REMARK    8  A    between atoms: C_10  and  C_13
REMARK                            x       y       z     vdW  Elec       q    Type
REMARK                         _______ _______ _______ _____ _____    ______ ____
ROOT
ATOM      1  C   UNL     1      -7.590   5.043 131.846  0.00  0.00    +0.000 C 
ENDROOT
BRANCH   1   2
ATOM      2  C   UNL     1      -6.208   5.758 131.921  0.00  0.00    +0.000 A 
ATOM      3  C   UNL     1      -5.426   5.665 133.086  0.00  0.00    +0.000 A 
ATOM      4  C   UNL     1      -4.233   6.390 133.219  0.00  0.00    +0.000 A 
ATOM      5  C   UNL     1      -3.766   7.188 132.177  0.00  0.00    +0.000 A 
ATOM      6  C   UNL     1      -4.500   7.278 131.007  0.00  0.00    +0.000 A 
ATOM      7  C   UNL     1      -5.701   6.576 130.886  0.00  0.00    +0.000 A 
ENDBRANCH   1   2
BRANCH   1   8
ATOM      8  C   UNL     1      -7.501   3.654 132.541  0.00  0.00    +0.000 C 
BRANCH   8   9
ATOM      9  C   UNL     1      -8.414   3.423 133.744  0.00  0.00    +0.000 C 
BRANCH   9  11
ATOM     10  C   UNL     1      -9.749   2.064 132.271  0.00  0.00    +0.000 C 
ATOM     11  N   UNL     1      -9.766   3.130 133.260  0.00  0.00    +0.000 NA
ATOM     12  H   UNL     1     -10.370   2.884 134.042  0.00  0.00    +0.000 HD
ENDBRANCH   9  11
ENDBRANCH   8   9
ENDBRANCH   1   8
BRANCH   1  13
ATOM     13  O   UNL     1      -8.582   5.992 132.370  0.00  0.00    +0.000 OA
BRANCH  13  14
ATOM     14  C   UNL     1      -9.584   6.457 131.565  0.00  0.00    +0.000 A 
ATOM     15  C   UNL     1     -10.930   6.345 131.940  0.00  0.00    +0.000 A 
ATOM     16  C   UNL     1     -11.940   6.863 131.099  0.00  0.00    +0.000 A 
ATOM     17  C   UNL     1     -11.620   7.643 129.992  0.00  0.00    +0.000 A 
ATOM     18  C   UNL     1     -10.286   7.647 129.590  0.00  0.00    +0.000 A 
ATOM     19  C   UNL     1      -9.334   6.902 130.286  0.00  0.00    +0.000 A 
BRANCH  17  20
ATOM     20  C   UNL     1     -12.631   8.392 129.163  0.00  0.00    +0.000 C 
ATOM     21  F   UNL     1     -13.677   7.606 128.797  0.00  0.00    +0.000 F 
ATOM     22  F   UNL     1     -13.164   9.466 129.810  0.00  0.00    +0.000 F 
ATOM     23  F   UNL     1     -12.117   8.891 128.000  0.00  0.00    +0.000 F 
ENDBRANCH  17  20
ENDBRANCH  13  14
ENDBRANCH   1  13
TORSDOF 7
ENDMDL
MODEL 4
REMARK VINA RESULT:      -6.8      2.375      3.072
REMARK  Name = Fluoxetine
REMARK  8 active torsions:
REMARK  status: ('A' for Active; 'I' for Inactive)
REMARK    1  A    between atoms: C_1  and  N_2
REMARK    2  A    between atoms: N_2  and  C_3
REMARK    3  A    between atoms: C_3  and  C_4
REMARK    4  A    between atoms: C_4  and  C_5
REMARK    5  A    between atoms: C_5  and  O_6
REMARK    6  A    between atoms: C_5  and  C_17
REMARK    7  A    between atoms: O_6  and  C_7
REMARK    8  A    between atoms: C_10  and  C_13
REMARK                            x       y       z     vdW  Elec       q    Type
REMARK                         _______ _______ _______ _____ _____    ______ ____
ROOT
ATOM      1  C   UNL     1      -6.865   2.082 123.639  0.00  0.00    +0.000 C 
ENDROOT
BRANCH   1   2
ATOM      2  C   UNL     1      -7.191   2.761 122.275  0.00  0.00    +0.000 A 
ATOM      3  C   UNL     1      -6.151   3.148 121.412  0.00  0.00    +0.000 A 
ATOM      4  C   UNL     1      -6.413   3.862 120.233  0.00  0.00    +0.000 A 
ATOM      5  C   UNL     1      -7.721   4.163 119.861  0.00  0.00    +0.000 A 
ATOM      6  C   UNL     1      -8.768   3.770 120.676  0.00  0.00    +0.000 A 
ATOM      7  C   UNL     1      -8.503   3.084 121.863  0.00  0.00    +0.000 A 
ENDBRANCH   1   2
BRANCH   1   8
ATOM      8  C   UNL     1      -7.160   3.070 124.802  0.00  0.00    +0.000 C 
BRANCH   8   9
ATOM      9  C   UNL     1      -6.270   4.308 124.902  0.00  0.00    +0.000 C 
BRANCH   9  11
ATOM     10  C   UNL     1      -7.854   4.568 126.696  0.00  0.00    +0.000 C 
ATOM     11  N   UNL     1      -6.584   5.015 126.147  0.00  0.00    +0.000 NA
ATOM     12  H   UNL     1      -5.835   4.881 126.822  0.00  0.00    +0.000 HD
ENDBRANCH   9  11
ENDBRANCH   8   9
ENDBRANCH   1   8
BRANCH   1  13
ATOM     13  O   UNL     1      -7.584   0.800 123.650  0.00  0.00    +0.000 OA
BRANCH  13  14
ATOM     14  C   UNL     1      -6.891  -0.379 123.659  0.00  0.00    +0.000 A 
ATOM     15  C   UNL     1      -6.962  -1.273 122.581  0.00  0.00    +0.000 A 
ATOM     16  C   UNL     1      -6.211  -2.468 122.607  0.00  0.00    +0.000 A 
ATOM     17  C   UNL     1      -5.261  -2.695 123.600  0.00  0.00    +0.000 A 
ATOM     18  C   UNL     1      -5.290  -1.847 124.704  0.00  0.00    +0.000 A 
ATOM     19  C   UNL     1      -6.232  -0.820 124.784  0.00  0.00    +0.000 A 
BRANCH  17  20
ATOM     20  C   UNL     1      -4.286  -3.843 123.591  0.00  0.00    +0.000 C 
ATOM     21  F   UNL     1      -3.061  -3.472 123.133  0.00  0.00    +0.000 F 
ATOM     22  F   UNL     1      -4.087  -4.387 124.824  0.00  0.00    +0.000 F 
ATOM     23  F   UNL     1      -4.678  -4.883 122.797  0.00  0.00    +0.000 F 
ENDBRANCH  17  20
ENDBRANCH  13  14
ENDBRANCH   1  13
TORSDOF 7
ENDMDL
MODEL 5
REMARK VINA RESULT:      -6.6      4.940      7.200
REMARK  Name = Fluoxetine
REMARK  8 active torsions:
REMARK  status: ('A' for Active; 'I' for Inactive)
REMARK    1  A    between atoms: C_1  and  N_2
REMARK    2  A    between atoms: N_2  and  C_3
REMARK    3  A    between atoms: C_3  and  C_4
REMARK    4  A    between atoms: C_4  and  C_5
REMARK    5  A    between atoms: C_5  and  O_6
REMARK    6  A    between atoms: C_5  and  C_17
REMARK    7  A    between atoms: O_6  and  C_7
REMARK    8  A    between atoms: C_10  and  C_13
REMARK                            x       y       z     vdW  Elec       q    Type
REMARK                         _______ _______ _______ _____ _____    ______ ____
ROOT
ATOM      1  C   UNL     1      -8.017  -1.842 124.186  0.00  0.00    +0.000 C 
ENDROOT
BRANCH   1   2
ATOM      2  C   UNL     1      -6.739  -2.729 124.085  0.00  0.00    +0.000 A 
ATOM      3  C   UNL     1      -5.522  -2.168 123.661  0.00  0.00    +0.000 A 
ATOM      4  C   UNL     1      -4.387  -2.967 123.454  0.00  0.00    +0.000 A 
ATOM      5  C   UNL     1      -4.426  -4.336 123.712  0.00  0.00    +0.000 A 
ATOM      6  C   UNL     1      -5.603  -4.912 124.156  0.00  0.00    +0.000 A 
ATOM      7  C   UNL     1      -6.739  -4.119 124.335  0.00  0.00    +0.000 A 
ENDBRANCH   1   2
BRANCH   1   8
ATOM      8  C   UNL     1      -8.587  -1.578 122.763  0.00  0.00    +0.000 C 
BRANCH   8   9
ATOM      9  C   UNL     1      -9.798  -0.653 122.664  0.00  0.00    +0.000 C 
BRANCH   9  11
ATOM     10  C   UNL     1      -9.558   1.565 123.571  0.00  0.00    +0.000 C 
ATOM     11  N   UNL     1      -9.860   0.175 123.872  0.00  0.00    +0.000 NA
ATOM     12  H   UNL     1     -10.778   0.093 124.304  0.00  0.00    +0.000 HD
ENDBRANCH   9  11
ENDBRANCH   8   9
ENDBRANCH   1   8
BRANCH   1  13
ATOM     13  O   UNL     1      -8.906  -2.499 125.153  0.00  0.00    +0.000 OA
BRANCH  13  14
ATOM     14  C   UNL     1      -8.543  -2.599 126.467  0.00  0.00    +0.000 A 
ATOM     15  C   UNL     1      -8.947  -3.687 127.254  0.00  0.00    +0.000 A 
ATOM     16  C   UNL     1      -8.530  -3.776 128.600  0.00  0.00    +0.000 A 
ATOM     17  C   UNL     1      -7.576  -2.901 129.113  0.00  0.00    +0.000 A 
ATOM     18  C   UNL     1      -7.276  -1.777 128.347  0.00  0.00    +0.000 A 
ATOM     19  C   UNL     1      -7.910  -1.566 127.121  0.00  0.00    +0.000 A 
BRANCH  17  20
ATOM     20  C   UNL     1      -6.934  -3.048 130.468  0.00  0.00    +0.000 C 
ATOM     21  F   UNL     1      -7.852  -3.235 131.453  0.00  0.00    +0.000 F 
ATOM     22  F   UNL     1      -6.072  -4.100 130.541  0.00  0.00    +0.000 F 
ATOM     23  F   UNL     1      -6.205  -1.957 130.845  0.00  0.00    +0.000 F 
ENDBRANCH  17  20
ENDBRANCH  13  14
ENDBRANCH   1  13
TORSDOF 7
ENDMDL
MODEL 6
REMARK VINA RESULT:      -6.6      3.820      6.239
REMARK  Name = Fluoxetine
REMARK  8 active torsions:
REMARK  status: ('A' for Active; 'I' for Inactive)
REMARK    1  A    between atoms: C_1  and  N_2
REMARK    2  A    between atoms: N_2  and  C_3
REMARK    3  A    between atoms: C_3  and  C_4
REMARK    4  A    between atoms: C_4  and  C_5
REMARK    5  A    between atoms: C_5  and  O_6
REMARK    6  A    between atoms: C_5  and  C_17
REMARK    7  A    between atoms: O_6  and  C_7
REMARK    8  A    between atoms: C_10  and  C_13
REMARK                            x       y       z     vdW  Elec       q    Type
REMARK                         _______ _______ _______ _____ _____    ______ ____
ROOT
ATOM      1  C   UNL     1      -8.518   1.065 125.909  0.00  0.00    +0.000 C 
ENDROOT
BRANCH   1   2
ATOM      2  C   UNL     1      -8.148   0.089 124.752  0.00  0.00    +0.000 A 
ATOM      3  C   UNL     1      -9.158  -0.470 123.949  0.00  0.00    +0.000 A 
ATOM      4  C   UNL     1      -8.860  -1.436 122.976  0.00  0.00    +0.000 A 
ATOM      5  C   UNL     1      -7.544  -1.831 122.747  0.00  0.00    +0.000 A 
ATOM      6  C   UNL     1      -6.525  -1.278 123.503  0.00  0.00    +0.000 A 
ATOM      7  C   UNL     1      -6.827  -0.337 124.490  0.00  0.00    +0.000 A 
ENDBRANCH   1   2
BRANCH   1   8
ATOM      8  C   UNL     1      -7.390   1.063 126.979  0.00  0.00    +0.000 C 
BRANCH   8   9
ATOM      9  C   UNL     1      -7.787   1.439 128.405  0.00  0.00    +0.000 C 
BRANCH   9  11
ATOM     10  C   UNL     1      -9.246   2.871 129.677  0.00  0.00    +0.000 C 
ATOM     11  N   UNL     1      -8.903   2.388 128.349  0.00  0.00    +0.000 NA
ATOM     12  H   UNL     1      -8.668   3.165 127.735  0.00  0.00    +0.000 HD
ENDBRANCH   9  11
ENDBRANCH   8   9
ENDBRANCH   1   8
BRANCH   1  13
ATOM     13  O   UNL     1      -8.844   2.353 125.282  0.00  0.00    +0.000 OA
BRANCH  13  14
ATOM     14  C   UNL     1      -7.989   2.915 124.376  0.00  0.00    +0.000 A 
ATOM     15  C   UNL     1      -6.829   3.586 124.789  0.00  0.00    +0.000 A 
ATOM     16  C   UNL     1      -5.950   4.130 123.827  0.00  0.00    +0.000 A 
ATOM     17  C   UNL     1      -6.115   3.858 122.472  0.00  0.00    +0.000 A 
ATOM     18  C   UNL     1      -7.324   3.283 122.088  0.00  0.00    +0.000 A 
ATOM     19  C   UNL     1      -8.305   2.995 123.038  0.00  0.00    +0.000 A 
BRANCH  17  20
ATOM     20  C   UNL     1      -5.118   4.231 121.406  0.00  0.00    +0.000 C 
ATOM     21  F   UNL     1      -4.057   4.913 121.913  0.00  0.00    +0.000 F 
ATOM     22  F   UNL     1      -4.605   3.153 120.750  0.00  0.00    +0.000 F 
ATOM     23  F   UNL     1      -5.640   5.032 120.430  0.00  0.00    +0.000 F 
ENDBRANCH  17  20
ENDBRANCH  13  14
ENDBRANCH   1  13
TORSDOF 7
ENDMDL
MODEL 7
REMARK VINA RESULT:      -6.6      5.945      9.152
REMARK  Name = Fluoxetine
REMARK  8 active torsions:
REMARK  status: ('A' for Active; 'I' for Inactive)
REMARK    1  A    between atoms: C_1  and  N_2
REMARK    2  A    between atoms: N_2  and  C_3
REMARK    3  A    between atoms: C_3  and  C_4
REMARK    4  A    between atoms: C_4  and  C_5
REMARK    5  A    between atoms: C_5  and  O_6
REMARK    6  A    between atoms: C_5  and  C_17
REMARK    7  A    between atoms: O_6  and  C_7
REMARK    8  A    between atoms: C_10  and  C_13
REMARK                            x       y       z     vdW  Elec       q    Type
REMARK                         _______ _______ _______ _____ _____    ______ ____
ROOT
ATOM      1  C   UNL     1      -7.664  -2.382 129.750  0.00  0.00    +0.000 C 
ENDROOT
BRANCH   1   2
ATOM      2  C   UNL     1      -6.869  -3.256 130.766  0.00  0.00    +0.000 A 
ATOM      3  C   UNL     1      -6.061  -4.312 130.309  0.00  0.00    +0.000 A 
ATOM      4  C   UNL     1      -5.426  -5.182 131.208  0.00  0.00    +0.000 A 
ATOM      5  C   UNL     1      -5.541  -4.991 132.583  0.00  0.00    +0.000 A 
ATOM      6  C   UNL     1      -6.308  -3.943 133.062  0.00  0.00    +0.000 A 
ATOM      7  C   UNL     1      -6.961  -3.095 132.166  0.00  0.00    +0.000 A 
ENDBRANCH   1   2
BRANCH   1   8
ATOM      8  C   UNL     1      -8.107  -1.057 130.432  0.00  0.00    +0.000 C 
BRANCH   8   9
ATOM      9  C   UNL     1      -7.666   0.246 129.767  0.00  0.00    +0.000 C 
BRANCH   9  11
ATOM     10  C   UNL     1      -5.830   0.447 131.312  0.00  0.00    +0.000 C 
ATOM     11  N   UNL     1      -6.213   0.379 129.911  0.00  0.00    +0.000 NA
ATOM     12  H   UNL     1      -5.744  -0.396 129.448  0.00  0.00    +0.000 HD
ENDBRANCH   9  11
ENDBRANCH   8   9
ENDBRANCH   1   8
BRANCH   1  13
ATOM     13  O   UNL     1      -6.825  -2.269 128.549  0.00  0.00    +0.000 OA
BRANCH  13  14
ATOM     14  C   UNL     1      -7.363  -2.482 127.310  0.00  0.00    +0.000 A 
ATOM     15  C   UNL     1      -8.630  -3.061 127.156  0.00  0.00    +0.000 A 
ATOM     16  C   UNL     1      -9.170  -3.240 125.863  0.00  0.00    +0.000 A 
ATOM     17  C   UNL     1      -8.549  -2.688 124.746  0.00  0.00    +0.000 A 
ATOM     18  C   UNL     1      -7.250  -2.216 124.916  0.00  0.00    +0.000 A 
ATOM     19  C   UNL     1      -6.625  -2.295 126.161  0.00  0.00    +0.000 A 
BRANCH  17  20
ATOM     20  C   UNL     1      -9.156  -2.662 123.367  0.00  0.00    +0.000 C 
ATOM     21  F   UNL     1      -9.776  -1.481 123.102  0.00  0.00    +0.000 F 
ATOM     22  F   UNL     1      -8.242  -2.847 122.375  0.00  0.00    +0.000 F 
ATOM     23  F   UNL     1     -10.102  -3.628 123.171  0.00  0.00    +0.000 F 
ENDBRANCH  17  20
ENDBRANCH  13  14
ENDBRANCH   1  13
TORSDOF 7
ENDMDL
MODEL 8
REMARK VINA RESULT:      -6.5      5.841      7.708
REMARK  Name = Fluoxetine
REMARK  8 active torsions:
REMARK  status: ('A' for Active; 'I' for Inactive)
REMARK    1  A    between atoms: C_1  and  N_2
REMARK    2  A    between atoms: N_2  and  C_3
REMARK    3  A    between atoms: C_3  and  C_4
REMARK    4  A    between atoms: C_4  and  C_5
REMARK    5  A    between atoms: C_5  and  O_6
REMARK    6  A    between atoms: C_5  and  C_17
REMARK    7  A    between atoms: O_6  and  C_7
REMARK    8  A    between atoms: C_10  and  C_13
REMARK                            x       y       z     vdW  Elec       q    Type
REMARK                         _______ _______ _______ _____ _____    ______ ____
ROOT
ATOM      1  C   UNL     1      -6.214  -1.929 125.915  0.00  0.00    +0.000 C 
ENDROOT
BRANCH   1   2
ATOM      2  C   UNL     1      -7.303  -2.368 124.891  0.00  0.00    +0.000 A 
ATOM      3  C   UNL     1      -7.301  -1.841 123.588  0.00  0.00    +0.000 A 
ATOM      4  C   UNL     1      -8.334  -2.134 122.684  0.00  0.00    +0.000 A 
ATOM      5  C   UNL     1      -9.368  -2.996 123.043  0.00  0.00    +0.000 A 
ATOM      6  C   UNL     1      -9.382  -3.552 124.310  0.00  0.00    +0.000 A 
ATOM      7  C   UNL     1      -8.368  -3.239 125.217  0.00  0.00    +0.000 A 
ENDBRANCH   1   2
BRANCH   1   8
ATOM      8  C   UNL     1      -5.364  -0.773 125.315  0.00  0.00    +0.000 C 
BRANCH   8   9
ATOM      9  C   UNL     1      -5.560   0.616 125.919  0.00  0.00    +0.000 C 
BRANCH   9  11
ATOM     10  C   UNL     1      -5.517   1.435 128.183  0.00  0.00    +0.000 C 
ATOM     11  N   UNL     1      -4.786   0.703 127.161  0.00  0.00    +0.000 NA
ATOM     12  H   UNL     1      -4.548  -0.231 127.490  0.00  0.00    +0.000 HD
ENDBRANCH   9  11
ENDBRANCH   8   9
ENDBRANCH   1   8
BRANCH   1  13
ATOM     13  O   UNL     1      -6.912  -1.661 127.180  0.00  0.00    +0.000 OA
BRANCH  13  14
ATOM     14  C   UNL     1      -6.564  -2.336 128.316  0.00  0.00    +0.000 A 
ATOM     15  C   UNL     1      -7.530  -2.739 129.249  0.00  0.00    +0.000 A 
ATOM     16  C   UNL     1      -7.142  -3.462 130.398  0.00  0.00    +0.000 A 
ATOM     17  C   UNL     1      -5.842  -3.941 130.536  0.00  0.00    +0.000 A 
ATOM     18  C   UNL     1      -4.889  -3.439 129.654  0.00  0.00    +0.000 A 
ATOM     19  C   UNL     1      -5.246  -2.506 128.680  0.00  0.00    +0.000 A 
BRANCH  17  20
ATOM     20  C   UNL     1      -5.399  -4.882 131.626  0.00  0.00    +0.000 C 
ATOM     21  F   UNL     1      -6.134  -4.735 132.760  0.00  0.00    +0.000 F 
ATOM     22  F   UNL     1      -5.493  -6.194 131.274  0.00  0.00    +0.000 F 
ATOM     23  F   UNL     1      -4.098  -4.702 132.003  0.00  0.00    +0.000 F 
ENDBRANCH  17  20
ENDBRANCH  13  14
ENDBRANCH   1  13
TORSDOF 7
ENDMDL
MODEL 9
REMARK VINA RESULT:      -6.3      9.284     10.726
REMARK  Name = Fluoxetine
REMARK  8 active torsions:
REMARK  status: ('A' for Active; 'I' for Inactive)
REMARK    1  A    between atoms: C_1  and  N_2
REMARK    2  A    between atoms: N_2  and  C_3
REMARK    3  A    between atoms: C_3  and  C_4
REMARK    4  A    between atoms: C_4  and  C_5
REMARK    5  A    between atoms: C_5  and  O_6
REMARK    6  A    between atoms: C_5  and  C_17
REMARK    7  A    between atoms: O_6  and  C_7
REMARK    8  A    between atoms: C_10  and  C_13
REMARK                            x       y       z     vdW  Elec       q    Type
REMARK                         _______ _______ _______ _____ _____    ______ ____
ROOT
ATOM      1  C   UNL     1      -9.285   6.589 131.180  0.00  0.00    +0.000 C 
ENDROOT
BRANCH   1   2
ATOM      2  C   UNL     1     -10.371   7.241 130.273  0.00  0.00    +0.000 A 
ATOM      3  C   UNL     1     -11.733   7.110 130.596  0.00  0.00    +0.000 A 
ATOM      4  C   UNL     1     -12.733   7.591 129.737  0.00  0.00    +0.000 A 
ATOM      5  C   UNL     1     -12.398   8.256 128.560  0.00  0.00    +0.000 A 
ATOM      6  C   UNL     1     -11.065   8.425 128.229  0.00  0.00    +0.000 A 
ATOM      7  C   UNL     1     -10.072   7.922 129.072  0.00  0.00    +0.000 A 
ENDBRANCH   1   2
BRANCH   1   8
ATOM      8  C   UNL     1      -9.965   5.869 132.379  0.00  0.00    +0.000 C 
BRANCH   8   9
ATOM      9  C   UNL     1      -9.606   4.401 132.599  0.00  0.00    +0.000 C 
BRANCH   9  11
ATOM     10  C   UNL     1      -8.267   4.294 134.597  0.00  0.00    +0.000 C 
ATOM     11  N   UNL     1      -9.599   4.128 134.040  0.00  0.00    +0.000 NA
ATOM     12  H   UNL     1     -10.264   4.735 134.512  0.00  0.00    +0.000 HD
ENDBRANCH   9  11
ENDBRANCH   8   9
ENDBRANCH   1   8
BRANCH   1  13
ATOM     13  O   UNL     1      -8.440   5.771 130.299  0.00  0.00    +0.000 OA
BRANCH  13  14
ATOM     14  C   UNL     1      -7.079   5.794 130.434  0.00  0.00    +0.000 A 
ATOM     15  C   UNL     1      -6.278   4.779 129.892  0.00  0.00    +0.000 A 
ATOM     16  C   UNL     1      -4.873   4.847 130.022  0.00  0.00    +0.000 A 
ATOM     17  C   UNL     1      -4.255   5.991 130.518  0.00  0.00    +0.000 A 
ATOM     18  C   UNL     1      -5.074   6.930 131.140  0.00  0.00    +0.000 A 
ATOM     19  C   UNL     1      -6.449   6.714 131.241  0.00  0.00    +0.000 A 
BRANCH  17  20
ATOM     20  C   UNL     1      -2.766   6.222 130.506  0.00  0.00    +0.000 C 
ATOM     21  F   UNL     1      -2.088   5.226 131.135  0.00  0.00    +0.000 F 
ATOM     22  F   UNL     1      -2.247   6.306 129.249  0.00  0.00    +0.000 F 
ATOM     23  F   UNL     1      -2.390   7.377 131.130  0.00  0.00    +0.000 F 
ENDBRANCH  17  20
ENDBRANCH  13  14
ENDBRANCH   1  13
TORSDOF 7
ENDMDL
