MODEL 1
REMARK VINA RESULT:      -8.2      0.000      0.000
REMARK  Name = Fluoxymesterone
REMARK  5 active torsions:
REMARK  status: ('A' for Active; 'I' for Inactive)
REMARK    1  A    between atoms: C_5  and  C_6
REMARK    2  A    between atoms: C_5  and  O_7
REMARK    3  A    between atoms: C_8  and  C_9
REMARK    4  A    between atoms: C_11  and  O_12
REMARK    5  A    between atoms: C_25  and  C_26
REMARK                            x       y       z     vdW  Elec       q    Type
REMARK                         _______ _______ _______ _____ _____    ______ ____
ROOT
ATOM      1  C   UNL     1      -7.204  -2.840 129.906  0.00  0.00    +0.000 C 
ATOM      2  C   UNL     1      -6.277  -3.886 129.589  0.00  0.00    +0.000 C 
ATOM      3  C   UNL     1      -5.755  -2.530 129.285  0.00  0.00    +0.000 C 
ATOM      4  C   UNL     1      -6.886  -1.004 130.058  0.00  0.00    +0.000 C 
ATOM      5  C   UNL     1      -8.183  -1.024 131.118  0.00  0.00    +0.000 C 
ATOM      6  C   UNL     1      -5.860  -1.685 130.598  0.00  0.00    +0.000 C 
ATOM      7  C   UNL     1      -5.450  -1.946 131.993  0.00  0.00    +0.000 C 
ATOM      8  C   UNL     1      -4.805  -0.655 129.407  0.00  0.00    +0.000 C 
ATOM      9  C   UNL     1      -5.749  -0.388 127.890  0.00  0.00    +0.000 C 
ATOM     10  C   UNL     1      -6.974  -1.511 127.284  0.00  0.00    +0.000 C 
ATOM     11  F   UNL     1      -6.445  -2.832 127.341  0.00  0.00    +0.000 F 
ATOM     12  C   UNL     1      -8.039  -2.126 128.388  0.00  0.00    +0.000 C 
ATOM     13  C   UNL     1      -8.701  -3.353 127.745  0.00  0.00    +0.000 C 
ATOM     14  C   UNL     1      -9.139  -3.027 126.348  0.00  0.00    +0.000 C 
ATOM     15  C   UNL     1      -7.908  -2.906 125.493  0.00  0.00    +0.000 C 
ATOM     16  C   UNL     1      -7.697  -3.632 124.382  0.00  0.00    +0.000 C 
ATOM     17  C   UNL     1      -8.787  -3.068 123.619  0.00  0.00    +0.000 C 
ATOM     18  O   UNL     1      -9.933  -3.564 123.588  0.00  0.00    +0.000 OA
ATOM     19  C   UNL     1      -8.286  -1.794 123.036  0.00  0.00    +0.000 C 
ATOM     20  C   UNL     1      -7.466  -0.894 124.354  0.00  0.00    +0.000 C 
ATOM     21  C   UNL     1      -6.950  -1.760 125.677  0.00  0.00    +0.000 C 
ATOM     22  C   UNL     1      -5.461  -2.489 125.519  0.00  0.00    +0.000 C 
ENDROOT
BRANCH   4  23
ATOM     23  O   UNL     1      -6.472   0.369 130.395  0.00  0.00    +0.000 OA
ATOM     24  H   UNL     1      -5.781   0.443 131.073  0.00  0.00    +0.000 HD
ENDBRANCH   4  23
BRANCH   9  25
ATOM     25  O   UNL     1      -6.377   0.907 127.954  0.00  0.00    +0.000 OA
ATOM     26  H   UNL     1      -5.670   1.558 127.771  0.00  0.00    +0.000 HD
ENDBRANCH   9  25
TORSDOF 2
ENDMDL
MODEL 2
REMARK VINA RESULT:      -8.2      1.964      5.732
REMARK  Name = Fluoxymesterone
REMARK  5 active torsions:
REMARK  status: ('A' for Active; 'I' for Inactive)
REMARK    1  A    between atoms: C_5  and  C_6
REMARK    2  A    between atoms: C_5  and  O_7
REMARK    3  A    between atoms: C_8  and  C_9
REMARK    4  A    between atoms: C_11  and  O_12
REMARK    5  A    between atoms: C_25  and  C_26
REMARK                            x       y       z     vdW  Elec       q    Type
REMARK                         _______ _______ _______ _____ _____    ______ ____
ROOT
ATOM      1  C   UNL     1      -9.172  -1.748 125.583  0.00  0.00    +0.000 C 
ATOM      2  C   UNL     1      -9.315  -0.460 126.195  0.00  0.00    +0.000 C 
ATOM      3  C   UNL     1      -8.040  -0.615 125.453  0.00  0.00    +0.000 C 
ATOM      4  C   UNL     1      -7.957  -2.286 124.267  0.00  0.00    +0.000 C 
ATOM      5  C   UNL     1      -9.139  -3.399 123.852  0.00  0.00    +0.000 C 
ATOM      6  C   UNL     1      -8.399  -1.047 123.992  0.00  0.00    +0.000 C 
ATOM      7  C   UNL     1      -9.354  -0.517 122.997  0.00  0.00    +0.000 C 
ATOM      8  C   UNL     1      -6.556  -0.609 123.959  0.00  0.00    +0.000 C 
ATOM      9  C   UNL     1      -5.704  -1.621 125.190  0.00  0.00    +0.000 C 
ATOM     10  C   UNL     1      -6.471  -2.228 126.664  0.00  0.00    +0.000 C 
ATOM     11  F   UNL     1      -7.185  -1.158 127.275  0.00  0.00    +0.000 F 
ATOM     12  C   UNL     1      -7.989  -2.864 126.513  0.00  0.00    +0.000 C 
ATOM     13  C   UNL     1      -8.598  -2.922 127.921  0.00  0.00    +0.000 C 
ATOM     14  C   UNL     1      -7.609  -3.506 128.885  0.00  0.00    +0.000 C 
ATOM     15  C   UNL     1      -6.522  -2.491 129.105  0.00  0.00    +0.000 C 
ATOM     16  C   UNL     1      -6.181  -2.011 130.313  0.00  0.00    +0.000 C 
ATOM     17  C   UNL     1      -5.691  -3.263 130.843  0.00  0.00    +0.000 C 
ATOM     18  O   UNL     1      -6.401  -4.063 131.487  0.00  0.00    +0.000 OA
ATOM     19  C   UNL     1      -4.289  -3.410 130.364  0.00  0.00    +0.000 C 
ATOM     20  C   UNL     1      -4.287  -3.041 128.608  0.00  0.00    +0.000 C 
ATOM     21  C   UNL     1      -5.553  -2.147 128.005  0.00  0.00    +0.000 C 
ATOM     22  C   UNL     1      -5.396  -0.495 128.149  0.00  0.00    +0.000 C 
ENDROOT
BRANCH   4  23
ATOM     23  O   UNL     1      -7.136  -2.525 123.067  0.00  0.00    +0.000 OA
ATOM     24  H   UNL     1      -7.557  -2.303 122.222  0.00  0.00    +0.000 HD
ENDBRANCH   4  23
BRANCH   9  25
ATOM     25  O   UNL     1      -5.122  -2.763 124.532  0.00  0.00    +0.000 OA
ATOM     26  H   UNL     1      -4.178  -2.543 124.397  0.00  0.00    +0.000 HD
ENDBRANCH   9  25
TORSDOF 2
ENDMDL
MODEL 3
REMARK VINA RESULT:      -8.0      3.371      5.150
REMARK  Name = Fluoxymesterone
REMARK  5 active torsions:
REMARK  status: ('A' for Active; 'I' for Inactive)
REMARK    1  A    between atoms: C_5  and  C_6
REMARK    2  A    between atoms: C_5  and  O_7
REMARK    3  A    between atoms: C_8  and  C_9
REMARK    4  A    between atoms: C_11  and  O_12
REMARK    5  A    between atoms: C_25  and  C_26
REMARK                            x       y       z     vdW  Elec       q    Type
REMARK                         _______ _______ _______ _____ _____    ______ ____
ROOT
ATOM      1  C   UNL     1      -6.297   2.410 126.477  0.00  0.00    +0.000 C 
ATOM      2  C   UNL     1      -5.010   1.892 126.117  0.00  0.00    +0.000 C 
ATOM      3  C   UNL     1      -5.811   2.331 124.948  0.00  0.00    +0.000 C 
ATOM      4  C   UNL     1      -7.487   3.407 125.437  0.00  0.00    +0.000 C 
ATOM      5  C   UNL     1      -8.006   4.029 126.903  0.00  0.00    +0.000 C 
ATOM      6  C   UNL     1      -6.229   3.818 125.200  0.00  0.00    +0.000 C 
ATOM      7  C   UNL     1      -5.469   5.016 125.609  0.00  0.00    +0.000 C 
ATOM      8  C   UNL     1      -6.662   3.463 123.390  0.00  0.00    +0.000 C 
ATOM      9  C   UNL     1      -7.773   2.039 123.335  0.00  0.00    +0.000 C 
ATOM     10  C   UNL     1      -7.775   0.747 124.542  0.00  0.00    +0.000 C 
ATOM     11  F   UNL     1      -6.429   0.347 124.779  0.00  0.00    +0.000 F 
ATOM     12  C   UNL     1      -7.687   1.203 126.129  0.00  0.00    +0.000 C 
ATOM     13  C   UNL     1      -7.281  -0.039 126.936  0.00  0.00    +0.000 C 
ATOM     14  C   UNL     1      -8.108  -1.217 126.516  0.00  0.00    +0.000 C 
ATOM     15  C   UNL     1      -7.661  -1.632 125.142  0.00  0.00    +0.000 C 
ATOM     16  C   UNL     1      -7.226  -2.866 124.839  0.00  0.00    +0.000 C 
ATOM     17  C   UNL     1      -8.482  -3.537 125.084  0.00  0.00    +0.000 C 
ATOM     18  O   UNL     1      -8.791  -4.039 126.185  0.00  0.00    +0.000 OA
ATOM     19  C   UNL     1      -9.297  -3.382 123.848  0.00  0.00    +0.000 C 
ATOM     20  C   UNL     1      -9.204  -1.656 123.364  0.00  0.00    +0.000 C 
ATOM     21  C   UNL     1      -7.931  -0.759 123.946  0.00  0.00    +0.000 C 
ATOM     22  C   UNL     1      -6.517  -0.872 123.072  0.00  0.00    +0.000 C 
ENDROOT
BRANCH   4  23
ATOM     23  O   UNL     1      -8.222   4.388 124.620  0.00  0.00    +0.000 OA
ATOM     24  H   UNL     1      -8.816   4.979 125.109  0.00  0.00    +0.000 HD
ENDBRANCH   4  23
BRANCH   9  25
ATOM     25  O   UNL     1      -9.130   2.511 123.238  0.00  0.00    +0.000 OA
ATOM     26  H   UNL     1      -9.390   2.771 124.145  0.00  0.00    +0.000 HD
ENDBRANCH   9  25
TORSDOF 2
ENDMDL
MODEL 4
REMARK VINA RESULT:      -7.9      3.258      5.612
REMARK  Name = Fluoxymesterone
REMARK  5 active torsions:
REMARK  status: ('A' for Active; 'I' for Inactive)
REMARK    1  A    between atoms: C_5  and  C_6
REMARK    2  A    between atoms: C_5  and  O_7
REMARK    3  A    between atoms: C_8  and  C_9
REMARK    4  A    between atoms: C_11  and  O_12
REMARK    5  A    between atoms: C_25  and  C_26
REMARK                            x       y       z     vdW  Elec       q    Type
REMARK                         _______ _______ _______ _____ _____    ______ ____
ROOT
ATOM      1  C   UNL     1      -6.309   2.862 126.165  0.00  0.00    +0.000 C 
ATOM      2  C   UNL     1      -5.016   2.266 126.004  0.00  0.00    +0.000 C 
ATOM      3  C   UNL     1      -5.922   2.012 124.857  0.00  0.00    +0.000 C 
ATOM      4  C   UNL     1      -7.634   3.141 124.877  0.00  0.00    +0.000 C 
ATOM      5  C   UNL     1      -8.097   4.421 125.854  0.00  0.00    +0.000 C 
ATOM      6  C   UNL     1      -6.427   3.402 124.345  0.00  0.00    +0.000 C 
ATOM      7  C   UNL     1      -5.728   4.658 124.005  0.00  0.00    +0.000 C 
ATOM      8  C   UNL     1      -6.953   2.147 123.027  0.00  0.00    +0.000 C 
ATOM      9  C   UNL     1      -7.961   0.873 123.818  0.00  0.00    +0.000 C 
ATOM     10  C   UNL     1      -7.791   0.397 125.513  0.00  0.00    +0.000 C 
ATOM     11  F   UNL     1      -6.407   0.214 125.794  0.00  0.00    +0.000 F 
ATOM     12  C   UNL     1      -7.630   1.613 126.621  0.00  0.00    +0.000 C 
ATOM     13  C   UNL     1      -7.084   0.982 127.910  0.00  0.00    +0.000 C 
ATOM     14  C   UNL     1      -7.852  -0.264 128.237  0.00  0.00    +0.000 C 
ATOM     15  C   UNL     1      -7.468  -1.320 127.238  0.00  0.00    +0.000 C 
ATOM     16  C   UNL     1      -6.967  -2.520 127.576  0.00  0.00    +0.000 C 
ATOM     17  C   UNL     1      -8.154  -2.999 128.248  0.00  0.00    +0.000 C 
ATOM     18  O   UNL     1      -8.352  -2.863 129.474  0.00  0.00    +0.000 OA
ATOM     19  C   UNL     1      -9.058  -3.530 127.192  0.00  0.00    +0.000 C 
ATOM     20  C   UNL     1      -9.121  -2.305 125.882  0.00  0.00    +0.000 C 
ATOM     21  C   UNL     1      -7.879  -1.203 125.795  0.00  0.00    +0.000 C 
ATOM     22  C   UNL     1      -6.522  -1.716 124.977  0.00  0.00    +0.000 C 
ENDROOT
BRANCH   4  23
ATOM     23  O   UNL     1      -8.490   3.535 123.744  0.00  0.00    +0.000 OA
ATOM     24  H   UNL     1      -9.445   3.438 123.887  0.00  0.00    +0.000 HD
ENDBRANCH   4  23
BRANCH   9  25
ATOM     25  O   UNL     1      -9.352   1.191 123.620  0.00  0.00    +0.000 OA
ATOM     26  H   UNL     1      -9.589   0.828 122.743  0.00  0.00    +0.000 HD
ENDBRANCH   9  25
TORSDOF 2
ENDMDL
MODEL 5
REMARK VINA RESULT:      -7.7      1.823      5.745
REMARK  Name = Fluoxymesterone
REMARK  5 active torsions:
REMARK  status: ('A' for Active; 'I' for Inactive)
REMARK    1  A    between atoms: C_5  and  C_6
REMARK    2  A    between atoms: C_5  and  O_7
REMARK    3  A    between atoms: C_8  and  C_9
REMARK    4  A    between atoms: C_11  and  O_12
REMARK    5  A    between atoms: C_25  and  C_26
REMARK                            x       y       z     vdW  Elec       q    Type
REMARK                         _______ _______ _______ _____ _____    ______ ____
ROOT
ATOM      1  C   UNL     1      -8.359  -2.786 125.519  0.00  0.00    +0.000 C 
ATOM      2  C   UNL     1      -9.600  -2.088 125.680  0.00  0.00    +0.000 C 
ATOM      3  C   UNL     1      -8.457  -1.188 125.386  0.00  0.00    +0.000 C 
ATOM      4  C   UNL     1      -6.754  -2.164 124.790  0.00  0.00    +0.000 C 
ATOM      5  C   UNL     1      -6.487  -3.772 124.402  0.00  0.00    +0.000 C 
ATOM      6  C   UNL     1      -7.788  -1.699 124.067  0.00  0.00    +0.000 C 
ATOM      7  C   UNL     1      -8.333  -2.063 122.743  0.00  0.00    +0.000 C 
ATOM      8  C   UNL     1      -7.014  -0.005 124.412  0.00  0.00    +0.000 C 
ATOM      9  C   UNL     1      -6.276  -0.037 126.061  0.00  0.00    +0.000 C 
ATOM     10  C   UNL     1      -6.866  -1.056 127.381  0.00  0.00    +0.000 C 
ATOM     11  F   UNL     1      -8.283  -0.934 127.448  0.00  0.00    +0.000 F 
ATOM     12  C   UNL     1      -7.237  -2.623 127.011  0.00  0.00    +0.000 C 
ATOM     13  C   UNL     1      -8.100  -3.168 128.158  0.00  0.00    +0.000 C 
ATOM     14  C   UNL     1      -7.484  -2.811 129.478  0.00  0.00    +0.000 C 
ATOM     15  C   UNL     1      -7.661  -1.333 129.688  0.00  0.00    +0.000 C 
ATOM     16  C   UNL     1      -8.276  -0.799 130.757  0.00  0.00    +0.000 C 
ATOM     17  C   UNL     1      -7.305  -1.242 131.731  0.00  0.00    +0.000 C 
ATOM     18  O   UNL     1      -7.400  -2.318 132.357  0.00  0.00    +0.000 OA
ATOM     19  C   UNL     1      -6.197  -0.248 131.711  0.00  0.00    +0.000 C 
ATOM     20  C   UNL     1      -5.774   0.040 129.992  0.00  0.00    +0.000 C 
ATOM     21  C   UNL     1      -6.913  -0.339 128.841  0.00  0.00    +0.000 C 
ATOM     22  C   UNL     1      -8.055   0.838 128.550  0.00  0.00    +0.000 C 
ENDROOT
BRANCH   4  23
ATOM     23  O   UNL     1      -5.637  -1.654 123.976  0.00  0.00    +0.000 OA
ATOM     24  H   UNL     1      -5.347  -2.233 123.253  0.00  0.00    +0.000 HD
ENDBRANCH   4  23
BRANCH   9  25
ATOM     25  O   UNL     1      -4.866  -0.304 125.936  0.00  0.00    +0.000 OA
ATOM     26  H   UNL     1      -4.557   0.231 125.178  0.00  0.00    +0.000 HD
ENDBRANCH   9  25
TORSDOF 2
ENDMDL
MODEL 6
REMARK VINA RESULT:      -7.7      1.585      2.240
REMARK  Name = Fluoxymesterone
REMARK  5 active torsions:
REMARK  status: ('A' for Active; 'I' for Inactive)
REMARK    1  A    between atoms: C_5  and  C_6
REMARK    2  A    between atoms: C_5  and  O_7
REMARK    3  A    between atoms: C_8  and  C_9
REMARK    4  A    between atoms: C_11  and  O_12
REMARK    5  A    between atoms: C_25  and  C_26
REMARK                            x       y       z     vdW  Elec       q    Type
REMARK                         _______ _______ _______ _____ _____    ______ ____
ROOT
ATOM      1  C   UNL     1      -5.797  -3.744 131.069  0.00  0.00    +0.000 C 
ATOM      2  C   UNL     1      -4.801  -4.247 130.170  0.00  0.00    +0.000 C 
ATOM      3  C   UNL     1      -4.690  -2.786 130.407  0.00  0.00    +0.000 C 
ATOM      4  C   UNL     1      -5.849  -2.098 131.953  0.00  0.00    +0.000 C 
ATOM      5  C   UNL     1      -6.748  -2.920 133.103  0.00  0.00    +0.000 C 
ATOM      6  C   UNL     1      -4.590  -2.571 131.953  0.00  0.00    +0.000 C 
ATOM      7  C   UNL     1      -3.748  -3.189 132.998  0.00  0.00    +0.000 C 
ATOM      8  C   UNL     1      -4.169  -0.896 131.174  0.00  0.00    +0.000 C 
ATOM      9  C   UNL     1      -5.545  -0.394 130.116  0.00  0.00    +0.000 C 
ATOM     10  C   UNL     1      -6.624  -1.534 129.301  0.00  0.00    +0.000 C 
ATOM     11  F   UNL     1      -5.831  -2.541 128.679  0.00  0.00    +0.000 F 
ATOM     12  C   UNL     1      -7.167  -2.818 130.188  0.00  0.00    +0.000 C 
ATOM     13  C   UNL     1      -7.709  -3.858 129.195  0.00  0.00    +0.000 C 
ATOM     14  C   UNL     1      -8.591  -3.190 128.183  0.00  0.00    +0.000 C 
ATOM     15  C   UNL     1      -7.715  -2.378 127.269  0.00  0.00    +0.000 C 
ATOM     16  C   UNL     1      -7.684  -2.531 125.935  0.00  0.00    +0.000 C 
ATOM     17  C   UNL     1      -9.042  -2.098 125.698  0.00  0.00    +0.000 C 
ATOM     18  O   UNL     1     -10.015  -2.879 125.650  0.00  0.00    +0.000 OA
ATOM     19  C   UNL     1      -9.015  -0.610 125.657  0.00  0.00    +0.000 C 
ATOM     20  C   UNL     1      -8.061  -0.058 127.073  0.00  0.00    +0.000 C 
ATOM     21  C   UNL     1      -7.013  -1.145 127.769  0.00  0.00    +0.000 C 
ATOM     22  C   UNL     1      -5.512  -1.253 127.053  0.00  0.00    +0.000 C 
ENDROOT
BRANCH   4  23
ATOM     23  O   UNL     1      -5.658  -0.895 132.783  0.00  0.00    +0.000 OA
ATOM     24  H   UNL     1      -5.014  -0.252 132.445  0.00  0.00    +0.000 HD
ENDBRANCH   4  23
BRANCH   9  25
ATOM     25  O   UNL     1      -6.389   0.514 130.850  0.00  0.00    +0.000 OA
ATOM     26  H   UNL     1      -5.794   1.204 131.208  0.00  0.00    +0.000 HD
ENDBRANCH   9  25
TORSDOF 2
ENDMDL
MODEL 7
REMARK VINA RESULT:      -7.5      3.624      4.816
REMARK  Name = Fluoxymesterone
REMARK  5 active torsions:
REMARK  status: ('A' for Active; 'I' for Inactive)
REMARK    1  A    between atoms: C_5  and  C_6
REMARK    2  A    between atoms: C_5  and  O_7
REMARK    3  A    between atoms: C_8  and  C_9
REMARK    4  A    between atoms: C_11  and  O_12
REMARK    5  A    between atoms: C_25  and  C_26
REMARK                            x       y       z     vdW  Elec       q    Type
REMARK                         _______ _______ _______ _____ _____    ______ ____
ROOT
ATOM      1  C   UNL     1      -6.063   2.086 127.537  0.00  0.00    +0.000 C 
ATOM      2  C   UNL     1      -4.893   1.784 126.766  0.00  0.00    +0.000 C 
ATOM      3  C   UNL     1      -5.663   2.934 126.232  0.00  0.00    +0.000 C 
ATOM      4  C   UNL     1      -7.123   3.625 127.497  0.00  0.00    +0.000 C 
ATOM      5  C   UNL     1      -7.470   3.240 129.090  0.00  0.00    +0.000 C 
ATOM      6  C   UNL     1      -5.826   3.967 127.395  0.00  0.00    +0.000 C 
ATOM      7  C   UNL     1      -4.866   4.565 128.346  0.00  0.00    +0.000 C 
ATOM      8  C   UNL     1      -6.389   4.867 125.826  0.00  0.00    +0.000 C 
ATOM      9  C   UNL     1      -7.716   3.909 125.060  0.00  0.00    +0.000 C 
ATOM     10  C   UNL     1      -7.872   2.154 125.210  0.00  0.00    +0.000 C 
ATOM     11  F   UNL     1      -6.598   1.564 124.968  0.00  0.00    +0.000 F 
ATOM     12  C   UNL     1      -7.642   1.506 126.713  0.00  0.00    +0.000 C 
ATOM     13  C   UNL     1      -7.406  -0.000 126.526  0.00  0.00    +0.000 C 
ATOM     14  C   UNL     1      -8.429  -0.568 125.589  0.00  0.00    +0.000 C 
ATOM     15  C   UNL     1      -8.115  -0.074 124.204  0.00  0.00    +0.000 C 
ATOM     16  C   UNL     1      -7.897  -0.883 123.154  0.00  0.00    +0.000 C 
ATOM     17  C   UNL     1      -9.233  -1.432 123.103  0.00  0.00    +0.000 C 
ATOM     18  O   UNL     1      -9.570  -2.479 123.695  0.00  0.00    +0.000 OA
ATOM     19  C   UNL     1     -10.066  -0.459 122.344  0.00  0.00    +0.000 C 
ATOM     20  C   UNL     1      -9.718   1.170 123.012  0.00  0.00    +0.000 C 
ATOM     21  C   UNL     1      -8.294   1.377 123.844  0.00  0.00    +0.000 C 
ATOM     22  C   UNL     1      -6.956   1.696 122.904  0.00  0.00    +0.000 C 
ENDROOT
BRANCH   4  23
ATOM     23  O   UNL     1      -7.726   4.968 127.560  0.00  0.00    +0.000 OA
ATOM     24  H   UNL     1      -8.302   5.203 126.816  0.00  0.00    +0.000 HD
ENDBRANCH   4  23
BRANCH   9  25
ATOM     25  O   UNL     1      -8.983   4.468 125.456  0.00  0.00    +0.000 OA
ATOM     26  H   UNL     1      -9.469   3.745 125.901  0.00  0.00    +0.000 HD
ENDBRANCH   9  25
TORSDOF 2
ENDMDL
MODEL 8
REMARK VINA RESULT:      -7.5      2.846      6.773
REMARK  Name = Fluoxymesterone
REMARK  5 active torsions:
REMARK  status: ('A' for Active; 'I' for Inactive)
REMARK    1  A    between atoms: C_5  and  C_6
REMARK    2  A    between atoms: C_5  and  O_7
REMARK    3  A    between atoms: C_8  and  C_9
REMARK    4  A    between atoms: C_11  and  O_12
REMARK    5  A    between atoms: C_25  and  C_26
REMARK                            x       y       z     vdW  Elec       q    Type
REMARK                         _______ _______ _______ _____ _____    ______ ____
ROOT
ATOM      1  C   UNL     1      -6.942  -3.136 128.889  0.00  0.00    +0.000 C 
ATOM      2  C   UNL     1      -8.258  -3.580 129.245  0.00  0.00    +0.000 C 
ATOM      3  C   UNL     1      -7.926  -2.241 129.791  0.00  0.00    +0.000 C 
ATOM      4  C   UNL     1      -6.218  -1.417 129.008  0.00  0.00    +0.000 C 
ATOM      5  C   UNL     1      -5.243  -1.908 127.737  0.00  0.00    +0.000 C 
ATOM      6  C   UNL     1      -7.492  -1.341 128.586  0.00  0.00    +0.000 C 
ATOM      7  C   UNL     1      -8.101  -1.072 127.267  0.00  0.00    +0.000 C 
ATOM      8  C   UNL     1      -7.703  -0.165 130.057  0.00  0.00    +0.000 C 
ATOM      9  C   UNL     1      -6.636  -0.730 131.401  0.00  0.00    +0.000 C 
ATOM     10  C   UNL     1      -6.175  -2.421 131.644  0.00  0.00    +0.000 C 
ATOM     11  F   UNL     1      -7.343  -3.228 131.532  0.00  0.00    +0.000 F 
ATOM     12  C   UNL     1      -5.723  -3.275 130.304  0.00  0.00    +0.000 C 
ATOM     13  C   UNL     1      -5.785  -4.765 130.673  0.00  0.00    +0.000 C 
ATOM     14  C   UNL     1      -5.118  -4.993 131.997  0.00  0.00    +0.000 C 
ATOM     15  C   UNL     1      -6.001  -4.415 133.067  0.00  0.00    +0.000 C 
ATOM     16  C   UNL     1      -6.475  -5.121 134.107  0.00  0.00    +0.000 C 
ATOM     17  C   UNL     1      -5.191  -5.371 134.721  0.00  0.00    +0.000 C 
ATOM     18  O   UNL     1      -4.504  -6.389 134.490  0.00  0.00    +0.000 OA
ATOM     19  C   UNL     1      -4.860  -4.165 135.527  0.00  0.00    +0.000 C 
ATOM     20  C   UNL     1      -5.169  -2.734 134.490  0.00  0.00    +0.000 C 
ATOM     21  C   UNL     1      -6.189  -2.926 133.191  0.00  0.00    +0.000 C 
ATOM     22  C   UNL     1      -7.813  -2.781 133.528  0.00  0.00    +0.000 C 
ENDROOT
BRANCH   4  23
ATOM     23  O   UNL     1      -5.842   0.004 128.910  0.00  0.00    +0.000 OA
ATOM     24  H   UNL     1      -6.320   0.518 128.239  0.00  0.00    +0.000 HD
ENDBRANCH   4  23
BRANCH   9  25
ATOM     25  O   UNL     1      -5.411   0.028 131.374  0.00  0.00    +0.000 OA
ATOM     26  H   UNL     1      -5.468   0.657 132.120  0.00  0.00    +0.000 HD
ENDBRANCH   9  25
TORSDOF 2
ENDMDL
MODEL 9
REMARK VINA RESULT:      -7.4      7.833      9.180
REMARK  Name = Fluoxymesterone
REMARK  5 active torsions:
REMARK  status: ('A' for Active; 'I' for Inactive)
REMARK    1  A    between atoms: C_5  and  C_6
REMARK    2  A    between atoms: C_5  and  O_7
REMARK    3  A    between atoms: C_8  and  C_9
REMARK    4  A    between atoms: C_11  and  O_12
REMARK    5  A    between atoms: C_25  and  C_26
REMARK                            x       y       z     vdW  Elec       q    Type
REMARK                         _______ _______ _______ _____ _____    ______ ____
ROOT
ATOM      1  C   UNL     1      -6.669   4.359 133.386  0.00  0.00    +0.000 C 
ATOM      2  C   UNL     1      -7.038   3.119 132.769  0.00  0.00    +0.000 C 
ATOM      3  C   UNL     1      -6.324   4.039 131.849  0.00  0.00    +0.000 C 
ATOM      4  C   UNL     1      -5.462   5.651 132.779  0.00  0.00    +0.000 C 
ATOM      5  C   UNL     1      -5.267   6.009 134.404  0.00  0.00    +0.000 C 
ATOM      6  C   UNL     1      -4.970   4.424 132.533  0.00  0.00    +0.000 C 
ATOM      7  C   UNL     1      -3.905   3.622 133.167  0.00  0.00    +0.000 C 
ATOM      8  C   UNL     1      -4.841   5.048 130.748  0.00  0.00    +0.000 C 
ATOM      9  C   UNL     1      -6.227   6.163 130.429  0.00  0.00    +0.000 C 
ATOM     10  C   UNL     1      -7.794   6.039 131.240  0.00  0.00    +0.000 C 
ATOM     11  F   UNL     1      -8.207   4.676 131.220  0.00  0.00    +0.000 F 
ATOM     12  C   UNL     1      -7.775   5.781 132.873  0.00  0.00    +0.000 C 
ATOM     13  C   UNL     1      -9.176   5.295 133.271  0.00  0.00    +0.000 C 
ATOM     14  C   UNL     1     -10.221   6.166 132.639  0.00  0.00    +0.000 C 
ATOM     15  C   UNL     1     -10.242   5.868 131.165  0.00  0.00    +0.000 C 
ATOM     16  C   UNL     1     -11.340   5.471 130.499  0.00  0.00    +0.000 C 
ATOM     17  C   UNL     1     -12.084   6.696 130.684  0.00  0.00    +0.000 C 
ATOM     18  O   UNL     1     -12.869   6.887 131.636  0.00  0.00    +0.000 OA
ATOM     19  C   UNL     1     -11.626   7.637 129.626  0.00  0.00    +0.000 C 
ATOM     20  C   UNL     1      -9.833   7.592 129.615  0.00  0.00    +0.000 C 
ATOM     21  C   UNL     1      -9.089   6.262 130.281  0.00  0.00    +0.000 C 
ATOM     22  C   UNL     1      -8.929   4.949 129.268  0.00  0.00    +0.000 C 
ENDROOT
BRANCH   4  23
ATOM     23  O   UNL     1      -4.318   6.467 132.336  0.00  0.00    +0.000 OA
ATOM     24  H   UNL     1      -4.214   6.555 131.375  0.00  0.00    +0.000 HD
ENDBRANCH   4  23
BRANCH   9  25
ATOM     25  O   UNL     1      -5.782   7.522 130.603  0.00  0.00    +0.000 OA
ATOM     26  H   UNL     1      -4.815   7.472 130.743  0.00  0.00    +0.000 HD
ENDBRANCH   9  25
TORSDOF 2
ENDMDL
