MODEL 1
REMARK VINA RESULT:      -7.6      0.000      0.000
REMARK  Name = Fluphenazine
REMARK  8 active torsions:
REMARK  status: ('A' for Active; 'I' for Inactive)
REMARK    1  A    between atoms: O_1  and  C_2
REMARK    2  A    between atoms: C_2  and  C_3
REMARK    3  A    between atoms: C_3  and  N_4
REMARK    4  A    between atoms: N_7  and  C_8
REMARK    5  A    between atoms: C_8  and  C_9
REMARK    6  A    between atoms: C_9  and  C_10
REMARK    7  A    between atoms: C_10  and  N_11
REMARK    8  A    between atoms: C_22  and  C_25
REMARK                            x       y       z     vdW  Elec       q    Type
REMARK                         _______ _______ _______ _____ _____    ______ ____
ROOT
ATOM      1  N   UNL     1      -6.255  -1.374 126.074  0.00  0.00    +0.000 N 
ATOM      2  C   UNL     1      -6.783  -1.621 124.789  0.00  0.00    +0.000 A 
ATOM      3  C   UNL     1      -5.946  -1.599 123.662  0.00  0.00    +0.000 A 
ATOM      4  C   UNL     1      -6.427  -1.990 122.410  0.00  0.00    +0.000 A 
ATOM      5  C   UNL     1      -7.748  -2.391 122.269  0.00  0.00    +0.000 A 
ATOM      6  C   UNL     1      -8.602  -2.405 123.371  0.00  0.00    +0.000 A 
ATOM      7  C   UNL     1      -8.119  -2.032 124.630  0.00  0.00    +0.000 A 
ATOM      8  S   UNL     1      -9.231  -2.114 126.029  0.00  0.00    +0.000 S 
ATOM      9  C   UNL     1      -8.039  -2.520 127.299  0.00  0.00    +0.000 A 
ATOM     10  C   UNL     1      -6.704  -2.081 127.207  0.00  0.00    +0.000 A 
ATOM     11  C   UNL     1      -5.807  -2.450 128.221  0.00  0.00    +0.000 A 
ATOM     12  C   UNL     1      -6.222  -3.238 129.307  0.00  0.00    +0.000 A 
ATOM     13  C   UNL     1      -7.555  -3.654 129.379  0.00  0.00    +0.000 A 
ATOM     14  C   UNL     1      -8.464  -3.293 128.385  0.00  0.00    +0.000 A 
ENDROOT
BRANCH  12  15
ATOM     15  C   UNL     1      -5.240  -3.648 130.374  0.00  0.00    +0.000 C 
ATOM     16  F   UNL     1      -5.659  -4.742 131.067  0.00  0.00    +0.000 F 
ATOM     17  F   UNL     1      -4.020  -3.970 129.862  0.00  0.00    +0.000 F 
ATOM     18  F   UNL     1      -5.008  -2.681 131.306  0.00  0.00    +0.000 F 
ENDBRANCH  12  15
BRANCH   1  19
ATOM     19  C   UNL     1      -5.314  -0.257 126.226  0.00  0.00    +0.000 C 
BRANCH  19  20
ATOM     20  C   UNL     1      -6.037   1.007 126.681  0.00  0.00    +0.000 C 
BRANCH  20  21
ATOM     21  C   UNL     1      -5.792   2.138 125.693  0.00  0.00    +0.000 C 
BRANCH  21  25
ATOM     22  N   UNL     1      -6.959   2.762 122.291  0.00  0.00    +0.000 NA
ATOM     23  C   UNL     1      -6.134   3.687 123.102  0.00  0.00    +0.000 C 
ATOM     24  C   UNL     1      -6.743   4.005 124.493  0.00  0.00    +0.000 C 
ATOM     25  N   UNL     1      -7.046   2.794 125.292  0.00  0.00    +0.000 NA
ATOM     26  C   UNL     1      -7.899   1.902 124.473  0.00  0.00    +0.000 C 
ATOM     27  C   UNL     1      -7.274   1.557 123.096  0.00  0.00    +0.000 C 
BRANCH  22  28
ATOM     28  C   UNL     1      -8.214   3.427 121.893  0.00  0.00    +0.000 C 
BRANCH  28  29
ATOM     29  C   UNL     1      -8.146   3.888 120.448  0.00  0.00    +0.000 C 
BRANCH  29  30
ATOM     30  O   UNL     1      -9.460   3.834 119.903  0.00  0.00    +0.000 OA
ATOM     31  H   UNL     1      -9.590   4.657 119.405  0.00  0.00    +0.000 HD
ENDBRANCH  29  30
ENDBRANCH  28  29
ENDBRANCH  22  28
ENDBRANCH  21  25
ENDBRANCH  20  21
ENDBRANCH  19  20
ENDBRANCH   1  19
TORSDOF 8
ENDMDL
MODEL 2
REMARK VINA RESULT:      -7.5      4.698      6.461
REMARK  Name = Fluphenazine
REMARK  8 active torsions:
REMARK  status: ('A' for Active; 'I' for Inactive)
REMARK    1  A    between atoms: O_1  and  C_2
REMARK    2  A    between atoms: C_2  and  C_3
REMARK    3  A    between atoms: C_3  and  N_4
REMARK    4  A    between atoms: N_7  and  C_8
REMARK    5  A    between atoms: C_8  and  C_9
REMARK    6  A    between atoms: C_9  and  C_10
REMARK    7  A    between atoms: C_10  and  N_11
REMARK    8  A    between atoms: C_22  and  C_25
REMARK                            x       y       z     vdW  Elec       q    Type
REMARK                         _______ _______ _______ _____ _____    ______ ____
ROOT
ATOM      1  N   UNL     1      -7.596   0.384 126.988  0.00  0.00    +0.000 N 
ATOM      2  C   UNL     1      -7.907   0.799 128.299  0.00  0.00    +0.000 A 
ATOM      3  C   UNL     1      -8.331   2.115 128.545  0.00  0.00    +0.000 A 
ATOM      4  C   UNL     1      -8.785   2.491 129.812  0.00  0.00    +0.000 A 
ATOM      5  C   UNL     1      -8.806   1.566 130.846  0.00  0.00    +0.000 A 
ATOM      6  C   UNL     1      -8.374   0.257 130.628  0.00  0.00    +0.000 A 
ATOM      7  C   UNL     1      -7.937  -0.129 129.357  0.00  0.00    +0.000 A 
ATOM      8  S   UNL     1      -7.440  -1.829 129.105  0.00  0.00    +0.000 S 
ATOM      9  C   UNL     1      -7.938  -2.006 127.396  0.00  0.00    +0.000 A 
ATOM     10  C   UNL     1      -7.927  -0.903 126.520  0.00  0.00    +0.000 A 
ATOM     11  C   UNL     1      -8.350  -1.096 125.196  0.00  0.00    +0.000 A 
ATOM     12  C   UNL     1      -8.776  -2.356 124.745  0.00  0.00    +0.000 A 
ATOM     13  C   UNL     1      -8.769  -3.436 125.634  0.00  0.00    +0.000 A 
ATOM     14  C   UNL     1      -8.347  -3.268 126.952  0.00  0.00    +0.000 A 
ENDROOT
BRANCH  12  15
ATOM     15  C   UNL     1      -9.252  -2.541 123.328  0.00  0.00    +0.000 C 
ATOM     16  F   UNL     1      -8.223  -2.741 122.461  0.00  0.00    +0.000 F 
ATOM     17  F   UNL     1     -10.074  -3.620 123.193  0.00  0.00    +0.000 F 
ATOM     18  F   UNL     1      -9.952  -1.478 122.842  0.00  0.00    +0.000 F 
ENDBRANCH  12  15
BRANCH   1  19
ATOM     19  C   UNL     1      -6.790   1.286 126.156  0.00  0.00    +0.000 C 
BRANCH  19  20
ATOM     20  C   UNL     1      -5.306   0.951 126.267  0.00  0.00    +0.000 C 
BRANCH  20  21
ATOM     21  C   UNL     1      -4.624   1.896 127.247  0.00  0.00    +0.000 C 
BRANCH  21  25
ATOM     22  N   UNL     1      -2.708   4.758 128.457  0.00  0.00    +0.000 NA
ATOM     23  C   UNL     1      -3.964   4.247 129.054  0.00  0.00    +0.000 C 
ATOM     24  C   UNL     1      -5.128   4.121 128.037  0.00  0.00    +0.000 C 
ATOM     25  N   UNL     1      -4.786   3.303 126.850  0.00  0.00    +0.000 NA
ATOM     26  C   UNL     1      -3.547   3.854 126.252  0.00  0.00    +0.000 C 
ATOM     27  C   UNL     1      -2.373   3.948 127.261  0.00  0.00    +0.000 C 
BRANCH  22  28
ATOM     28  C   UNL     1      -2.878   6.169 128.062  0.00  0.00    +0.000 C 
BRANCH  28  29
ATOM     29  C   UNL     1      -3.211   7.030 129.268  0.00  0.00    +0.000 C 
BRANCH  29  30
ATOM     30  O   UNL     1      -4.169   8.004 128.865  0.00  0.00    +0.000 OA
ATOM     31  H   UNL     1      -3.910   8.301 127.978  0.00  0.00    +0.000 HD
ENDBRANCH  29  30
ENDBRANCH  28  29
ENDBRANCH  22  28
ENDBRANCH  21  25
ENDBRANCH  20  21
ENDBRANCH  19  20
ENDBRANCH   1  19
TORSDOF 8
ENDMDL
MODEL 3
REMARK VINA RESULT:      -7.3      3.097      3.896
REMARK  Name = Fluphenazine
REMARK  8 active torsions:
REMARK  status: ('A' for Active; 'I' for Inactive)
REMARK    1  A    between atoms: O_1  and  C_2
REMARK    2  A    between atoms: C_2  and  C_3
REMARK    3  A    between atoms: C_3  and  N_4
REMARK    4  A    between atoms: N_7  and  C_8
REMARK    5  A    between atoms: C_8  and  C_9
REMARK    6  A    between atoms: C_9  and  C_10
REMARK    7  A    between atoms: C_10  and  N_11
REMARK    8  A    between atoms: C_22  and  C_25
REMARK                            x       y       z     vdW  Elec       q    Type
REMARK                         _______ _______ _______ _____ _____    ______ ____
ROOT
ATOM      1  N   UNL     1      -6.231  -1.435 126.110  0.00  0.00    +0.000 N 
ATOM      2  C   UNL     1      -6.780  -1.639 124.827  0.00  0.00    +0.000 A 
ATOM      3  C   UNL     1      -5.955  -1.613 123.691  0.00  0.00    +0.000 A 
ATOM      4  C   UNL     1      -6.461  -1.963 122.436  0.00  0.00    +0.000 A 
ATOM      5  C   UNL     1      -7.793  -2.326 122.301  0.00  0.00    +0.000 A 
ATOM      6  C   UNL     1      -8.635  -2.345 123.414  0.00  0.00    +0.000 A 
ATOM      7  C   UNL     1      -8.128  -2.013 124.675  0.00  0.00    +0.000 A 
ATOM      8  S   UNL     1      -9.226  -2.098 126.085  0.00  0.00    +0.000 S 
ATOM      9  C   UNL     1      -8.030  -2.563 127.331  0.00  0.00    +0.000 A 
ATOM     10  C   UNL     1      -6.685  -2.156 127.233  0.00  0.00    +0.000 A 
ATOM     11  C   UNL     1      -5.786  -2.571 128.227  0.00  0.00    +0.000 A 
ATOM     12  C   UNL     1      -6.209  -3.373 129.301  0.00  0.00    +0.000 A 
ATOM     13  C   UNL     1      -7.552  -3.756 129.378  0.00  0.00    +0.000 A 
ATOM     14  C   UNL     1      -8.462  -3.350 128.404  0.00  0.00    +0.000 A 
ENDROOT
BRANCH  12  15
ATOM     15  C   UNL     1      -5.227  -3.831 130.346  0.00  0.00    +0.000 C 
ATOM     16  F   UNL     1      -5.501  -5.086 130.797  0.00  0.00    +0.000 F 
ATOM     17  F   UNL     1      -3.948  -3.871 129.876  0.00  0.00    +0.000 F 
ATOM     18  F   UNL     1      -5.191  -3.036 131.452  0.00  0.00    +0.000 F 
ENDBRANCH  12  15
BRANCH   1  19
ATOM     19  C   UNL     1      -5.261  -0.346 126.276  0.00  0.00    +0.000 C 
BRANCH  19  20
ATOM     20  C   UNL     1      -5.947   0.927 126.762  0.00  0.00    +0.000 C 
BRANCH  20  21
ATOM     21  C   UNL     1      -5.214   2.153 126.236  0.00  0.00    +0.000 C 
BRANCH  21  25
ATOM     22  N   UNL     1      -5.080   5.303 128.076  0.00  0.00    +0.000 NA
ATOM     23  C   UNL     1      -4.515   5.069 126.726  0.00  0.00    +0.000 C 
ATOM     24  C   UNL     1      -3.553   3.854 126.659  0.00  0.00    +0.000 C 
ATOM     25  N   UNL     1      -4.158   2.597 127.159  0.00  0.00    +0.000 NA
ATOM     26  C   UNL     1      -4.685   2.848 128.521  0.00  0.00    +0.000 C 
ATOM     27  C   UNL     1      -5.673   4.041 128.581  0.00  0.00    +0.000 C 
BRANCH  22  28
ATOM     28  C   UNL     1      -4.016   5.748 128.995  0.00  0.00    +0.000 C 
BRANCH  28  29
ATOM     29  C   UNL     1      -3.404   7.054 128.520  0.00  0.00    +0.000 C 
BRANCH  29  30
ATOM     30  O   UNL     1      -4.214   8.123 129.001  0.00  0.00    +0.000 OA
ATOM     31  H   UNL     1      -4.269   8.019 129.965  0.00  0.00    +0.000 HD
ENDBRANCH  29  30
ENDBRANCH  28  29
ENDBRANCH  22  28
ENDBRANCH  21  25
ENDBRANCH  20  21
ENDBRANCH  19  20
ENDBRANCH   1  19
TORSDOF 8
ENDMDL
MODEL 4
REMARK VINA RESULT:      -7.1      7.430      9.637
REMARK  Name = Fluphenazine
REMARK  8 active torsions:
REMARK  status: ('A' for Active; 'I' for Inactive)
REMARK    1  A    between atoms: O_1  and  C_2
REMARK    2  A    between atoms: C_2  and  C_3
REMARK    3  A    between atoms: C_3  and  N_4
REMARK    4  A    between atoms: N_7  and  C_8
REMARK    5  A    between atoms: C_8  and  C_9
REMARK    6  A    between atoms: C_9  and  C_10
REMARK    7  A    between atoms: C_10  and  N_11
REMARK    8  A    between atoms: C_22  and  C_25
REMARK                            x       y       z     vdW  Elec       q    Type
REMARK                         _______ _______ _______ _____ _____    ______ ____
ROOT
ATOM      1  N   UNL     1      -8.595   5.902 130.208  0.00  0.00    +0.000 N 
ATOM      2  C   UNL     1      -7.596   5.839 131.202  0.00  0.00    +0.000 A 
ATOM      3  C   UNL     1      -6.270   6.187 130.898  0.00  0.00    +0.000 A 
ATOM      4  C   UNL     1      -5.308   6.273 131.907  0.00  0.00    +0.000 A 
ATOM      5  C   UNL     1      -5.654   5.998 133.222  0.00  0.00    +0.000 A 
ATOM      6  C   UNL     1      -6.962   5.635 133.545  0.00  0.00    +0.000 A 
ATOM      7  C   UNL     1      -7.932   5.566 132.540  0.00  0.00    +0.000 A 
ATOM      8  S   UNL     1      -9.610   5.147 133.002  0.00  0.00    +0.000 S 
ATOM      9  C   UNL     1     -10.477   6.099 131.761  0.00  0.00    +0.000 A 
ATOM     10  C   UNL     1      -9.902   6.341 130.499  0.00  0.00    +0.000 A 
ATOM     11  C   UNL     1     -10.619   7.115 129.574  0.00  0.00    +0.000 A 
ATOM     12  C   UNL     1     -11.883   7.640 129.890  0.00  0.00    +0.000 A 
ATOM     13  C   UNL     1     -12.435   7.378 131.148  0.00  0.00    +0.000 A 
ATOM     14  C   UNL     1     -11.742   6.607 132.080  0.00  0.00    +0.000 A 
ENDROOT
BRANCH  12  15
ATOM     15  C   UNL     1     -12.629   8.491 128.896  0.00  0.00    +0.000 C 
ATOM     16  F   UNL     1     -13.735   7.865 128.409  0.00  0.00    +0.000 F 
ATOM     17  F   UNL     1     -13.066   9.661 129.438  0.00  0.00    +0.000 F 
ATOM     18  F   UNL     1     -11.886   8.839 127.807  0.00  0.00    +0.000 F 
ENDBRANCH  12  15
BRANCH   1  19
ATOM     19  C   UNL     1      -8.275   5.366 128.879  0.00  0.00    +0.000 C 
BRANCH  19  20
ATOM     20  C   UNL     1      -8.152   3.846 128.919  0.00  0.00    +0.000 C 
BRANCH  20  21
ATOM     21  C   UNL     1      -7.653   3.323 127.579  0.00  0.00    +0.000 C 
BRANCH  21  25
ATOM     22  N   UNL     1      -6.302   3.016 124.202  0.00  0.00    +0.000 NA
ATOM     23  C   UNL     1      -5.503   3.055 125.449  0.00  0.00    +0.000 C 
ATOM     24  C   UNL     1      -5.813   4.283 126.345  0.00  0.00    +0.000 C 
ATOM     25  N   UNL     1      -7.249   4.417 126.682  0.00  0.00    +0.000 NA
ATOM     26  C   UNL     1      -8.023   4.409 125.418  0.00  0.00    +0.000 C 
ATOM     27  C   UNL     1      -7.739   3.164 124.539  0.00  0.00    +0.000 C 
BRANCH  22  28
ATOM     28  C   UNL     1      -5.892   4.115 123.308  0.00  0.00    +0.000 C 
BRANCH  28  29
ATOM     29  C   UNL     1      -5.874   3.656 121.861  0.00  0.00    +0.000 C 
BRANCH  29  30
ATOM     30  O   UNL     1      -7.143   3.954 121.287  0.00  0.00    +0.000 OA
ATOM     31  H   UNL     1      -7.739   4.170 122.022  0.00  0.00    +0.000 HD
ENDBRANCH  29  30
ENDBRANCH  28  29
ENDBRANCH  22  28
ENDBRANCH  21  25
ENDBRANCH  20  21
ENDBRANCH  19  20
ENDBRANCH   1  19
TORSDOF 8
ENDMDL
MODEL 5
REMARK VINA RESULT:      -7.1      4.630      6.909
REMARK  Name = Fluphenazine
REMARK  8 active torsions:
REMARK  status: ('A' for Active; 'I' for Inactive)
REMARK    1  A    between atoms: O_1  and  C_2
REMARK    2  A    between atoms: C_2  and  C_3
REMARK    3  A    between atoms: C_3  and  N_4
REMARK    4  A    between atoms: N_7  and  C_8
REMARK    5  A    between atoms: C_8  and  C_9
REMARK    6  A    between atoms: C_9  and  C_10
REMARK    7  A    between atoms: C_10  and  N_11
REMARK    8  A    between atoms: C_22  and  C_25
REMARK                            x       y       z     vdW  Elec       q    Type
REMARK                         _______ _______ _______ _____ _____    ______ ____
ROOT
ATOM      1  N   UNL     1      -5.873   0.581 125.841  0.00  0.00    +0.000 N 
ATOM      2  C   UNL     1      -5.916   1.939 125.463  0.00  0.00    +0.000 A 
ATOM      3  C   UNL     1      -5.025   2.863 126.032  0.00  0.00    +0.000 A 
ATOM      4  C   UNL     1      -4.959   4.174 125.555  0.00  0.00    +0.000 A 
ATOM      5  C   UNL     1      -5.789   4.580 124.520  0.00  0.00    +0.000 A 
ATOM      6  C   UNL     1      -6.694   3.684 123.950  0.00  0.00    +0.000 A 
ATOM      7  C   UNL     1      -6.750   2.364 124.412  0.00  0.00    +0.000 A 
ATOM      8  S   UNL     1      -7.887   1.231 123.621  0.00  0.00    +0.000 S 
ATOM      9  C   UNL     1      -6.943  -0.276 123.812  0.00  0.00    +0.000 A 
ATOM     10  C   UNL     1      -6.076  -0.455 124.907  0.00  0.00    +0.000 A 
ATOM     11  C   UNL     1      -5.342  -1.648 124.992  0.00  0.00    +0.000 A 
ATOM     12  C   UNL     1      -5.464  -2.648 124.012  0.00  0.00    +0.000 A 
ATOM     13  C   UNL     1      -6.338  -2.448 122.940  0.00  0.00    +0.000 A 
ATOM     14  C   UNL     1      -7.081  -1.272 122.839  0.00  0.00    +0.000 A 
ENDROOT
BRANCH  12  15
ATOM     15  C   UNL     1      -4.650  -3.912 124.104  0.00  0.00    +0.000 C 
ATOM     16  F   UNL     1      -5.365  -5.012 123.742  0.00  0.00    +0.000 F 
ATOM     17  F   UNL     1      -3.558  -3.887 123.290  0.00  0.00    +0.000 F 
ATOM     18  F   UNL     1      -4.176  -4.169 125.355  0.00  0.00    +0.000 F 
ENDBRANCH  12  15
BRANCH   1  19
ATOM     19  C   UNL     1      -5.744   0.271 127.270  0.00  0.00    +0.000 C 
BRANCH  19  20
ATOM     20  C   UNL     1      -7.116   0.140 127.925  0.00  0.00    +0.000 C 
BRANCH  20  21
ATOM     21  C   UNL     1      -7.480   1.431 128.645  0.00  0.00    +0.000 C 
BRANCH  21  25
ATOM     22  N   UNL     1      -7.415   2.717 132.061  0.00  0.00    +0.000 NA
ATOM     23  C   UNL     1      -6.842   1.426 131.615  0.00  0.00    +0.000 C 
ATOM     24  C   UNL     1      -7.852   0.528 130.853  0.00  0.00    +0.000 C 
ATOM     25  N   UNL     1      -8.483   1.206 129.696  0.00  0.00    +0.000 NA
ATOM     26  C   UNL     1      -9.078   2.477 130.175  0.00  0.00    +0.000 C 
ATOM     27  C   UNL     1      -8.059   3.388 130.906  0.00  0.00    +0.000 C 
BRANCH  22  28
ATOM     28  C   UNL     1      -8.420   2.482 133.115  0.00  0.00    +0.000 C 
BRANCH  28  29
ATOM     29  C   UNL     1      -8.605   3.724 133.970  0.00  0.00    +0.000 C 
BRANCH  29  30
ATOM     30  O   UNL     1      -9.988   4.067 133.958  0.00  0.00    +0.000 OA
ATOM     31  H   UNL     1     -10.080   4.873 134.490  0.00  0.00    +0.000 HD
ENDBRANCH  29  30
ENDBRANCH  28  29
ENDBRANCH  22  28
ENDBRANCH  21  25
ENDBRANCH  20  21
ENDBRANCH  19  20
ENDBRANCH   1  19
TORSDOF 8
ENDMDL
MODEL 6
REMARK VINA RESULT:      -7.1      7.149      9.466
REMARK  Name = Fluphenazine
REMARK  8 active torsions:
REMARK  status: ('A' for Active; 'I' for Inactive)
REMARK    1  A    between atoms: O_1  and  C_2
REMARK    2  A    between atoms: C_2  and  C_3
REMARK    3  A    between atoms: C_3  and  N_4
REMARK    4  A    between atoms: N_7  and  C_8
REMARK    5  A    between atoms: C_8  and  C_9
REMARK    6  A    between atoms: C_9  and  C_10
REMARK    7  A    between atoms: C_10  and  N_11
REMARK    8  A    between atoms: C_22  and  C_25
REMARK                            x       y       z     vdW  Elec       q    Type
REMARK                         _______ _______ _______ _____ _____    ______ ____
ROOT
ATOM      1  N   UNL     1      -8.455   5.453 129.876  0.00  0.00    +0.000 N 
ATOM      2  C   UNL     1      -7.499   5.511 130.912  0.00  0.00    +0.000 A 
ATOM      3  C   UNL     1      -6.137   5.680 130.612  0.00  0.00    +0.000 A 
ATOM      4  C   UNL     1      -5.206   5.890 131.631  0.00  0.00    +0.000 A 
ATOM      5  C   UNL     1      -5.619   5.918 132.956  0.00  0.00    +0.000 A 
ATOM      6  C   UNL     1      -6.964   5.736 133.278  0.00  0.00    +0.000 A 
ATOM      7  C   UNL     1      -7.903   5.545 132.259  0.00  0.00    +0.000 A 
ATOM      8  S   UNL     1      -9.626   5.367 132.709  0.00  0.00    +0.000 S 
ATOM      9  C   UNL     1     -10.362   6.116 131.261  0.00  0.00    +0.000 A 
ATOM     10  C   UNL     1      -9.726   6.048 130.007  0.00  0.00    +0.000 A 
ATOM     11  C   UNL     1     -10.338   6.674 128.910  0.00  0.00    +0.000 A 
ATOM     12  C   UNL     1     -11.559   7.355 129.051  0.00  0.00    +0.000 A 
ATOM     13  C   UNL     1     -12.174   7.400 130.306  0.00  0.00    +0.000 A 
ATOM     14  C   UNL     1     -11.585   6.780 131.407  0.00  0.00    +0.000 A 
ENDROOT
BRANCH  12  15
ATOM     15  C   UNL     1     -12.191   8.044 127.870  0.00  0.00    +0.000 C 
ATOM     16  F   UNL     1     -13.141   7.275 127.272  0.00  0.00    +0.000 F 
ATOM     17  F   UNL     1     -12.810   9.207 128.217  0.00  0.00    +0.000 F 
ATOM     18  F   UNL     1     -11.304   8.374 126.889  0.00  0.00    +0.000 F 
ENDBRANCH  12  15
BRANCH   1  19
ATOM     19  C   UNL     1      -8.141   4.634 128.699  0.00  0.00    +0.000 C 
BRANCH  19  20
ATOM     20  C   UNL     1      -8.351   3.152 128.993  0.00  0.00    +0.000 C 
BRANCH  20  21
ATOM     21  C   UNL     1      -7.759   2.305 127.876  0.00  0.00    +0.000 C 
BRANCH  21  25
ATOM     22  N   UNL     1      -7.223   0.434 124.787  0.00  0.00    +0.000 NA
ATOM     23  C   UNL     1      -6.727   1.802 125.063  0.00  0.00    +0.000 C 
ATOM     24  C   UNL     1      -7.838   2.787 125.511  0.00  0.00    +0.000 C 
ATOM     25  N   UNL     1      -8.614   2.306 126.679  0.00  0.00    +0.000 NA
ATOM     26  C   UNL     1      -9.127   0.951 126.365  0.00  0.00    +0.000 C 
ATOM     27  C   UNL     1      -8.011  -0.042 125.950  0.00  0.00    +0.000 C 
BRANCH  22  28
ATOM     28  C   UNL     1      -8.078   0.443 123.586  0.00  0.00    +0.000 C 
BRANCH  28  29
ATOM     29  C   UNL     1      -8.474  -0.969 123.194  0.00  0.00    +0.000 C 
BRANCH  29  30
ATOM     30  O   UNL     1      -9.875  -0.981 122.936  0.00  0.00    +0.000 OA
ATOM     31  H   UNL     1     -10.005  -0.547 122.078  0.00  0.00    +0.000 HD
ENDBRANCH  29  30
ENDBRANCH  28  29
ENDBRANCH  22  28
ENDBRANCH  21  25
ENDBRANCH  20  21
ENDBRANCH  19  20
ENDBRANCH   1  19
TORSDOF 8
ENDMDL
MODEL 7
REMARK VINA RESULT:      -7.1      5.457      7.635
REMARK  Name = Fluphenazine
REMARK  8 active torsions:
REMARK  status: ('A' for Active; 'I' for Inactive)
REMARK    1  A    between atoms: O_1  and  C_2
REMARK    2  A    between atoms: C_2  and  C_3
REMARK    3  A    between atoms: C_3  and  N_4
REMARK    4  A    between atoms: N_7  and  C_8
REMARK    5  A    between atoms: C_8  and  C_9
REMARK    6  A    between atoms: C_9  and  C_10
REMARK    7  A    between atoms: C_10  and  N_11
REMARK    8  A    between atoms: C_22  and  C_25
REMARK                            x       y       z     vdW  Elec       q    Type
REMARK                         _______ _______ _______ _____ _____    ______ ____
ROOT
ATOM      1  N   UNL     1      -7.362   0.944 126.218  0.00  0.00    +0.000 N 
ATOM      2  C   UNL     1      -6.474   2.013 125.974  0.00  0.00    +0.000 A 
ATOM      3  C   UNL     1      -5.269   2.111 126.687  0.00  0.00    +0.000 A 
ATOM      4  C   UNL     1      -4.318   3.076 126.348  0.00  0.00    +0.000 A 
ATOM      5  C   UNL     1      -4.566   3.960 125.307  0.00  0.00    +0.000 A 
ATOM      6  C   UNL     1      -5.763   3.892 124.595  0.00  0.00    +0.000 A 
ATOM      7  C   UNL     1      -6.710   2.914 124.920  0.00  0.00    +0.000 A 
ATOM      8  S   UNL     1      -8.211   2.825 123.949  0.00  0.00    +0.000 S 
ATOM      9  C   UNL     1      -8.494   1.062 124.050  0.00  0.00    +0.000 A 
ATOM     10  C   UNL     1      -8.078   0.324 125.175  0.00  0.00    +0.000 A 
ATOM     11  C   UNL     1      -8.305  -1.061 125.188  0.00  0.00    +0.000 A 
ATOM     12  C   UNL     1      -8.932  -1.705 124.108  0.00  0.00    +0.000 A 
ATOM     13  C   UNL     1      -9.342  -0.947 123.007  0.00  0.00    +0.000 A 
ATOM     14  C   UNL     1      -9.131   0.431 122.976  0.00  0.00    +0.000 A 
ENDROOT
BRANCH  12  15
ATOM     15  C   UNL     1      -9.145  -3.196 124.126  0.00  0.00    +0.000 C 
ATOM     16  F   UNL     1      -9.680  -3.626 125.301  0.00  0.00    +0.000 F 
ATOM     17  F   UNL     1      -9.999  -3.611 123.149  0.00  0.00    +0.000 F 
ATOM     18  F   UNL     1      -8.001  -3.915 123.949  0.00  0.00    +0.000 F 
ENDBRANCH  12  15
BRANCH   1  19
ATOM     19  C   UNL     1      -7.627   0.577 127.614  0.00  0.00    +0.000 C 
BRANCH  19  20
ATOM     20  C   UNL     1      -8.483   1.636 128.303  0.00  0.00    +0.000 C 
BRANCH  20  21
ATOM     21  C   UNL     1      -8.054   1.797 129.755  0.00  0.00    +0.000 C 
BRANCH  21  25
ATOM     22  N   UNL     1      -8.733   2.514 133.269  0.00  0.00    +0.000 NA
ATOM     23  C   UNL     1      -9.717   1.998 132.289  0.00  0.00    +0.000 C 
ATOM     24  C   UNL     1      -9.824   2.860 131.004  0.00  0.00    +0.000 C 
ATOM     25  N   UNL     1      -8.524   3.068 130.325  0.00  0.00    +0.000 NA
ATOM     26  C   UNL     1      -7.568   3.616 131.317  0.00  0.00    +0.000 C 
ATOM     27  C   UNL     1      -7.435   2.735 132.585  0.00  0.00    +0.000 C 
BRANCH  22  28
ATOM     28  C   UNL     1      -9.212   3.789 133.836  0.00  0.00    +0.000 C 
BRANCH  28  29
ATOM     29  C   UNL     1      -8.144   4.426 134.708  0.00  0.00    +0.000 C 
BRANCH  29  30
ATOM     30  O   UNL     1      -8.409   5.824 134.782  0.00  0.00    +0.000 OA
ATOM     31  H   UNL     1      -8.254   6.184 133.894  0.00  0.00    +0.000 HD
ENDBRANCH  29  30
ENDBRANCH  28  29
ENDBRANCH  22  28
ENDBRANCH  21  25
ENDBRANCH  20  21
ENDBRANCH  19  20
ENDBRANCH   1  19
TORSDOF 8
ENDMDL
MODEL 8
REMARK VINA RESULT:      -7.0      4.023      5.808
REMARK  Name = Fluphenazine
REMARK  8 active torsions:
REMARK  status: ('A' for Active; 'I' for Inactive)
REMARK    1  A    between atoms: O_1  and  C_2
REMARK    2  A    between atoms: C_2  and  C_3
REMARK    3  A    between atoms: C_3  and  N_4
REMARK    4  A    between atoms: N_7  and  C_8
REMARK    5  A    between atoms: C_8  and  C_9
REMARK    6  A    between atoms: C_9  and  C_10
REMARK    7  A    between atoms: C_10  and  N_11
REMARK    8  A    between atoms: C_22  and  C_25
REMARK                            x       y       z     vdW  Elec       q    Type
REMARK                         _______ _______ _______ _____ _____    ______ ____
ROOT
ATOM      1  N   UNL     1      -7.836   0.152 127.554  0.00  0.00    +0.000 N 
ATOM      2  C   UNL     1      -7.434  -0.902 128.401  0.00  0.00    +0.000 A 
ATOM      3  C   UNL     1      -8.088  -1.118 129.624  0.00  0.00    +0.000 A 
ATOM      4  C   UNL     1      -7.799  -2.246 130.395  0.00  0.00    +0.000 A 
ATOM      5  C   UNL     1      -6.847  -3.158 129.963  0.00  0.00    +0.000 A 
ATOM      6  C   UNL     1      -6.173  -2.955 128.758  0.00  0.00    +0.000 A 
ATOM      7  C   UNL     1      -6.473  -1.837 127.974  0.00  0.00    +0.000 A 
ATOM      8  S   UNL     1      -5.624  -1.639 126.411  0.00  0.00    +0.000 S 
ATOM      9  C   UNL     1      -6.926  -0.819 125.499  0.00  0.00    +0.000 A 
ATOM     10  C   UNL     1      -7.859   0.009 126.152  0.00  0.00    +0.000 A 
ATOM     11  C   UNL     1      -8.873   0.607 125.389  0.00  0.00    +0.000 A 
ATOM     12  C   UNL     1      -8.963   0.392 124.004  0.00  0.00    +0.000 A 
ATOM     13  C   UNL     1      -8.019  -0.428 123.378  0.00  0.00    +0.000 A 
ATOM     14  C   UNL     1      -7.000  -1.028 124.117  0.00  0.00    +0.000 A 
ENDROOT
BRANCH  12  15
ATOM     15  C   UNL     1     -10.073   1.020 123.202  0.00  0.00    +0.000 C 
ATOM     16  F   UNL     1     -10.575   0.172 122.264  0.00  0.00    +0.000 F 
ATOM     17  F   UNL     1     -11.130   1.390 123.979  0.00  0.00    +0.000 F 
ATOM     18  F   UNL     1      -9.696   2.143 122.529  0.00  0.00    +0.000 F 
ENDBRANCH  12  15
BRANCH   1  19
ATOM     19  C   UNL     1      -8.103   1.460 128.166  0.00  0.00    +0.000 C 
BRANCH  19  20
ATOM     20  C   UNL     1      -6.814   2.258 128.333  0.00  0.00    +0.000 C 
BRANCH  20  21
ATOM     21  C   UNL     1      -6.791   3.428 127.359  0.00  0.00    +0.000 C 
BRANCH  21  25
ATOM     22  N   UNL     1      -6.120   4.306 123.880  0.00  0.00    +0.000 NA
ATOM     23  C   UNL     1      -6.276   2.930 124.407  0.00  0.00    +0.000 C 
ATOM     24  C   UNL     1      -5.344   2.615 125.606  0.00  0.00    +0.000 C 
ATOM     25  N   UNL     1      -5.474   3.582 126.722  0.00  0.00    +0.000 NA
ATOM     26  C   UNL     1      -5.280   4.946 126.175  0.00  0.00    +0.000 C 
ATOM     27  C   UNL     1      -6.236   5.272 124.999  0.00  0.00    +0.000 C 
BRANCH  22  28
ATOM     28  C   UNL     1      -4.798   4.451 123.242  0.00  0.00    +0.000 C 
BRANCH  28  29
ATOM     29  C   UNL     1      -4.942   4.681 121.748  0.00  0.00    +0.000 C 
BRANCH  29  30
ATOM     30  O   UNL     1      -4.229   5.868 121.412  0.00  0.00    +0.000 OA
ATOM     31  H   UNL     1      -4.404   6.508 122.120  0.00  0.00    +0.000 HD
ENDBRANCH  29  30
ENDBRANCH  28  29
ENDBRANCH  22  28
ENDBRANCH  21  25
ENDBRANCH  20  21
ENDBRANCH  19  20
ENDBRANCH   1  19
TORSDOF 8
ENDMDL
MODEL 9
REMARK VINA RESULT:      -7.0      4.108      7.529
REMARK  Name = Fluphenazine
REMARK  8 active torsions:
REMARK  status: ('A' for Active; 'I' for Inactive)
REMARK    1  A    between atoms: O_1  and  C_2
REMARK    2  A    between atoms: C_2  and  C_3
REMARK    3  A    between atoms: C_3  and  N_4
REMARK    4  A    between atoms: N_7  and  C_8
REMARK    5  A    between atoms: C_8  and  C_9
REMARK    6  A    between atoms: C_9  and  C_10
REMARK    7  A    between atoms: C_10  and  N_11
REMARK    8  A    between atoms: C_22  and  C_25
REMARK                            x       y       z     vdW  Elec       q    Type
REMARK                         _______ _______ _______ _____ _____    ______ ____
ROOT
ATOM      1  N   UNL     1      -5.896   0.524 125.780  0.00  0.00    +0.000 N 
ATOM      2  C   UNL     1      -5.929   1.883 125.404  0.00  0.00    +0.000 A 
ATOM      3  C   UNL     1      -5.055   2.805 126.000  0.00  0.00    +0.000 A 
ATOM      4  C   UNL     1      -4.976   4.118 125.528  0.00  0.00    +0.000 A 
ATOM      5  C   UNL     1      -5.776   4.525 124.470  0.00  0.00    +0.000 A 
ATOM      6  C   UNL     1      -6.664   3.630 123.873  0.00  0.00    +0.000 A 
ATOM      7  C   UNL     1      -6.733   2.310 124.331  0.00  0.00    +0.000 A 
ATOM      8  S   UNL     1      -7.846   1.178 123.505  0.00  0.00    +0.000 S 
ATOM      9  C   UNL     1      -6.907  -0.329 123.720  0.00  0.00    +0.000 A 
ATOM     10  C   UNL     1      -6.072  -0.510 124.838  0.00  0.00    +0.000 A 
ATOM     11  C   UNL     1      -5.341  -1.703 124.942  0.00  0.00    +0.000 A 
ATOM     12  C   UNL     1      -5.434  -2.701 123.957  0.00  0.00    +0.000 A 
ATOM     13  C   UNL     1      -6.277  -2.499 122.860  0.00  0.00    +0.000 A 
ATOM     14  C   UNL     1      -7.017  -1.323 122.741  0.00  0.00    +0.000 A 
ENDROOT
BRANCH  12  15
ATOM     15  C   UNL     1      -4.623  -3.965 124.070  0.00  0.00    +0.000 C 
ATOM     16  F   UNL     1      -4.139  -4.157 125.327  0.00  0.00    +0.000 F 
ATOM     17  F   UNL     1      -5.351  -5.077 123.772  0.00  0.00    +0.000 F 
ATOM     18  F   UNL     1      -3.541  -3.997 123.243  0.00  0.00    +0.000 F 
ENDBRANCH  12  15
BRANCH   1  19
ATOM     19  C   UNL     1      -5.809   0.210 127.212  0.00  0.00    +0.000 C 
BRANCH  19  20
ATOM     20  C   UNL     1      -7.167  -0.214 127.761  0.00  0.00    +0.000 C 
BRANCH  20  21
ATOM     21  C   UNL     1      -7.135  -1.680 128.171  0.00  0.00    +0.000 C 
BRANCH  21  25
ATOM     22  N   UNL     1      -6.119  -2.850 131.476  0.00  0.00    +0.000 NA
ATOM     23  C   UNL     1      -6.502  -3.715 130.336  0.00  0.00    +0.000 C 
ATOM     24  C   UNL     1      -7.886  -3.364 129.729  0.00  0.00    +0.000 C 
ATOM     25  N   UNL     1      -8.007  -1.944 129.325  0.00  0.00    +0.000 NA
ATOM     26  C   UNL     1      -7.652  -1.101 130.491  0.00  0.00    +0.000 C 
ATOM     27  C   UNL     1      -6.254  -1.429 131.076  0.00  0.00    +0.000 C 
BRANCH  22  28
ATOM     28  C   UNL     1      -6.998  -3.121 132.629  0.00  0.00    +0.000 C 
BRANCH  28  29
ATOM     29  C   UNL     1      -6.564  -2.316 133.841  0.00  0.00    +0.000 C 
BRANCH  29  30
ATOM     30  O   UNL     1      -7.645  -2.291 134.767  0.00  0.00    +0.000 OA
ATOM     31  H   UNL     1      -8.460  -2.374 134.247  0.00  0.00    +0.000 HD
ENDBRANCH  29  30
ENDBRANCH  28  29
ENDBRANCH  22  28
ENDBRANCH  21  25
ENDBRANCH  20  21
ENDBRANCH  19  20
ENDBRANCH   1  19
TORSDOF 8
ENDMDL
