MODEL 1
REMARK VINA RESULT:      -7.9      0.000      0.000
REMARK  Name = Flupentixol
REMARK  7 active torsions:
REMARK  status: ('A' for Active; 'I' for Inactive)
REMARK    1  A    between atoms: C_2  and  C_3
REMARK    2  A    between atoms: C_3  and  C_4
REMARK    3  A    between atoms: C_4  and  N_5
REMARK    4  A    between atoms: N_8  and  C_9
REMARK    5  A    between atoms: C_9  and  C_10
REMARK    6  A    between atoms: C_10  and  O_11
REMARK    7  A    between atoms: C_25  and  C_28
REMARK                            x       y       z     vdW  Elec       q    Type
REMARK                         _______ _______ _______ _____ _____    ______ ____
ROOT
ATOM      1  C   UNL     1      -5.093   3.928 124.964  0.00  0.00    +0.000 C 
ATOM      2  C   UNL     1      -6.142   3.435 124.244  0.00  0.00    +0.000 C 
ATOM      3  C   UNL     1      -6.134   3.772 122.779  0.00  0.00    +0.000 A 
ATOM      4  C   UNL     1      -5.083   4.496 122.168  0.00  0.00    +0.000 A 
ATOM      5  C   UNL     1      -5.092   4.830 120.817  0.00  0.00    +0.000 A 
ATOM      6  C   UNL     1      -6.153   4.439 120.024  0.00  0.00    +0.000 A 
ATOM      7  C   UNL     1      -7.196   3.718 120.588  0.00  0.00    +0.000 A 
ATOM      8  C   UNL     1      -7.200   3.383 121.951  0.00  0.00    +0.000 A 
ATOM      9  S   UNL     1      -8.630   2.471 122.460  0.00  0.00    +0.000 S 
ATOM     10  C   UNL     1      -8.364   2.189 124.182  0.00  0.00    +0.000 A 
ATOM     11  C   UNL     1      -7.250   2.631 124.899  0.00  0.00    +0.000 A 
ATOM     12  C   UNL     1      -7.261   2.268 126.255  0.00  0.00    +0.000 A 
ATOM     13  C   UNL     1      -8.263   1.564 126.918  0.00  0.00    +0.000 A 
ATOM     14  C   UNL     1      -9.348   1.148 126.183  0.00  0.00    +0.000 A 
ATOM     15  C   UNL     1      -9.391   1.456 124.824  0.00  0.00    +0.000 A 
ENDROOT
BRANCH  13  16
ATOM     16  C   UNL     1      -8.055   1.330 128.390  0.00  0.00    +0.000 C 
ATOM     17  F   UNL     1      -8.075   0.003 128.706  0.00  0.00    +0.000 F 
ATOM     18  F   UNL     1      -6.838   1.782 128.810  0.00  0.00    +0.000 F 
ATOM     19  F   UNL     1      -8.980   1.928 129.180  0.00  0.00    +0.000 F 
ENDBRANCH  13  16
BRANCH   1  20
ATOM     20  C   UNL     1      -4.873   3.797 126.413  0.00  0.00    +0.000 C 
BRANCH  20  21
ATOM     21  C   UNL     1      -3.729   4.561 127.000  0.00  0.00    +0.000 C 
BRANCH  21  22
ATOM     22  N   UNL     1      -4.341   5.517 127.943  0.00  0.00    +0.000 NA
ATOM     23  C   UNL     1      -4.375   4.894 129.274  0.00  0.00    +0.000 C 
ATOM     24  C   UNL     1      -2.953   4.683 129.841  0.00  0.00    +0.000 C 
ATOM     25  N   UNL     1      -2.148   5.932 129.892  0.00  0.00    +0.000 NA
ATOM     26  C   UNL     1      -2.135   6.555 128.548  0.00  0.00    +0.000 C 
ATOM     27  C   UNL     1      -3.559   6.778 127.993  0.00  0.00    +0.000 C 
BRANCH  25  28
ATOM     28  C   UNL     1      -2.737   6.849 130.885  0.00  0.00    +0.000 C 
BRANCH  28  29
ATOM     29  C   UNL     1      -1.810   7.133 132.069  0.00  0.00    +0.000 C 
BRANCH  29  30
ATOM     30  O   UNL     1      -0.506   6.636 131.794  0.00  0.00    +0.000 OA
ATOM     31  H   UNL     1      -0.192   7.104 130.999  0.00  0.00    +0.000 HD
ENDBRANCH  29  30
ENDBRANCH  28  29
ENDBRANCH  25  28
ENDBRANCH  21  22
ENDBRANCH  20  21
ENDBRANCH   1  20
TORSDOF 7
ENDMDL
MODEL 2
REMARK VINA RESULT:      -7.8      5.191      6.921
REMARK  Name = Flupentixol
REMARK  7 active torsions:
REMARK  status: ('A' for Active; 'I' for Inactive)
REMARK    1  A    between atoms: C_2  and  C_3
REMARK    2  A    between atoms: C_3  and  C_4
REMARK    3  A    between atoms: C_4  and  N_5
REMARK    4  A    between atoms: N_8  and  C_9
REMARK    5  A    between atoms: C_9  and  C_10
REMARK    6  A    between atoms: C_10  and  O_11
REMARK    7  A    between atoms: C_25  and  C_28
REMARK                            x       y       z     vdW  Elec       q    Type
REMARK                         _______ _______ _______ _____ _____    ______ ____
ROOT
ATOM      1  C   UNL     1      -5.350  -0.614 126.711  0.00  0.00    +0.000 C 
ATOM      2  C   UNL     1      -5.874   0.284 125.829  0.00  0.00    +0.000 C 
ATOM      3  C   UNL     1      -5.253   1.653 125.856  0.00  0.00    +0.000 A 
ATOM      4  C   UNL     1      -4.157   1.977 126.689  0.00  0.00    +0.000 A 
ATOM      5  C   UNL     1      -3.600   3.252 126.733  0.00  0.00    +0.000 A 
ATOM      6  C   UNL     1      -4.118   4.249 125.929  0.00  0.00    +0.000 A 
ATOM      7  C   UNL     1      -5.186   3.964 125.091  0.00  0.00    +0.000 A 
ATOM      8  C   UNL     1      -5.759   2.683 125.046  0.00  0.00    +0.000 A 
ATOM      9  S   UNL     1      -7.115   2.544 123.916  0.00  0.00    +0.000 S 
ATOM     10  C   UNL     1      -7.620   0.860 124.064  0.00  0.00    +0.000 A 
ATOM     11  C   UNL     1      -7.030  -0.078 124.914  0.00  0.00    +0.000 A 
ATOM     12  C   UNL     1      -7.601  -1.359 124.839  0.00  0.00    +0.000 A 
ATOM     13  C   UNL     1      -8.681  -1.741 124.047  0.00  0.00    +0.000 A 
ATOM     14  C   UNL     1      -9.241  -0.791 123.226  0.00  0.00    +0.000 A 
ATOM     15  C   UNL     1      -8.708   0.496 123.233  0.00  0.00    +0.000 A 
ENDROOT
BRANCH  13  16
ATOM     16  C   UNL     1      -9.130  -3.171 124.175  0.00  0.00    +0.000 C 
ATOM     17  F   UNL     1      -8.077  -4.039 124.203  0.00  0.00    +0.000 F 
ATOM     18  F   UNL     1      -9.809  -3.390 125.339  0.00  0.00    +0.000 F 
ATOM     19  F   UNL     1      -9.944  -3.587 123.173  0.00  0.00    +0.000 F 
ENDBRANCH  13  16
BRANCH   1  20
ATOM     20  C   UNL     1      -5.794  -2.000 126.934  0.00  0.00    +0.000 C 
BRANCH  20  21
ATOM     21  C   UNL     1      -6.050  -2.413 128.349  0.00  0.00    +0.000 C 
BRANCH  21  22
ATOM     22  N   UNL     1      -4.756  -2.260 129.040  0.00  0.00    +0.000 NA
ATOM     23  C   UNL     1      -4.977  -1.478 130.265  0.00  0.00    +0.000 C 
ATOM     24  C   UNL     1      -5.844  -2.249 131.284  0.00  0.00    +0.000 C 
ATOM     25  N   UNL     1      -5.294  -3.585 131.634  0.00  0.00    +0.000 NA
ATOM     26  C   UNL     1      -5.064  -4.356 130.391  0.00  0.00    +0.000 C 
ATOM     27  C   UNL     1      -4.183  -3.587 129.381  0.00  0.00    +0.000 C 
BRANCH  25  28
ATOM     28  C   UNL     1      -4.034  -3.410 132.380  0.00  0.00    +0.000 C 
BRANCH  28  29
ATOM     29  C   UNL     1      -3.621  -4.657 133.166  0.00  0.00    +0.000 C 
BRANCH  29  30
ATOM     30  O   UNL     1      -2.227  -4.887 133.013  0.00  0.00    +0.000 OA
ATOM     31  H   UNL     1      -1.841  -4.866 133.908  0.00  0.00    +0.000 HD
ENDBRANCH  29  30
ENDBRANCH  28  29
ENDBRANCH  25  28
ENDBRANCH  21  22
ENDBRANCH  20  21
ENDBRANCH   1  20
TORSDOF 7
ENDMDL
MODEL 3
REMARK VINA RESULT:      -7.7      4.920      6.268
REMARK  Name = Flupentixol
REMARK  7 active torsions:
REMARK  status: ('A' for Active; 'I' for Inactive)
REMARK    1  A    between atoms: C_2  and  C_3
REMARK    2  A    between atoms: C_3  and  C_4
REMARK    3  A    between atoms: C_4  and  N_5
REMARK    4  A    between atoms: N_8  and  C_9
REMARK    5  A    between atoms: C_9  and  C_10
REMARK    6  A    between atoms: C_10  and  O_11
REMARK    7  A    between atoms: C_25  and  C_28
REMARK                            x       y       z     vdW  Elec       q    Type
REMARK                         _______ _______ _______ _____ _____    ______ ____
ROOT
ATOM      1  C   UNL     1      -6.354   0.992 127.579  0.00  0.00    +0.000 C 
ATOM      2  C   UNL     1      -6.860   0.622 126.368  0.00  0.00    +0.000 C 
ATOM      3  C   UNL     1      -6.617   1.590 125.244  0.00  0.00    +0.000 A 
ATOM      4  C   UNL     1      -5.860   2.774 125.407  0.00  0.00    +0.000 A 
ATOM      5  C   UNL     1      -5.659   3.683 124.372  0.00  0.00    +0.000 A 
ATOM      6  C   UNL     1      -6.201   3.429 123.127  0.00  0.00    +0.000 A 
ATOM      7  C   UNL     1      -6.939   2.271 122.928  0.00  0.00    +0.000 A 
ATOM      8  C   UNL     1      -7.154   1.353 123.968  0.00  0.00    +0.000 A 
ATOM      9  S   UNL     1      -8.130  -0.046 123.497  0.00  0.00    +0.000 S 
ATOM     10  C   UNL     1      -8.228  -1.012 124.971  0.00  0.00    +0.000 A 
ATOM     11  C   UNL     1      -7.643  -0.666 126.191  0.00  0.00    +0.000 A 
ATOM     12  C   UNL     1      -7.849  -1.606 127.213  0.00  0.00    +0.000 A 
ATOM     13  C   UNL     1      -8.586  -2.785 127.120  0.00  0.00    +0.000 A 
ATOM     14  C   UNL     1      -9.153  -3.093 125.906  0.00  0.00    +0.000 A 
ATOM     15  C   UNL     1      -8.968  -2.213 124.841  0.00  0.00    +0.000 A 
ENDROOT
BRANCH  13  16
ATOM     16  C   UNL     1      -8.689  -3.610 128.375  0.00  0.00    +0.000 C 
ATOM     17  F   UNL     1      -8.788  -2.832 129.491  0.00  0.00    +0.000 F 
ATOM     18  F   UNL     1      -9.807  -4.392 128.379  0.00  0.00    +0.000 F 
ATOM     19  F   UNL     1      -7.638  -4.441 128.577  0.00  0.00    +0.000 F 
ENDBRANCH  13  16
BRANCH   1  20
ATOM     20  C   UNL     1      -6.485   0.267 128.854  0.00  0.00    +0.000 C 
BRANCH  20  21
ATOM     21  C   UNL     1      -5.258  -0.400 129.387  0.00  0.00    +0.000 C 
BRANCH  21  22
ATOM     22  N   UNL     1      -5.722  -1.687 129.940  0.00  0.00    +0.000 NA
ATOM     23  C   UNL     1      -4.863  -2.755 129.407  0.00  0.00    +0.000 C 
ATOM     24  C   UNL     1      -3.414  -2.635 129.931  0.00  0.00    +0.000 C 
ATOM     25  N   UNL     1      -3.325  -2.612 131.415  0.00  0.00    +0.000 NA
ATOM     26  C   UNL     1      -4.205  -1.542 131.937  0.00  0.00    +0.000 C 
ATOM     27  C   UNL     1      -5.656  -1.675 131.423  0.00  0.00    +0.000 C 
BRANCH  25  28
ATOM     28  C   UNL     1      -3.731  -3.927 131.945  0.00  0.00    +0.000 C 
BRANCH  28  29
ATOM     29  C   UNL     1      -3.239  -4.180 133.372  0.00  0.00    +0.000 C 
BRANCH  29  30
ATOM     30  O   UNL     1      -2.095  -5.024 133.348  0.00  0.00    +0.000 OA
ATOM     31  H   UNL     1      -1.340  -4.462 133.097  0.00  0.00    +0.000 HD
ENDBRANCH  29  30
ENDBRANCH  28  29
ENDBRANCH  25  28
ENDBRANCH  21  22
ENDBRANCH  20  21
ENDBRANCH   1  20
TORSDOF 7
ENDMDL
MODEL 4
REMARK VINA RESULT:      -7.7      4.103      5.449
REMARK  Name = Flupentixol
REMARK  7 active torsions:
REMARK  status: ('A' for Active; 'I' for Inactive)
REMARK    1  A    between atoms: C_2  and  C_3
REMARK    2  A    between atoms: C_3  and  C_4
REMARK    3  A    between atoms: C_4  and  N_5
REMARK    4  A    between atoms: N_8  and  C_9
REMARK    5  A    between atoms: C_9  and  C_10
REMARK    6  A    between atoms: C_10  and  O_11
REMARK    7  A    between atoms: C_25  and  C_28
REMARK                            x       y       z     vdW  Elec       q    Type
REMARK                         _______ _______ _______ _____ _____    ______ ____
ROOT
ATOM      1  C   UNL     1      -6.644   1.117 127.520  0.00  0.00    +0.000 C 
ATOM      2  C   UNL     1      -7.016   0.650 126.293  0.00  0.00    +0.000 C 
ATOM      3  C   UNL     1      -6.750   1.579 125.141  0.00  0.00    +0.000 A 
ATOM      4  C   UNL     1      -6.100   2.825 125.300  0.00  0.00    +0.000 A 
ATOM      5  C   UNL     1      -5.879   3.695 124.237  0.00  0.00    +0.000 A 
ATOM      6  C   UNL     1      -6.292   3.339 122.967  0.00  0.00    +0.000 A 
ATOM      7  C   UNL     1      -6.923   2.119 122.773  0.00  0.00    +0.000 A 
ATOM      8  C   UNL     1      -7.157   1.238 123.840  0.00  0.00    +0.000 A 
ATOM      9  S   UNL     1      -7.983  -0.255 123.369  0.00  0.00    +0.000 S 
ATOM     10  C   UNL     1      -8.135  -1.152 124.881  0.00  0.00    +0.000 A 
ATOM     11  C   UNL     1      -7.684  -0.702 126.124  0.00  0.00    +0.000 A 
ATOM     12  C   UNL     1      -7.907  -1.605 127.176  0.00  0.00    +0.000 A 
ATOM     13  C   UNL     1      -8.543  -2.841 127.088  0.00  0.00    +0.000 A 
ATOM     14  C   UNL     1      -8.980  -3.251 125.850  0.00  0.00    +0.000 A 
ATOM     15  C   UNL     1      -8.770  -2.412 124.757  0.00  0.00    +0.000 A 
ENDROOT
BRANCH  13  16
ATOM     16  C   UNL     1      -8.692  -3.609 128.373  0.00  0.00    +0.000 C 
ATOM     17  F   UNL     1      -8.818  -2.783 129.452  0.00  0.00    +0.000 F 
ATOM     18  F   UNL     1      -9.817  -4.382 128.378  0.00  0.00    +0.000 F 
ATOM     19  F   UNL     1      -7.655  -4.439 128.644  0.00  0.00    +0.000 F 
ENDBRANCH  13  16
BRANCH   1  20
ATOM     20  C   UNL     1      -6.830   0.447 128.817  0.00  0.00    +0.000 C 
BRANCH  20  21
ATOM     21  C   UNL     1      -7.959   0.925 129.674  0.00  0.00    +0.000 C 
BRANCH  21  22
ATOM     22  N   UNL     1      -7.380   1.976 130.532  0.00  0.00    +0.000 NA
ATOM     23  C   UNL     1      -7.846   3.281 130.040  0.00  0.00    +0.000 C 
ATOM     24  C   UNL     1      -9.369   3.452 130.235  0.00  0.00    +0.000 C 
ATOM     25  N   UNL     1      -9.808   3.259 131.642  0.00  0.00    +0.000 NA
ATOM     26  C   UNL     1      -9.320   1.948 132.127  0.00  0.00    +0.000 C 
ATOM     27  C   UNL     1      -7.794   1.789 131.945  0.00  0.00    +0.000 C 
BRANCH  25  28
ATOM     28  C   UNL     1      -9.273   4.354 132.471  0.00  0.00    +0.000 C 
BRANCH  28  29
ATOM     29  C   UNL     1      -9.860   5.722 132.117  0.00  0.00    +0.000 C 
BRANCH  29  30
ATOM     30  O   UNL     1     -10.067   6.483 133.300  0.00  0.00    +0.000 OA
ATOM     31  H   UNL     1     -10.111   7.417 133.027  0.00  0.00    +0.000 HD
ENDBRANCH  29  30
ENDBRANCH  28  29
ENDBRANCH  25  28
ENDBRANCH  21  22
ENDBRANCH  20  21
ENDBRANCH   1  20
TORSDOF 7
ENDMDL
MODEL 5
REMARK VINA RESULT:      -7.6      5.019      8.829
REMARK  Name = Flupentixol
REMARK  7 active torsions:
REMARK  status: ('A' for Active; 'I' for Inactive)
REMARK    1  A    between atoms: C_2  and  C_3
REMARK    2  A    between atoms: C_3  and  C_4
REMARK    3  A    between atoms: C_4  and  N_5
REMARK    4  A    between atoms: N_8  and  C_9
REMARK    5  A    between atoms: C_9  and  C_10
REMARK    6  A    between atoms: C_10  and  O_11
REMARK    7  A    between atoms: C_25  and  C_28
REMARK                            x       y       z     vdW  Elec       q    Type
REMARK                         _______ _______ _______ _____ _____    ______ ____
ROOT
ATOM      1  C   UNL     1      -7.459   3.123 128.229  0.00  0.00    +0.000 C 
ATOM      2  C   UNL     1      -6.844   4.075 128.988  0.00  0.00    +0.000 C 
ATOM      3  C   UNL     1      -7.732   4.794 129.964  0.00  0.00    +0.000 A 
ATOM      4  C   UNL     1      -9.098   4.468 130.138  0.00  0.00    +0.000 A 
ATOM      5  C   UNL     1      -9.925   5.153 131.022  0.00  0.00    +0.000 A 
ATOM      6  C   UNL     1      -9.407   6.186 131.779  0.00  0.00    +0.000 A 
ATOM      7  C   UNL     1      -8.068   6.526 131.644  0.00  0.00    +0.000 A 
ATOM      8  C   UNL     1      -7.228   5.846 130.748  0.00  0.00    +0.000 A 
ATOM      9  S   UNL     1      -5.564   6.449 130.729  0.00  0.00    +0.000 S 
ATOM     10  C   UNL     1      -4.754   5.424 129.542  0.00  0.00    +0.000 A 
ATOM     11  C   UNL     1      -5.371   4.398 128.822  0.00  0.00    +0.000 A 
ATOM     12  C   UNL     1      -4.510   3.715 127.947  0.00  0.00    +0.000 A 
ATOM     13  C   UNL     1      -3.162   3.988 127.727  0.00  0.00    +0.000 A 
ATOM     14  C   UNL     1      -2.589   5.008 128.449  0.00  0.00    +0.000 A 
ATOM     15  C   UNL     1      -3.381   5.714 129.353  0.00  0.00    +0.000 A 
ENDROOT
BRANCH  13  16
ATOM     16  C   UNL     1      -2.465   3.131 126.706  0.00  0.00    +0.000 C 
ATOM     17  F   UNL     1      -2.008   3.863 125.649  0.00  0.00    +0.000 F 
ATOM     18  F   UNL     1      -1.360   2.519 127.224  0.00  0.00    +0.000 F 
ATOM     19  F   UNL     1      -3.240   2.148 126.188  0.00  0.00    +0.000 F 
ENDBRANCH  13  16
BRANCH   1  20
ATOM     20  C   UNL     1      -6.849   2.306 127.167  0.00  0.00    +0.000 C 
BRANCH  20  21
ATOM     21  C   UNL     1      -7.681   2.035 125.954  0.00  0.00    +0.000 C 
BRANCH  21  22
ATOM     22  N   UNL     1      -6.962   0.981 125.215  0.00  0.00    +0.000 NA
ATOM     23  C   UNL     1      -7.252  -0.311 125.854  0.00  0.00    +0.000 C 
ATOM     24  C   UNL     1      -8.738  -0.704 125.694  0.00  0.00    +0.000 C 
ATOM     25  N   UNL     1      -9.191  -0.731 124.278  0.00  0.00    +0.000 NA
ATOM     26  C   UNL     1      -8.879   0.571 123.644  0.00  0.00    +0.000 C 
ATOM     27  C   UNL     1      -7.389   0.952 123.793  0.00  0.00    +0.000 C 
BRANCH  25  28
ATOM     28  C   UNL     1      -8.509  -1.831 123.571  0.00  0.00    +0.000 C 
BRANCH  28  29
ATOM     29  C   UNL     1      -8.992  -3.217 124.004  0.00  0.00    +0.000 C 
BRANCH  29  30
ATOM     30  O   UNL     1     -10.243  -3.508 123.395  0.00  0.00    +0.000 OA
ATOM     31  H   UNL     1     -10.291  -4.477 123.305  0.00  0.00    +0.000 HD
ENDBRANCH  29  30
ENDBRANCH  28  29
ENDBRANCH  25  28
ENDBRANCH  21  22
ENDBRANCH  20  21
ENDBRANCH   1  20
TORSDOF 7
ENDMDL
MODEL 6
REMARK VINA RESULT:      -7.6      3.170      5.547
REMARK  Name = Flupentixol
REMARK  7 active torsions:
REMARK  status: ('A' for Active; 'I' for Inactive)
REMARK    1  A    between atoms: C_2  and  C_3
REMARK    2  A    between atoms: C_3  and  C_4
REMARK    3  A    between atoms: C_4  and  N_5
REMARK    4  A    between atoms: N_8  and  C_9
REMARK    5  A    between atoms: C_9  and  C_10
REMARK    6  A    between atoms: C_10  and  O_11
REMARK    7  A    between atoms: C_25  and  C_28
REMARK                            x       y       z     vdW  Elec       q    Type
REMARK                         _______ _______ _______ _____ _____    ______ ____
ROOT
ATOM      1  C   UNL     1      -6.249   0.339 128.185  0.00  0.00    +0.000 C 
ATOM      2  C   UNL     1      -6.970  -0.125 127.124  0.00  0.00    +0.000 C 
ATOM      3  C   UNL     1      -7.677  -1.432 127.347  0.00  0.00    +0.000 A 
ATOM      4  C   UNL     1      -7.657  -2.109 128.589  0.00  0.00    +0.000 A 
ATOM      5  C   UNL     1      -8.290  -3.332 128.785  0.00  0.00    +0.000 A 
ATOM      6  C   UNL     1      -8.981  -3.918 127.742  0.00  0.00    +0.000 A 
ATOM      7  C   UNL     1      -9.033  -3.275 126.513  0.00  0.00    +0.000 A 
ATOM      8  C   UNL     1      -8.390  -2.045 126.303  0.00  0.00    +0.000 A 
ATOM      9  S   UNL     1      -8.576  -1.411 124.661  0.00  0.00    +0.000 S 
ATOM     10  C   UNL     1      -7.690   0.114 124.691  0.00  0.00    +0.000 A 
ATOM     11  C   UNL     1      -7.016   0.623 125.804  0.00  0.00    +0.000 A 
ATOM     12  C   UNL     1      -6.398   1.864 125.582  0.00  0.00    +0.000 A 
ATOM     13  C   UNL     1      -6.377   2.579 124.386  0.00  0.00    +0.000 A 
ATOM     14  C   UNL     1      -7.046   2.047 123.309  0.00  0.00    +0.000 A 
ATOM     15  C   UNL     1      -7.701   0.826 123.467  0.00  0.00    +0.000 A 
ENDROOT
BRANCH  13  16
ATOM     16  C   UNL     1      -5.611   3.874 124.396  0.00  0.00    +0.000 C 
ATOM     17  F   UNL     1      -4.436   3.769 125.080  0.00  0.00    +0.000 F 
ATOM     18  F   UNL     1      -5.262   4.269 123.137  0.00  0.00    +0.000 F 
ATOM     19  F   UNL     1      -6.287   4.911 124.949  0.00  0.00    +0.000 F 
ENDBRANCH  13  16
BRANCH   1  20
ATOM     20  C   UNL     1      -5.423   1.557 128.231  0.00  0.00    +0.000 C 
BRANCH  20  21
ATOM     21  C   UNL     1      -5.845   2.631 129.183  0.00  0.00    +0.000 C 
BRANCH  21  22
ATOM     22  N   UNL     1      -4.592   3.166 129.748  0.00  0.00    +0.000 NA
ATOM     23  C   UNL     1      -3.823   3.787 128.660  0.00  0.00    +0.000 C 
ATOM     24  C   UNL     1      -4.535   5.040 128.103  0.00  0.00    +0.000 C 
ATOM     25  N   UNL     1      -4.842   6.055 129.146  0.00  0.00    +0.000 NA
ATOM     26  C   UNL     1      -5.603   5.412 130.241  0.00  0.00    +0.000 C 
ATOM     27  C   UNL     1      -4.879   4.169 130.805  0.00  0.00    +0.000 C 
BRANCH  25  28
ATOM     28  C   UNL     1      -3.580   6.625 129.653  0.00  0.00    +0.000 C 
BRANCH  28  29
ATOM     29  C   UNL     1      -3.767   7.966 130.367  0.00  0.00    +0.000 C 
BRANCH  29  30
ATOM     30  O   UNL     1      -4.614   8.811 129.599  0.00  0.00    +0.000 OA
ATOM     31  H   UNL     1      -5.268   9.185 130.216  0.00  0.00    +0.000 HD
ENDBRANCH  29  30
ENDBRANCH  28  29
ENDBRANCH  25  28
ENDBRANCH  21  22
ENDBRANCH  20  21
ENDBRANCH   1  20
TORSDOF 7
ENDMDL
MODEL 7
REMARK VINA RESULT:      -7.6      4.137      6.471
REMARK  Name = Flupentixol
REMARK  7 active torsions:
REMARK  status: ('A' for Active; 'I' for Inactive)
REMARK    1  A    between atoms: C_2  and  C_3
REMARK    2  A    between atoms: C_3  and  C_4
REMARK    3  A    between atoms: C_4  and  N_5
REMARK    4  A    between atoms: N_8  and  C_9
REMARK    5  A    between atoms: C_9  and  C_10
REMARK    6  A    between atoms: C_10  and  O_11
REMARK    7  A    between atoms: C_25  and  C_28
REMARK                            x       y       z     vdW  Elec       q    Type
REMARK                         _______ _______ _______ _____ _____    ______ ____
ROOT
ATOM      1  C   UNL     1      -6.555   0.393 128.480  0.00  0.00    +0.000 C 
ATOM      2  C   UNL     1      -7.135  -0.121 127.357  0.00  0.00    +0.000 C 
ATOM      3  C   UNL     1      -7.779  -1.469 127.523  0.00  0.00    +0.000 A 
ATOM      4  C   UNL     1      -7.842  -2.137 128.768  0.00  0.00    +0.000 A 
ATOM      5  C   UNL     1      -8.414  -3.397 128.914  0.00  0.00    +0.000 A 
ATOM      6  C   UNL     1      -8.958  -4.030 127.814  0.00  0.00    +0.000 A 
ATOM      7  C   UNL     1      -8.925  -3.399 126.578  0.00  0.00    +0.000 A 
ATOM      8  C   UNL     1      -8.342  -2.132 126.420  0.00  0.00    +0.000 A 
ATOM      9  S   UNL     1      -8.400  -1.520 124.760  0.00  0.00    +0.000 S 
ATOM     10  C   UNL     1      -7.618   0.059 124.861  0.00  0.00    +0.000 A 
ATOM     11  C   UNL     1      -7.093   0.615 126.030  0.00  0.00    +0.000 A 
ATOM     12  C   UNL     1      -6.535   1.892 125.857  0.00  0.00    +0.000 A 
ATOM     13  C   UNL     1      -6.438   2.600 124.662  0.00  0.00    +0.000 A 
ATOM     14  C   UNL     1      -6.960   2.021 123.529  0.00  0.00    +0.000 A 
ATOM     15  C   UNL     1      -7.549   0.762 123.634  0.00  0.00    +0.000 A 
ENDROOT
BRANCH  13  16
ATOM     16  C   UNL     1      -5.759   3.941 124.733  0.00  0.00    +0.000 C 
ATOM     17  F   UNL     1      -6.655   4.962 124.867  0.00  0.00    +0.000 F 
ATOM     18  F   UNL     1      -4.937   4.039 125.817  0.00  0.00    +0.000 F 
ATOM     19  F   UNL     1      -5.001   4.235 123.649  0.00  0.00    +0.000 F 
ENDBRANCH  13  16
BRANCH   1  20
ATOM     20  C   UNL     1      -5.816   1.661 128.595  0.00  0.00    +0.000 C 
BRANCH  20  21
ATOM     21  C   UNL     1      -6.264   2.617 129.654  0.00  0.00    +0.000 C 
BRANCH  21  22
ATOM     22  N   UNL     1      -7.737   2.631 129.569  0.00  0.00    +0.000 NA
ATOM     23  C   UNL     1      -8.279   2.412 130.919  0.00  0.00    +0.000 C 
ATOM     24  C   UNL     1      -7.957   3.595 131.859  0.00  0.00    +0.000 C 
ATOM     25  N   UNL     1      -8.424   4.906 131.337  0.00  0.00    +0.000 NA
ATOM     26  C   UNL     1      -7.883   5.106 129.973  0.00  0.00    +0.000 C 
ATOM     27  C   UNL     1      -8.220   3.928 129.032  0.00  0.00    +0.000 C 
BRANCH  25  28
ATOM     28  C   UNL     1      -9.899   4.924 131.320  0.00  0.00    +0.000 C 
BRANCH  28  29
ATOM     29  C   UNL     1     -10.496   6.109 132.083  0.00  0.00    +0.000 C 
BRANCH  29  30
ATOM     30  O   UNL     1      -9.774   6.324 133.289  0.00  0.00    +0.000 OA
ATOM     31  H   UNL     1      -9.658   5.450 133.704  0.00  0.00    +0.000 HD
ENDBRANCH  29  30
ENDBRANCH  28  29
ENDBRANCH  25  28
ENDBRANCH  21  22
ENDBRANCH  20  21
ENDBRANCH   1  20
TORSDOF 7
ENDMDL
MODEL 8
REMARK VINA RESULT:      -7.6      5.573      8.644
REMARK  Name = Flupentixol
REMARK  7 active torsions:
REMARK  status: ('A' for Active; 'I' for Inactive)
REMARK    1  A    between atoms: C_2  and  C_3
REMARK    2  A    between atoms: C_3  and  C_4
REMARK    3  A    between atoms: C_4  and  N_5
REMARK    4  A    between atoms: N_8  and  C_9
REMARK    5  A    between atoms: C_9  and  C_10
REMARK    6  A    between atoms: C_10  and  O_11
REMARK    7  A    between atoms: C_25  and  C_28
REMARK                            x       y       z     vdW  Elec       q    Type
REMARK                         _______ _______ _______ _____ _____    ______ ____
ROOT
ATOM      1  C   UNL     1      -8.064   3.058 128.179  0.00  0.00    +0.000 C 
ATOM      2  C   UNL     1      -8.423   2.839 129.477  0.00  0.00    +0.000 C 
ATOM      3  C   UNL     1      -8.883   4.054 130.232  0.00  0.00    +0.000 A 
ATOM      4  C   UNL     1      -9.002   5.328 129.630  0.00  0.00    +0.000 A 
ATOM      5  C   UNL     1      -9.403   6.457 130.338  0.00  0.00    +0.000 A 
ATOM      6  C   UNL     1      -9.712   6.346 131.679  0.00  0.00    +0.000 A 
ATOM      7  C   UNL     1      -9.618   5.109 132.301  0.00  0.00    +0.000 A 
ATOM      8  C   UNL     1      -9.207   3.966 131.596  0.00  0.00    +0.000 A 
ATOM      9  S   UNL     1      -9.148   2.499 132.585  0.00  0.00    +0.000 S 
ATOM     10  C   UNL     1      -8.617   1.248 131.458  0.00  0.00    +0.000 A 
ATOM     11  C   UNL     1      -8.324   1.463 130.109  0.00  0.00    +0.000 A 
ATOM     12  C   UNL     1      -7.937   0.305 129.416  0.00  0.00    +0.000 A 
ATOM     13  C   UNL     1      -7.795  -0.974 129.949  0.00  0.00    +0.000 A 
ATOM     14  C   UNL     1      -8.086  -1.148 131.282  0.00  0.00    +0.000 A 
ATOM     15  C   UNL     1      -8.499  -0.044 132.025  0.00  0.00    +0.000 A 
ENDROOT
BRANCH  13  16
ATOM     16  C   UNL     1      -7.329  -2.045 129.002  0.00  0.00    +0.000 C 
ATOM     17  F   UNL     1      -8.292  -2.383 128.096  0.00  0.00    +0.000 F 
ATOM     18  F   UNL     1      -6.261  -1.637 128.257  0.00  0.00    +0.000 F 
ATOM     19  F   UNL     1      -6.953  -3.196 129.611  0.00  0.00    +0.000 F 
ENDBRANCH  13  16
BRANCH   1  20
ATOM     20  C   UNL     1      -7.532   2.068 127.227  0.00  0.00    +0.000 C 
BRANCH  20  21
ATOM     21  C   UNL     1      -8.128   2.056 125.855  0.00  0.00    +0.000 C 
BRANCH  21  22
ATOM     22  N   UNL     1      -7.329   1.077 125.092  0.00  0.00    +0.000 NA
ATOM     23  C   UNL     1      -7.604  -0.263 125.631  0.00  0.00    +0.000 C 
ATOM     24  C   UNL     1      -9.062  -0.696 125.363  0.00  0.00    +0.000 C 
ATOM     25  N   UNL     1      -9.437  -0.646 123.925  0.00  0.00    +0.000 NA
ATOM     26  C   UNL     1      -9.141   0.704 123.393  0.00  0.00    +0.000 C 
ATOM     27  C   UNL     1      -7.677   1.126 123.650  0.00  0.00    +0.000 C 
BRANCH  25  28
ATOM     28  C   UNL     1      -8.676  -1.673 123.190  0.00  0.00    +0.000 C 
BRANCH  28  29
ATOM     29  C   UNL     1      -8.920  -3.092 123.710  0.00  0.00    +0.000 C 
BRANCH  29  30
ATOM     30  O   UNL     1     -10.228  -3.521 123.354  0.00  0.00    +0.000 OA
ATOM     31  H   UNL     1     -10.234  -3.621 122.385  0.00  0.00    +0.000 HD
ENDBRANCH  29  30
ENDBRANCH  28  29
ENDBRANCH  25  28
ENDBRANCH  21  22
ENDBRANCH  20  21
ENDBRANCH   1  20
TORSDOF 7
ENDMDL
MODEL 9
REMARK VINA RESULT:      -7.5      6.788     10.562
REMARK  Name = Flupentixol
REMARK  7 active torsions:
REMARK  status: ('A' for Active; 'I' for Inactive)
REMARK    1  A    between atoms: C_2  and  C_3
REMARK    2  A    between atoms: C_3  and  C_4
REMARK    3  A    between atoms: C_4  and  N_5
REMARK    4  A    between atoms: N_8  and  C_9
REMARK    5  A    between atoms: C_9  and  C_10
REMARK    6  A    between atoms: C_10  and  O_11
REMARK    7  A    between atoms: C_25  and  C_28
REMARK                            x       y       z     vdW  Elec       q    Type
REMARK                         _______ _______ _______ _____ _____    ______ ____
ROOT
ATOM      1  C   UNL     1      -6.576   5.878 132.413  0.00  0.00    +0.000 C 
ATOM      2  C   UNL     1      -5.431   5.994 133.146  0.00  0.00    +0.000 C 
ATOM      3  C   UNL     1      -5.618   6.004 134.637  0.00  0.00    +0.000 A 
ATOM      4  C   UNL     1      -6.882   5.840 135.250  0.00  0.00    +0.000 A 
ATOM      5  C   UNL     1      -7.057   5.876 136.629  0.00  0.00    +0.000 A 
ATOM      6  C   UNL     1      -5.962   6.068 137.450  0.00  0.00    +0.000 A 
ATOM      7  C   UNL     1      -4.705   6.222 136.885  0.00  0.00    +0.000 A 
ATOM      8  C   UNL     1      -4.520   6.194 135.493  0.00  0.00    +0.000 A 
ATOM      9  S   UNL     1      -2.838   6.420 134.990  0.00  0.00    +0.000 S 
ATOM     10  C   UNL     1      -2.906   6.334 133.228  0.00  0.00    +0.000 A 
ATOM     11  C   UNL     1      -4.073   6.138 132.484  0.00  0.00    +0.000 A 
ATOM     12  C   UNL     1      -3.866   6.090 131.096  0.00  0.00    +0.000 A 
ATOM     13  C   UNL     1      -2.652   6.250 130.432  0.00  0.00    +0.000 A 
ATOM     14  C   UNL     1      -1.525   6.447 131.195  0.00  0.00    +0.000 A 
ATOM     15  C   UNL     1      -1.655   6.482 132.582  0.00  0.00    +0.000 A 
ENDROOT
BRANCH  13  16
ATOM     16  C   UNL     1      -2.700   6.194 128.929  0.00  0.00    +0.000 C 
ATOM     17  F   UNL     1      -2.631   4.913 128.463  0.00  0.00    +0.000 F 
ATOM     18  F   UNL     1      -3.871   6.694 128.438  0.00  0.00    +0.000 F 
ATOM     19  F   UNL     1      -1.703   6.880 128.319  0.00  0.00    +0.000 F 
ENDBRANCH  13  16
BRANCH   1  20
ATOM     20  C   UNL     1      -6.694   5.891 130.946  0.00  0.00    +0.000 C 
BRANCH  20  21
ATOM     21  C   UNL     1      -8.016   5.499 130.366  0.00  0.00    +0.000 C 
BRANCH  21  22
ATOM     22  N   UNL     1      -9.008   6.359 131.041  0.00  0.00    +0.000 NA
ATOM     23  C   UNL     1      -9.481   7.362 130.076  0.00  0.00    +0.000 C 
ATOM     24  C   UNL     1     -10.284   6.713 128.927  0.00  0.00    +0.000 C 
ATOM     25  N   UNL     1     -11.430   5.892 129.400  0.00  0.00    +0.000 NA
ATOM     26  C   UNL     1     -10.940   4.896 130.381  0.00  0.00    +0.000 C 
ATOM     27  C   UNL     1     -10.151   5.551 131.536  0.00  0.00    +0.000 C 
BRANCH  25  28
ATOM     28  C   UNL     1     -12.439   6.775 130.014  0.00  0.00    +0.000 C 
BRANCH  28  29
ATOM     29  C   UNL     1     -13.272   7.544 128.986  0.00  0.00    +0.000 C 
BRANCH  29  30
ATOM     30  O   UNL     1     -13.533   6.719 127.858  0.00  0.00    +0.000 OA
ATOM     31  H   UNL     1     -13.205   5.829 128.081  0.00  0.00    +0.000 HD
ENDBRANCH  29  30
ENDBRANCH  28  29
ENDBRANCH  25  28
ENDBRANCH  21  22
ENDBRANCH  20  21
ENDBRANCH   1  20
TORSDOF 7
ENDMDL
