MODEL 1
REMARK VINA RESULT:      -8.2      0.000      0.000
REMARK  Name = Fluprednisolone
REMARK  7 active torsions:
REMARK  status: ('A' for Active; 'I' for Inactive)
REMARK    1  A    between atoms: C_5  and  O_6
REMARK    2  A    between atoms: C_5  and  C_7
REMARK    3  A    between atoms: C_7  and  C_9
REMARK    4  A    between atoms: C_9  and  O_10
REMARK    5  A    between atoms: C_11  and  C_12
REMARK    6  A    between atoms: C_14  and  O_15
REMARK    7  A    between atoms: C_29  and  C_30
REMARK                            x       y       z     vdW  Elec       q    Type
REMARK                         _______ _______ _______ _____ _____    ______ ____
ROOT
ATOM      1  C   UNL     1      -7.461  -1.251 123.527  0.00  0.00    +0.000 C 
ATOM      2  C   UNL     1      -6.257  -1.498 122.819  0.00  0.00    +0.000 C 
ATOM      3  C   UNL     1      -6.160  -1.463 124.319  0.00  0.00    +0.000 C 
ATOM      4  C   UNL     1      -7.915  -1.696 125.396  0.00  0.00    +0.000 C 
ATOM      5  C   UNL     1      -7.067  -2.583 124.836  0.00  0.00    +0.000 C 
ATOM      6  C   UNL     1      -7.323  -3.959 124.347  0.00  0.00    +0.000 C 
ATOM      7  C   UNL     1      -6.048  -2.077 126.338  0.00  0.00    +0.000 C 
ATOM      8  C   UNL     1      -6.291  -0.411 126.707  0.00  0.00    +0.000 C 
ATOM      9  C   UNL     1      -6.303   0.735 125.504  0.00  0.00    +0.000 C 
ATOM     10  C   UNL     1      -7.452   0.416 124.269  0.00  0.00    +0.000 C 
ATOM     11  C   UNL     1      -7.282   1.389 123.123  0.00  0.00    +0.000 C 
ATOM     12  C   UNL     1      -7.279   2.822 123.599  0.00  0.00    +0.000 C 
ATOM     13  F   UNL     1      -7.075   3.607 122.508  0.00  0.00    +0.000 F 
ATOM     14  C   UNL     1      -6.311   3.153 124.701  0.00  0.00    +0.000 C 
ATOM     15  C   UNL     1      -5.533   4.253 124.707  0.00  0.00    +0.000 C 
ATOM     16  C   UNL     1      -4.806   4.449 125.986  0.00  0.00    +0.000 C 
ATOM     17  O   UNL     1      -5.060   5.251 126.874  0.00  0.00    +0.000 OA
ATOM     18  C   UNL     1      -3.771   3.378 126.201  0.00  0.00    +0.000 C 
ATOM     19  C   UNL     1      -4.751   2.508 126.568  0.00  0.00    +0.000 C 
ATOM     20  C   UNL     1      -6.239   2.236 125.927  0.00  0.00    +0.000 C 
ATOM     21  C   UNL     1      -7.546   2.467 126.700  0.00  0.00    +0.000 C 
ENDROOT
BRANCH   4  22
ATOM     22  O   UNL     1      -9.224  -1.815 124.673  0.00  0.00    +0.000 OA
ATOM     23  H   UNL     1      -9.456  -2.716 124.418  0.00  0.00    +0.000 HD
ENDBRANCH   4  22
BRANCH   4  24
ATOM     24  C   UNL     1      -8.519  -2.813 126.741  0.00  0.00    +0.000 C 
ATOM     25  O   UNL     1      -9.657  -3.314 126.756  0.00  0.00    +0.000 OA
BRANCH  24  26
ATOM     26  C   UNL     1      -7.722  -3.143 128.101  0.00  0.00    +0.000 C 
BRANCH  26  27
ATOM     27  O   UNL     1      -8.286  -2.440 129.246  0.00  0.00    +0.000 OA
ATOM     28  H   UNL     1      -7.705  -2.596 130.018  0.00  0.00    +0.000 HD
ENDBRANCH  26  27
ENDBRANCH  24  26
ENDBRANCH   4  24
BRANCH   8  29
ATOM     29  O   UNL     1      -7.529  -0.353 127.446  0.00  0.00    +0.000 OA
ATOM     30  H   UNL     1      -8.058  -1.159 127.306  0.00  0.00    +0.000 HD
ENDBRANCH   8  29
TORSDOF 5
ENDMDL
MODEL 2
REMARK VINA RESULT:      -8.0      3.640      5.455
REMARK  Name = Fluprednisolone
REMARK  7 active torsions:
REMARK  status: ('A' for Active; 'I' for Inactive)
REMARK    1  A    between atoms: C_5  and  O_6
REMARK    2  A    between atoms: C_5  and  C_7
REMARK    3  A    between atoms: C_7  and  C_9
REMARK    4  A    between atoms: C_9  and  O_10
REMARK    5  A    between atoms: C_11  and  C_12
REMARK    6  A    between atoms: C_14  and  O_15
REMARK    7  A    between atoms: C_29  and  C_30
REMARK                            x       y       z     vdW  Elec       q    Type
REMARK                         _______ _______ _______ _____ _____    ______ ____
ROOT
ATOM      1  C   UNL     1      -8.582  -3.383 126.029  0.00  0.00    +0.000 C 
ATOM      2  C   UNL     1      -9.984  -3.296 126.226  0.00  0.00    +0.000 C 
ATOM      3  C   UNL     1      -9.275  -2.020 125.865  0.00  0.00    +0.000 C 
ATOM      4  C   UNL     1      -7.395  -2.180 125.008  0.00  0.00    +0.000 C 
ATOM      5  C   UNL     1      -8.640  -2.252 124.492  0.00  0.00    +0.000 C 
ATOM      6  C   UNL     1      -9.123  -2.958 123.281  0.00  0.00    +0.000 C 
ATOM      7  C   UNL     1      -8.515  -0.390 124.754  0.00  0.00    +0.000 C 
ATOM      8  C   UNL     1      -7.604  -0.035 126.174  0.00  0.00    +0.000 C 
ATOM      9  C   UNL     1      -7.854  -0.883 127.581  0.00  0.00    +0.000 C 
ATOM     10  C   UNL     1      -7.679  -2.580 127.396  0.00  0.00    +0.000 C 
ATOM     11  C   UNL     1      -8.100  -3.297 128.660  0.00  0.00    +0.000 C 
ATOM     12  C   UNL     1      -7.403  -2.740 129.879  0.00  0.00    +0.000 C 
ATOM     13  F   UNL     1      -7.881  -3.416 130.958  0.00  0.00    +0.000 F 
ATOM     14  C   UNL     1      -7.499  -1.253 130.077  0.00  0.00    +0.000 C 
ATOM     15  C   UNL     1      -7.768  -0.673 131.262  0.00  0.00    +0.000 C 
ATOM     16  C   UNL     1      -7.623   0.805 131.238  0.00  0.00    +0.000 C 
ATOM     17  O   UNL     1      -6.708   1.473 131.699  0.00  0.00    +0.000 OA
ATOM     18  C   UNL     1      -8.673   1.446 130.373  0.00  0.00    +0.000 C 
ATOM     19  C   UNL     1      -7.980   1.079 129.261  0.00  0.00    +0.000 C 
ATOM     20  C   UNL     1      -7.213  -0.326 128.891  0.00  0.00    +0.000 C 
ATOM     21  C   UNL     1      -5.700  -0.421 128.640  0.00  0.00    +0.000 C 
ENDROOT
BRANCH   4  22
ATOM     22  O   UNL     1      -6.766  -3.531 124.839  0.00  0.00    +0.000 OA
ATOM     23  H   UNL     1      -7.366  -4.271 124.992  0.00  0.00    +0.000 HD
ENDBRANCH   4  22
BRANCH   4  24
ATOM     24  C   UNL     1      -6.573  -1.567 123.468  0.00  0.00    +0.000 C 
ATOM     25  O   UNL     1      -6.775  -0.439 122.987  0.00  0.00    +0.000 OA
BRANCH  24  26
ATOM     26  C   UNL     1      -5.635  -2.451 122.502  0.00  0.00    +0.000 C 
BRANCH  26  27
ATOM     27  O   UNL     1      -4.540  -3.076 123.231  0.00  0.00    +0.000 OA
ATOM     28  H   UNL     1      -4.055  -3.661 122.614  0.00  0.00    +0.000 HD
ENDBRANCH  26  27
ENDBRANCH  24  26
ENDBRANCH   4  24
BRANCH   8  29
ATOM     29  O   UNL     1      -6.219  -0.139 125.784  0.00  0.00    +0.000 OA
ATOM     30  H   UNL     1      -6.017   0.464 125.045  0.00  0.00    +0.000 HD
ENDBRANCH   8  29
TORSDOF 5
ENDMDL
MODEL 3
REMARK VINA RESULT:      -8.0      4.579      7.146
REMARK  Name = Fluprednisolone
REMARK  7 active torsions:
REMARK  status: ('A' for Active; 'I' for Inactive)
REMARK    1  A    between atoms: C_5  and  O_6
REMARK    2  A    between atoms: C_5  and  C_7
REMARK    3  A    between atoms: C_7  and  C_9
REMARK    4  A    between atoms: C_9  and  O_10
REMARK    5  A    between atoms: C_11  and  C_12
REMARK    6  A    between atoms: C_14  and  O_15
REMARK    7  A    between atoms: C_29  and  C_30
REMARK                            x       y       z     vdW  Elec       q    Type
REMARK                         _______ _______ _______ _____ _____    ______ ____
ROOT
ATOM      1  C   UNL     1      -3.785   4.506 126.712  0.00  0.00    +0.000 C 
ATOM      2  C   UNL     1      -2.830   3.476 126.517  0.00  0.00    +0.000 C 
ATOM      3  C   UNL     1      -4.042   3.123 127.333  0.00  0.00    +0.000 C 
ATOM      4  C   UNL     1      -5.701   4.354 127.162  0.00  0.00    +0.000 C 
ATOM      5  C   UNL     1      -5.252   3.322 126.417  0.00  0.00    +0.000 C 
ATOM      6  C   UNL     1      -5.470   3.026 124.981  0.00  0.00    +0.000 C 
ATOM      7  C   UNL     1      -5.936   2.372 127.894  0.00  0.00    +0.000 C 
ATOM      8  C   UNL     1      -5.694   3.257 129.353  0.00  0.00    +0.000 C 
ATOM      9  C   UNL     1      -4.244   4.004 129.666  0.00  0.00    +0.000 C 
ATOM     10  C   UNL     1      -3.762   5.100 128.437  0.00  0.00    +0.000 C 
ATOM     11  C   UNL     1      -2.357   5.600 128.693  0.00  0.00    +0.000 C 
ATOM     12  C   UNL     1      -2.203   6.145 130.093  0.00  0.00    +0.000 C 
ATOM     13  F   UNL     1      -0.904   6.522 130.237  0.00  0.00    +0.000 F 
ATOM     14  C   UNL     1      -2.636   5.238 131.211  0.00  0.00    +0.000 C 
ATOM     15  C   UNL     1      -1.923   5.044 132.337  0.00  0.00    +0.000 C 
ATOM     16  C   UNL     1      -2.649   4.254 133.363  0.00  0.00    +0.000 C 
ATOM     17  O   UNL     1      -3.182   4.666 134.383  0.00  0.00    +0.000 OA
ATOM     18  C   UNL     1      -2.853   2.831 132.918  0.00  0.00    +0.000 C 
ATOM     19  C   UNL     1      -3.868   3.233 132.105  0.00  0.00    +0.000 C 
ATOM     20  C   UNL     1      -3.995   4.536 131.112  0.00  0.00    +0.000 C 
ATOM     21  C   UNL     1      -5.050   5.637 131.297  0.00  0.00    +0.000 C 
ENDROOT
BRANCH   4  22
ATOM     22  O   UNL     1      -5.632   5.583 126.305  0.00  0.00    +0.000 OA
ATOM     23  H   UNL     1      -4.851   6.130 126.456  0.00  0.00    +0.000 HD
ENDBRANCH   4  22
BRANCH   4  24
ATOM     24  C   UNL     1      -7.493   4.132 126.758  0.00  0.00    +0.000 C 
ATOM     25  O   UNL     1      -8.396   4.837 127.242  0.00  0.00    +0.000 OA
BRANCH  24  26
ATOM     26  C   UNL     1      -8.103   2.933 125.874  0.00  0.00    +0.000 C 
BRANCH  26  27
ATOM     27  O   UNL     1      -9.138   3.403 124.962  0.00  0.00    +0.000 OA
ATOM     28  H   UNL     1      -9.050   4.374 124.873  0.00  0.00    +0.000 HD
ENDBRANCH  26  27
ENDBRANCH  24  26
ENDBRANCH   4  24
BRANCH   8  29
ATOM     29  O   UNL     1      -6.761   4.227 129.401  0.00  0.00    +0.000 OA
ATOM     30  H   UNL     1      -7.602   3.837 129.101  0.00  0.00    +0.000 HD
ENDBRANCH   8  29
TORSDOF 5
ENDMDL
MODEL 4
REMARK VINA RESULT:      -8.0      4.172      6.940
REMARK  Name = Fluprednisolone
REMARK  7 active torsions:
REMARK  status: ('A' for Active; 'I' for Inactive)
REMARK    1  A    between atoms: C_5  and  O_6
REMARK    2  A    between atoms: C_5  and  C_7
REMARK    3  A    between atoms: C_7  and  C_9
REMARK    4  A    between atoms: C_9  and  O_10
REMARK    5  A    between atoms: C_11  and  C_12
REMARK    6  A    between atoms: C_14  and  O_15
REMARK    7  A    between atoms: C_29  and  C_30
REMARK                            x       y       z     vdW  Elec       q    Type
REMARK                         _______ _______ _______ _____ _____    ______ ____
ROOT
ATOM      1  C   UNL     1      -6.099  -3.892 131.140  0.00  0.00    +0.000 C 
ATOM      2  C   UNL     1      -5.605  -5.157 130.732  0.00  0.00    +0.000 C 
ATOM      3  C   UNL     1      -4.841  -3.952 130.258  0.00  0.00    +0.000 C 
ATOM      4  C   UNL     1      -5.144  -2.169 131.271  0.00  0.00    +0.000 C 
ATOM      5  C   UNL     1      -4.349  -3.231 131.515  0.00  0.00    +0.000 C 
ATOM      6  C   UNL     1      -3.811  -3.734 132.802  0.00  0.00    +0.000 C 
ATOM      7  C   UNL     1      -3.382  -2.430 130.110  0.00  0.00    +0.000 C 
ATOM      8  C   UNL     1      -4.453  -1.716 128.964  0.00  0.00    +0.000 C 
ATOM      9  C   UNL     1      -5.813  -2.520 128.452  0.00  0.00    +0.000 C 
ATOM     10  C   UNL     1      -6.847  -2.999 129.736  0.00  0.00    +0.000 C 
ATOM     11  C   UNL     1      -7.962  -3.881 129.218  0.00  0.00    +0.000 C 
ATOM     12  C   UNL     1      -8.686  -3.246 128.055  0.00  0.00    +0.000 C 
ATOM     13  F   UNL     1      -9.629  -4.132 127.637  0.00  0.00    +0.000 F 
ATOM     14  C   UNL     1      -7.827  -2.781 126.912  0.00  0.00    +0.000 C 
ATOM     15  C   UNL     1      -8.123  -3.001 125.617  0.00  0.00    +0.000 C 
ATOM     16  C   UNL     1      -7.222  -2.284 124.679  0.00  0.00    +0.000 C 
ATOM     17  O   UNL     1      -7.467  -1.276 124.032  0.00  0.00    +0.000 OA
ATOM     18  C   UNL     1      -5.821  -2.828 124.738  0.00  0.00    +0.000 C 
ATOM     19  C   UNL     1      -5.609  -2.153 125.900  0.00  0.00    +0.000 C 
ATOM     20  C   UNL     1      -6.575  -1.950 127.214  0.00  0.00    +0.000 C 
ATOM     21  C   UNL     1      -7.084  -0.579 127.683  0.00  0.00    +0.000 C 
ENDROOT
BRANCH   4  22
ATOM     22  O   UNL     1      -6.152  -2.104 132.380  0.00  0.00    +0.000 OA
ATOM     23  H   UNL     1      -5.778  -1.886 133.243  0.00  0.00    +0.000 HD
ENDBRANCH   4  22
BRANCH   4  24
ATOM     24  C   UNL     1      -4.079  -0.917 132.119  0.00  0.00    +0.000 C 
ATOM     25  O   UNL     1      -4.285   0.308 132.062  0.00  0.00    +0.000 OA
BRANCH  24  26
ATOM     26  C   UNL     1      -2.702  -1.239 132.889  0.00  0.00    +0.000 C 
BRANCH  26  27
ATOM     27  O   UNL     1      -2.312  -0.155 133.780  0.00  0.00    +0.000 OA
ATOM     28  H   UNL     1      -3.092   0.099 134.315  0.00  0.00    +0.000 HD
ENDBRANCH  26  27
ENDBRANCH  24  26
ENDBRANCH   4  24
BRANCH   8  29
ATOM     29  O   UNL     1      -4.825  -0.439 129.522  0.00  0.00    +0.000 OA
ATOM     30  H   UNL     1      -5.641  -0.101 129.110  0.00  0.00    +0.000 HD
ENDBRANCH   8  29
TORSDOF 5
ENDMDL
MODEL 5
REMARK VINA RESULT:      -7.7      3.226      5.860
REMARK  Name = Fluprednisolone
REMARK  7 active torsions:
REMARK  status: ('A' for Active; 'I' for Inactive)
REMARK    1  A    between atoms: C_5  and  O_6
REMARK    2  A    between atoms: C_5  and  C_7
REMARK    3  A    between atoms: C_7  and  C_9
REMARK    4  A    between atoms: C_9  and  O_10
REMARK    5  A    between atoms: C_11  and  C_12
REMARK    6  A    between atoms: C_14  and  O_15
REMARK    7  A    between atoms: C_29  and  C_30
REMARK                            x       y       z     vdW  Elec       q    Type
REMARK                         _______ _______ _______ _____ _____    ______ ____
ROOT
ATOM      1  C   UNL     1      -7.778  -2.520 129.607  0.00  0.00    +0.000 C 
ATOM      2  C   UNL     1      -7.281  -3.844 129.703  0.00  0.00    +0.000 C 
ATOM      3  C   UNL     1      -6.291  -2.782 129.315  0.00  0.00    +0.000 C 
ATOM      4  C   UNL     1      -6.793  -0.813 129.725  0.00  0.00    +0.000 C 
ATOM      5  C   UNL     1      -6.245  -1.789 130.479  0.00  0.00    +0.000 C 
ATOM      6  C   UNL     1      -6.278  -1.980 131.949  0.00  0.00    +0.000 C 
ATOM      7  C   UNL     1      -4.754  -1.335 129.420  0.00  0.00    +0.000 C 
ATOM      8  C   UNL     1      -5.247  -0.906 127.826  0.00  0.00    +0.000 C 
ATOM      9  C   UNL     1      -6.381  -1.808 127.013  0.00  0.00    +0.000 C 
ATOM     10  C   UNL     1      -7.860  -1.976 127.867  0.00  0.00    +0.000 C 
ATOM     11  C   UNL     1      -8.772  -2.955 127.161  0.00  0.00    +0.000 C 
ATOM     12  C   UNL     1      -8.946  -2.607 125.702  0.00  0.00    +0.000 C 
ATOM     13  F   UNL     1      -9.739  -3.565 125.152  0.00  0.00    +0.000 F 
ATOM     14  C   UNL     1      -7.683  -2.419 124.909  0.00  0.00    +0.000 C 
ATOM     15  C   UNL     1      -7.489  -2.933 123.679  0.00  0.00    +0.000 C 
ATOM     16  C   UNL     1      -6.242  -2.452 123.033  0.00  0.00    +0.000 C 
ATOM     17  O   UNL     1      -6.135  -1.621 122.142  0.00  0.00    +0.000 OA
ATOM     18  C   UNL     1      -5.020  -2.967 123.743  0.00  0.00    +0.000 C 
ATOM     19  C   UNL     1      -5.201  -2.042 124.724  0.00  0.00    +0.000 C 
ATOM     20  C   UNL     1      -6.568  -1.540 125.486  0.00  0.00    +0.000 C 
ATOM     21  C   UNL     1      -7.092  -0.098 125.416  0.00  0.00    +0.000 C 
ENDROOT
BRANCH   4  22
ATOM     22  O   UNL     1      -8.133  -0.493 130.318  0.00  0.00    +0.000 OA
ATOM     23  H   UNL     1      -8.490  -1.184 130.890  0.00  0.00    +0.000 HD
ENDBRANCH   4  22
BRANCH   4  24
ATOM     24  C   UNL     1      -6.018   0.602 130.630  0.00  0.00    +0.000 C 
ATOM     25  O   UNL     1      -6.670   1.540 131.122  0.00  0.00    +0.000 OA
BRANCH  24  26
ATOM     26  C   UNL     1      -4.435   0.866 130.758  0.00  0.00    +0.000 C 
BRANCH  26  27
ATOM     27  O   UNL     1      -3.998   1.968 129.911  0.00  0.00    +0.000 OA
ATOM     28  H   UNL     1      -3.823   1.615 129.014  0.00  0.00    +0.000 HD
ENDBRANCH  26  27
ENDBRANCH  24  26
ENDBRANCH   4  24
BRANCH   8  29
ATOM     29  O   UNL     1      -5.687   0.466 127.910  0.00  0.00    +0.000 OA
ATOM     30  H   UNL     1      -6.527   0.535 128.399  0.00  0.00    +0.000 HD
ENDBRANCH   8  29
TORSDOF 5
ENDMDL
MODEL 6
REMARK VINA RESULT:      -7.7      3.707      6.606
REMARK  Name = Fluprednisolone
REMARK  7 active torsions:
REMARK  status: ('A' for Active; 'I' for Inactive)
REMARK    1  A    between atoms: C_5  and  O_6
REMARK    2  A    between atoms: C_5  and  C_7
REMARK    3  A    between atoms: C_7  and  C_9
REMARK    4  A    between atoms: C_9  and  O_10
REMARK    5  A    between atoms: C_11  and  C_12
REMARK    6  A    between atoms: C_14  and  O_15
REMARK    7  A    between atoms: C_29  and  C_30
REMARK                            x       y       z     vdW  Elec       q    Type
REMARK                         _______ _______ _______ _____ _____    ______ ____
ROOT
ATOM      1  C   UNL     1      -6.962  -0.383 131.334  0.00  0.00    +0.000 C 
ATOM      2  C   UNL     1      -8.272  -0.638 131.814  0.00  0.00    +0.000 C 
ATOM      3  C   UNL     1      -7.535  -1.805 131.220  0.00  0.00    +0.000 C 
ATOM      4  C   UNL     1      -5.475  -1.650 131.053  0.00  0.00    +0.000 C 
ATOM      5  C   UNL     1      -6.281  -2.004 132.076  0.00  0.00    +0.000 C 
ATOM      6  C   UNL     1      -6.052  -1.913 133.538  0.00  0.00    +0.000 C 
ATOM      7  C   UNL     1      -6.388  -3.570 131.033  0.00  0.00    +0.000 C 
ATOM      8  C   UNL     1      -6.340  -3.188 129.353  0.00  0.00    +0.000 C 
ATOM      9  C   UNL     1      -7.232  -1.928 128.740  0.00  0.00    +0.000 C 
ATOM     10  C   UNL     1      -6.914  -0.428 129.511  0.00  0.00    +0.000 C 
ATOM     11  C   UNL     1      -7.886   0.629 129.035  0.00  0.00    +0.000 C 
ATOM     12  C   UNL     1      -7.930   0.714 127.528  0.00  0.00    +0.000 C 
ATOM     13  F   UNL     1      -8.859   1.652 127.205  0.00  0.00    +0.000 F 
ATOM     14  C   UNL     1      -8.178  -0.577 126.798  0.00  0.00    +0.000 C 
ATOM     15  C   UNL     1      -9.036  -0.700 125.767  0.00  0.00    +0.000 C 
ATOM     16  C   UNL     1      -8.963  -2.023 125.097  0.00  0.00    +0.000 C 
ATOM     17  O   UNL     1      -8.439  -2.290 124.025  0.00  0.00    +0.000 OA
ATOM     18  C   UNL     1      -9.455  -3.123 125.998  0.00  0.00    +0.000 C 
ATOM     19  C   UNL     1      -8.278  -3.089 126.680  0.00  0.00    +0.000 C 
ATOM     20  C   UNL     1      -7.369  -1.819 127.189  0.00  0.00    +0.000 C 
ATOM     21  C   UNL     1      -5.937  -1.557 126.701  0.00  0.00    +0.000 C 
ENDROOT
BRANCH   4  22
ATOM     22  O   UNL     1      -4.789  -0.377 131.450  0.00  0.00    +0.000 OA
ATOM     23  H   UNL     1      -4.006  -0.502 132.000  0.00  0.00    +0.000 HD
ENDBRANCH   4  22
BRANCH   4  24
ATOM     24  C   UNL     1      -4.012  -2.646 131.594  0.00  0.00    +0.000 C 
ATOM     25  O   UNL     1      -2.836  -2.312 131.368  0.00  0.00    +0.000 OA
BRANCH  24  26
ATOM     26  C   UNL     1      -4.082  -4.104 132.271  0.00  0.00    +0.000 C 
BRANCH  26  27
ATOM     27  O   UNL     1      -2.809  -4.487 132.870  0.00  0.00    +0.000 OA
ATOM     28  H   UNL     1      -2.261  -4.913 132.179  0.00  0.00    +0.000 HD
ENDBRANCH  26  27
ENDBRANCH  24  26
ENDBRANCH   4  24
BRANCH   8  29
ATOM     29  O   UNL     1      -4.946  -2.995 129.037  0.00  0.00    +0.000 OA
ATOM     30  H   UNL     1      -4.378  -3.540 129.612  0.00  0.00    +0.000 HD
ENDBRANCH   8  29
TORSDOF 5
ENDMDL
MODEL 7
REMARK VINA RESULT:      -7.7      2.928      5.737
REMARK  Name = Fluprednisolone
REMARK  7 active torsions:
REMARK  status: ('A' for Active; 'I' for Inactive)
REMARK    1  A    between atoms: C_5  and  O_6
REMARK    2  A    between atoms: C_5  and  C_7
REMARK    3  A    between atoms: C_7  and  C_9
REMARK    4  A    between atoms: C_9  and  O_10
REMARK    5  A    between atoms: C_11  and  C_12
REMARK    6  A    between atoms: C_14  and  O_15
REMARK    7  A    between atoms: C_29  and  C_30
REMARK                            x       y       z     vdW  Elec       q    Type
REMARK                         _______ _______ _______ _____ _____    ______ ____
ROOT
ATOM      1  C   UNL     1      -7.939   1.075 126.296  0.00  0.00    +0.000 C 
ATOM      2  C   UNL     1      -6.711   1.782 126.346  0.00  0.00    +0.000 C 
ATOM      3  C   UNL     1      -6.653   0.370 125.834  0.00  0.00    +0.000 C 
ATOM      4  C   UNL     1      -8.428  -0.487 125.193  0.00  0.00    +0.000 C 
ATOM      5  C   UNL     1      -7.540   0.327 124.587  0.00  0.00    +0.000 C 
ATOM      6  C   UNL     1      -7.743   1.291 123.478  0.00  0.00    +0.000 C 
ATOM      7  C   UNL     1      -6.575  -1.291 124.529  0.00  0.00    +0.000 C 
ATOM      8  C   UNL     1      -6.877  -2.231 125.942  0.00  0.00    +0.000 C 
ATOM      9  C   UNL     1      -6.892  -1.527 127.446  0.00  0.00    +0.000 C 
ATOM     10  C   UNL     1      -7.999  -0.221 127.579  0.00  0.00    +0.000 C 
ATOM     11  C   UNL     1      -7.828   0.487 128.904  0.00  0.00    +0.000 C 
ATOM     12  C   UNL     1      -7.879  -0.477 130.066  0.00  0.00    +0.000 C 
ATOM     13  F   UNL     1      -7.671   0.246 131.198  0.00  0.00    +0.000 F 
ATOM     14  C   UNL     1      -6.950  -1.657 129.991  0.00  0.00    +0.000 C 
ATOM     15  C   UNL     1      -6.205  -2.089 131.027  0.00  0.00    +0.000 C 
ATOM     16  C   UNL     1      -5.518  -3.377 130.757  0.00  0.00    +0.000 C 
ATOM     17  O   UNL     1      -5.818  -4.486 131.176  0.00  0.00    +0.000 OA
ATOM     18  C   UNL     1      -4.458  -3.224 129.700  0.00  0.00    +0.000 C 
ATOM     19  C   UNL     1      -5.420  -3.215 128.739  0.00  0.00    +0.000 C 
ATOM     20  C   UNL     1      -6.883  -2.468 128.692  0.00  0.00    +0.000 C 
ATOM     21  C   UNL     1      -8.215  -3.227 128.602  0.00  0.00    +0.000 C 
ENDROOT
BRANCH   4  22
ATOM     22  O   UNL     1      -9.713   0.275 125.322  0.00  0.00    +0.000 OA
ATOM     23  H   UNL     1     -10.496  -0.215 125.041  0.00  0.00    +0.000 HD
ENDBRANCH   4  22
BRANCH   4  24
ATOM     24  C   UNL     1      -9.033  -1.313 123.653  0.00  0.00    +0.000 C 
ATOM     25  O   UNL     1      -9.711  -0.733 122.786  0.00  0.00    +0.000 OA
BRANCH  24  26
ATOM     26  C   UNL     1      -8.891  -2.883 123.324  0.00  0.00    +0.000 C 
BRANCH  26  27
ATOM     27  O   UNL     1     -10.151  -3.592 123.505  0.00  0.00    +0.000 OA
ATOM     28  H   UNL     1     -10.593  -3.234 124.303  0.00  0.00    +0.000 HD
ENDBRANCH  26  27
ENDBRANCH  24  26
ENDBRANCH   4  24
BRANCH   8  29
ATOM     29  O   UNL     1      -8.135  -2.897 125.705  0.00  0.00    +0.000 OA
ATOM     30  H   UNL     1      -8.851  -2.489 126.224  0.00  0.00    +0.000 HD
ENDBRANCH   8  29
TORSDOF 5
ENDMDL
MODEL 8
REMARK VINA RESULT:      -7.7      6.439      8.500
REMARK  Name = Fluprednisolone
REMARK  7 active torsions:
REMARK  status: ('A' for Active; 'I' for Inactive)
REMARK    1  A    between atoms: C_5  and  O_6
REMARK    2  A    between atoms: C_5  and  C_7
REMARK    3  A    between atoms: C_7  and  C_9
REMARK    4  A    between atoms: C_9  and  O_10
REMARK    5  A    between atoms: C_11  and  C_12
REMARK    6  A    between atoms: C_14  and  O_15
REMARK    7  A    between atoms: C_29  and  C_30
REMARK                            x       y       z     vdW  Elec       q    Type
REMARK                         _______ _______ _______ _____ _____    ______ ____
ROOT
ATOM      1  C   UNL     1      -8.034   3.737 129.741  0.00  0.00    +0.000 C 
ATOM      2  C   UNL     1      -8.047   2.750 130.759  0.00  0.00    +0.000 C 
ATOM      3  C   UNL     1      -8.134   4.181 131.210  0.00  0.00    +0.000 C 
ATOM      4  C   UNL     1      -8.704   5.593 129.804  0.00  0.00    +0.000 C 
ATOM      5  C   UNL     1      -9.411   4.753 130.588  0.00  0.00    +0.000 C 
ATOM      6  C   UNL     1     -10.760   4.174 130.380  0.00  0.00    +0.000 C 
ATOM      7  C   UNL     1      -8.905   6.033 131.875  0.00  0.00    +0.000 C 
ATOM      8  C   UNL     1      -7.329   6.645 131.539  0.00  0.00    +0.000 C 
ATOM      9  C   UNL     1      -6.093   5.623 131.107  0.00  0.00    +0.000 C 
ATOM     10  C   UNL     1      -6.456   4.652 129.739  0.00  0.00    +0.000 C 
ATOM     11  C   UNL     1      -5.370   3.622 129.516  0.00  0.00    +0.000 C 
ATOM     12  C   UNL     1      -3.999   4.254 129.470  0.00  0.00    +0.000 C 
ATOM     13  F   UNL     1      -3.098   3.247 129.314  0.00  0.00    +0.000 F 
ATOM     14  C   UNL     1      -3.637   5.138 130.631  0.00  0.00    +0.000 C 
ATOM     15  C   UNL     1      -2.445   5.099 131.257  0.00  0.00    +0.000 C 
ATOM     16  C   UNL     1      -2.264   6.194 132.243  0.00  0.00    +0.000 C 
ATOM     17  O   UNL     1      -1.589   7.206 132.121  0.00  0.00    +0.000 OA
ATOM     18  C   UNL     1      -3.196   6.038 133.414  0.00  0.00    +0.000 C 
ATOM     19  C   UNL     1      -4.224   6.510 132.658  0.00  0.00    +0.000 C 
ATOM     20  C   UNL     1      -4.641   6.197 131.100  0.00  0.00    +0.000 C 
ATOM     21  C   UNL     1      -4.664   7.269 130.001  0.00  0.00    +0.000 C 
ENDROOT
BRANCH   4  22
ATOM     22  O   UNL     1      -8.938   5.177 128.382  0.00  0.00    +0.000 OA
ATOM     23  H   UNL     1      -9.071   5.912 127.770  0.00  0.00    +0.000 HD
ENDBRANCH   4  22
BRANCH   4  24
ATOM     24  C   UNL     1     -10.010   6.897 129.674  0.00  0.00    +0.000 C 
ATOM     25  O   UNL     1      -9.924   7.879 128.915  0.00  0.00    +0.000 OA
BRANCH  24  26
ATOM     26  C   UNL     1     -11.315   7.000 130.611  0.00  0.00    +0.000 C 
BRANCH  26  27
ATOM     27  O   UNL     1     -12.519   7.278 129.838  0.00  0.00    +0.000 OA
ATOM     28  H   UNL     1     -12.496   8.217 129.562  0.00  0.00    +0.000 HD
ENDBRANCH  26  27
ENDBRANCH  24  26
ENDBRANCH   4  24
BRANCH   8  29
ATOM     29  O   UNL     1      -7.510   7.648 130.518  0.00  0.00    +0.000 OA
ATOM     30  H   UNL     1      -6.959   8.431 130.695  0.00  0.00    +0.000 HD
ENDBRANCH   8  29
TORSDOF 5
ENDMDL
MODEL 9
REMARK VINA RESULT:      -7.5      3.428      5.603
REMARK  Name = Fluprednisolone
REMARK  7 active torsions:
REMARK  status: ('A' for Active; 'I' for Inactive)
REMARK    1  A    between atoms: C_5  and  O_6
REMARK    2  A    between atoms: C_5  and  C_7
REMARK    3  A    between atoms: C_7  and  C_9
REMARK    4  A    between atoms: C_9  and  O_10
REMARK    5  A    between atoms: C_11  and  C_12
REMARK    6  A    between atoms: C_14  and  O_15
REMARK    7  A    between atoms: C_29  and  C_30
REMARK                            x       y       z     vdW  Elec       q    Type
REMARK                         _______ _______ _______ _____ _____    ______ ____
ROOT
ATOM      1  C   UNL     1      -7.897  -1.939 125.166  0.00  0.00    +0.000 C 
ATOM      2  C   UNL     1      -9.079  -2.643 125.506  0.00  0.00    +0.000 C 
ATOM      3  C   UNL     1      -9.108  -1.153 125.696  0.00  0.00    +0.000 C 
ATOM      4  C   UNL     1      -7.679  -0.035 124.693  0.00  0.00    +0.000 C 
ATOM      5  C   UNL     1      -8.872  -0.537 124.314  0.00  0.00    +0.000 C 
ATOM      6  C   UNL     1      -9.354  -0.915 122.963  0.00  0.00    +0.000 C 
ATOM      7  C   UNL     1      -9.460   0.906 125.373  0.00  0.00    +0.000 C 
ATOM      8  C   UNL     1      -8.404   1.149 126.713  0.00  0.00    +0.000 C 
ATOM      9  C   UNL     1      -7.849  -0.138 127.605  0.00  0.00    +0.000 C 
ATOM     10  C   UNL     1      -7.048  -1.328 126.662  0.00  0.00    +0.000 C 
ATOM     11  C   UNL     1      -6.737  -2.548 127.500  0.00  0.00    +0.000 C 
ATOM     12  C   UNL     1      -6.008  -2.184 128.771  0.00  0.00    +0.000 C 
ATOM     13  F   UNL     1      -5.818  -3.335 129.469  0.00  0.00    +0.000 F 
ATOM     14  C   UNL     1      -6.650  -1.125 129.625  0.00  0.00    +0.000 C 
ATOM     15  C   UNL     1      -6.770  -1.216 130.963  0.00  0.00    +0.000 C 
ATOM     16  C   UNL     1      -7.266   0.034 131.593  0.00  0.00    +0.000 C 
ATOM     17  O   UNL     1      -6.622   0.861 132.221  0.00  0.00    +0.000 OA
ATOM     18  C   UNL     1      -8.693   0.316 131.206  0.00  0.00    +0.000 C 
ATOM     19  C   UNL     1      -8.274   0.763 129.991  0.00  0.00    +0.000 C 
ATOM     20  C   UNL     1      -7.140   0.167 128.962  0.00  0.00    +0.000 C 
ATOM     21  C   UNL     1      -5.875   0.939 128.562  0.00  0.00    +0.000 C 
ENDROOT
BRANCH   4  22
ATOM     22  O   UNL     1      -6.626  -0.727 123.880  0.00  0.00    +0.000 OA
ATOM     23  H   UNL     1      -6.813  -0.759 122.933  0.00  0.00    +0.000 HD
ENDBRANCH   4  22
BRANCH   4  24
ATOM     24  C   UNL     1      -7.683   1.401 123.527  0.00  0.00    +0.000 C 
ATOM     25  O   UNL     1      -6.654   1.857 122.998  0.00  0.00    +0.000 OA
BRANCH  24  26
ATOM     26  C   UNL     1      -8.965   2.312 123.181  0.00  0.00    +0.000 C 
BRANCH  26  27
ATOM     27  O   UNL     1      -8.582   3.584 122.582  0.00  0.00    +0.000 OA
ATOM     28  H   UNL     1      -8.033   3.399 121.793  0.00  0.00    +0.000 HD
ENDBRANCH  26  27
ENDBRANCH  24  26
ENDBRANCH   4  24
BRANCH   8  29
ATOM     29  O   UNL     1      -7.286   1.900 126.196  0.00  0.00    +0.000 OA
ATOM     30  H   UNL     1      -7.588   2.691 125.714  0.00  0.00    +0.000 HD
ENDBRANCH   8  29
TORSDOF 5
ENDMDL
