MODEL 1
REMARK VINA RESULT:      -7.4      0.000      0.000
REMARK  Name = Flurbiprofen
REMARK  5 active torsions:
REMARK  status: ('A' for Active; 'I' for Inactive)
REMARK    1  A    between atoms: C_1  and  C_2
REMARK    2  A    between atoms: C_2  and  C_3
REMARK    3  A    between atoms: C_2  and  C_6
REMARK    4  A    between atoms: C_3  and  O_4
REMARK    5  A    between atoms: C_10  and  C_13
REMARK                            x       y       z     vdW  Elec       q    Type
REMARK                         _______ _______ _______ _____ _____    ______ ____
ROOT
ATOM      1  C   UNL     1     -11.657   7.808 129.598  0.00  0.00    +0.000 A 
ATOM      2  C   UNL     1     -10.266   7.737 129.607  0.00  0.00    +0.000 A 
ATOM      3  C   UNL     1      -9.570   6.902 130.451  0.00  0.00    +0.000 A 
ATOM      4  F   UNL     1      -8.231   6.947 130.394  0.00  0.00    +0.000 F 
ATOM      5  C   UNL     1     -10.225   6.112 131.367  0.00  0.00    +0.000 A 
ATOM      6  C   UNL     1     -11.625   6.123 131.379  0.00  0.00    +0.000 A 
ATOM      7  C   UNL     1     -12.331   6.941 130.491  0.00  0.00    +0.000 A 
ENDROOT
BRANCH   5   8
ATOM      8  C   UNL     1      -9.455   5.372 132.342  0.00  0.00    +0.000 A 
ATOM      9  C   UNL     1      -9.479   3.979 132.336  0.00  0.00    +0.000 A 
ATOM     10  C   UNL     1      -8.924   3.285 133.398  0.00  0.00    +0.000 A 
ATOM     11  C   UNL     1      -8.242   3.974 134.402  0.00  0.00    +0.000 A 
ATOM     12  C   UNL     1      -8.123   5.362 134.360  0.00  0.00    +0.000 A 
ATOM     13  C   UNL     1      -8.732   6.061 133.331  0.00  0.00    +0.000 A 
ENDBRANCH   5   8
BRANCH   1  15
ATOM     14  C   UNL     1     -13.576   7.992 128.016  0.00  0.00    +0.000 C 
ATOM     15  C   UNL     1     -12.482   8.788 128.766  0.00  0.00    +0.000 C 
BRANCH  15  16
ATOM     16  C   UNL     1     -13.179  10.024 129.347  0.00  0.00    +0.000 C 
ATOM     17  O   UNL     1     -13.161  10.231 130.567  0.00  0.00    +0.000 OA
BRANCH  16  18
ATOM     18  O   UNL     1     -13.821  10.925 128.601  0.00  0.00    +0.000 OA
ATOM     19  H   UNL     1     -13.534  11.142 127.710  0.00  0.00    +0.000 HD
ENDBRANCH  16  18
ENDBRANCH  15  16
ENDBRANCH   1  15
TORSDOF 4
ENDMDL
MODEL 2
REMARK VINA RESULT:      -7.2     10.354     11.114
REMARK  Name = Flurbiprofen
REMARK  5 active torsions:
REMARK  status: ('A' for Active; 'I' for Inactive)
REMARK    1  A    between atoms: C_1  and  C_2
REMARK    2  A    between atoms: C_2  and  C_3
REMARK    3  A    between atoms: C_2  and  C_6
REMARK    4  A    between atoms: C_3  and  O_4
REMARK    5  A    between atoms: C_10  and  C_13
REMARK                            x       y       z     vdW  Elec       q    Type
REMARK                         _______ _______ _______ _____ _____    ______ ____
ROOT
ATOM      1  C   UNL     1      -8.208  -2.590 125.569  0.00  0.00    +0.000 A 
ATOM      2  C   UNL     1      -9.005  -3.336 126.434  0.00  0.00    +0.000 A 
ATOM      3  C   UNL     1      -8.707  -3.495 127.768  0.00  0.00    +0.000 A 
ATOM      4  F   UNL     1      -9.530  -4.267 128.494  0.00  0.00    +0.000 F 
ATOM      5  C   UNL     1      -7.569  -2.947 128.312  0.00  0.00    +0.000 A 
ATOM      6  C   UNL     1      -6.749  -2.162 127.493  0.00  0.00    +0.000 A 
ATOM      7  C   UNL     1      -7.075  -1.966 126.147  0.00  0.00    +0.000 A 
ENDROOT
BRANCH   5   8
ATOM      8  C   UNL     1      -7.209  -3.270 129.674  0.00  0.00    +0.000 A 
ATOM      9  C   UNL     1      -7.771  -2.555 130.731  0.00  0.00    +0.000 A 
ATOM     10  C   UNL     1      -7.261  -2.718 132.008  0.00  0.00    +0.000 A 
ATOM     11  C   UNL     1      -6.275  -3.676 132.250  0.00  0.00    +0.000 A 
ATOM     12  C   UNL     1      -5.782  -4.468 131.215  0.00  0.00    +0.000 A 
ATOM     13  C   UNL     1      -6.247  -4.263 129.927  0.00  0.00    +0.000 A 
ENDBRANCH   5   8
BRANCH   1  15
ATOM     14  C   UNL     1      -9.521  -3.469 123.640  0.00  0.00    +0.000 C 
ATOM     15  C   UNL     1      -8.422  -2.465 124.062  0.00  0.00    +0.000 C 
BRANCH  15  16
ATOM     16  C   UNL     1      -8.756  -1.147 123.354  0.00  0.00    +0.000 C 
ATOM     17  O   UNL     1      -9.864  -0.989 122.825  0.00  0.00    +0.000 OA
BRANCH  16  18
ATOM     18  O   UNL     1      -7.906  -0.122 123.269  0.00  0.00    +0.000 OA
ATOM     19  H   UNL     1      -8.109   0.737 123.649  0.00  0.00    +0.000 HD
ENDBRANCH  16  18
ENDBRANCH  15  16
ENDBRANCH   1  15
TORSDOF 4
ENDMDL
MODEL 3
REMARK VINA RESULT:      -7.2     10.308     11.220
REMARK  Name = Flurbiprofen
REMARK  5 active torsions:
REMARK  status: ('A' for Active; 'I' for Inactive)
REMARK    1  A    between atoms: C_1  and  C_2
REMARK    2  A    between atoms: C_2  and  C_3
REMARK    3  A    between atoms: C_2  and  C_6
REMARK    4  A    between atoms: C_3  and  O_4
REMARK    5  A    between atoms: C_10  and  C_13
REMARK                            x       y       z     vdW  Elec       q    Type
REMARK                         _______ _______ _______ _____ _____    ______ ____
ROOT
ATOM      1  C   UNL     1      -8.481  -2.706 126.702  0.00  0.00    +0.000 A 
ATOM      2  C   UNL     1      -7.279  -2.160 127.146  0.00  0.00    +0.000 A 
ATOM      3  C   UNL     1      -6.685  -2.535 128.330  0.00  0.00    +0.000 A 
ATOM      4  F   UNL     1      -5.546  -1.914 128.671  0.00  0.00    +0.000 F 
ATOM      5  C   UNL     1      -7.279  -3.455 129.162  0.00  0.00    +0.000 A 
ATOM      6  C   UNL     1      -8.474  -4.056 128.748  0.00  0.00    +0.000 A 
ATOM      7  C   UNL     1      -9.054  -3.705 127.525  0.00  0.00    +0.000 A 
ENDROOT
BRANCH   5   8
ATOM      8  C   UNL     1      -6.708  -3.702 130.467  0.00  0.00    +0.000 A 
ATOM      9  C   UNL     1      -5.711  -4.664 130.619  0.00  0.00    +0.000 A 
ATOM     10  C   UNL     1      -5.328  -5.049 131.892  0.00  0.00    +0.000 A 
ATOM     11  C   UNL     1      -5.851  -4.394 133.008  0.00  0.00    +0.000 A 
ATOM     12  C   UNL     1      -6.772  -3.358 132.859  0.00  0.00    +0.000 A 
ATOM     13  C   UNL     1      -7.202  -3.015 131.589  0.00  0.00    +0.000 A 
ENDBRANCH   5   8
BRANCH   1  15
ATOM     14  C   UNL     1      -8.950  -0.756 125.219  0.00  0.00    +0.000 C 
ATOM     15  C   UNL     1      -9.244  -2.256 125.457  0.00  0.00    +0.000 C 
BRANCH  15  16
ATOM     16  C   UNL     1      -9.121  -2.936 124.089  0.00  0.00    +0.000 C 
ATOM     17  O   UNL     1      -8.013  -3.048 123.548  0.00  0.00    +0.000 OA
BRANCH  16  18
ATOM     18  O   UNL     1     -10.162  -3.434 123.419  0.00  0.00    +0.000 OA
ATOM     19  H   UNL     1     -10.645  -2.911 122.773  0.00  0.00    +0.000 HD
ENDBRANCH  16  18
ENDBRANCH  15  16
ENDBRANCH   1  15
TORSDOF 4
ENDMDL
MODEL 4
REMARK VINA RESULT:      -6.9      1.939      2.464
REMARK  Name = Flurbiprofen
REMARK  5 active torsions:
REMARK  status: ('A' for Active; 'I' for Inactive)
REMARK    1  A    between atoms: C_1  and  C_2
REMARK    2  A    between atoms: C_2  and  C_3
REMARK    3  A    between atoms: C_2  and  C_6
REMARK    4  A    between atoms: C_3  and  O_4
REMARK    5  A    between atoms: C_10  and  C_13
REMARK                            x       y       z     vdW  Elec       q    Type
REMARK                         _______ _______ _______ _____ _____    ______ ____
ROOT
ATOM      1  C   UNL     1     -11.535   6.690 129.512  0.00  0.00    +0.000 A 
ATOM      2  C   UNL     1     -10.360   5.963 129.344  0.00  0.00    +0.000 A 
ATOM      3  C   UNL     1      -9.675   5.402 130.398  0.00  0.00    +0.000 A 
ATOM      4  F   UNL     1      -8.534   4.755 130.116  0.00  0.00    +0.000 F 
ATOM      5  C   UNL     1     -10.106   5.567 131.693  0.00  0.00    +0.000 A 
ATOM      6  C   UNL     1     -11.300   6.264 131.916  0.00  0.00    +0.000 A 
ATOM      7  C   UNL     1     -12.017   6.797 130.840  0.00  0.00    +0.000 A 
ENDROOT
BRANCH   5   8
ATOM      8  C   UNL     1      -9.276   5.101 132.781  0.00  0.00    +0.000 A 
ATOM      9  C   UNL     1      -8.452   5.997 133.460  0.00  0.00    +0.000 A 
ATOM     10  C   UNL     1      -7.504   5.511 134.345  0.00  0.00    +0.000 A 
ATOM     11  C   UNL     1      -7.458   4.147 134.639  0.00  0.00    +0.000 A 
ATOM     12  C   UNL     1      -8.349   3.258 134.041  0.00  0.00    +0.000 A 
ATOM     13  C   UNL     1      -9.256   3.735 133.110  0.00  0.00    +0.000 A 
ENDBRANCH   5   8
BRANCH   1  15
ATOM     14  C   UNL     1     -12.453   8.904 128.825  0.00  0.00    +0.000 C 
ATOM     15  C   UNL     1     -12.281   7.427 128.401  0.00  0.00    +0.000 C 
BRANCH  15  16
ATOM     16  C   UNL     1     -11.823   7.454 126.939  0.00  0.00    +0.000 C 
ATOM     17  O   UNL     1     -10.913   8.216 126.588  0.00  0.00    +0.000 OA
BRANCH  16  18
ATOM     18  O   UNL     1     -12.355   6.685 125.987  0.00  0.00    +0.000 OA
ATOM     19  H   UNL     1     -13.303   6.657 125.831  0.00  0.00    +0.000 HD
ENDBRANCH  16  18
ENDBRANCH  15  16
ENDBRANCH   1  15
TORSDOF 4
ENDMDL
MODEL 5
REMARK VINA RESULT:      -6.8      8.687      9.591
REMARK  Name = Flurbiprofen
REMARK  5 active torsions:
REMARK  status: ('A' for Active; 'I' for Inactive)
REMARK    1  A    between atoms: C_1  and  C_2
REMARK    2  A    between atoms: C_2  and  C_3
REMARK    3  A    between atoms: C_2  and  C_6
REMARK    4  A    between atoms: C_3  and  O_4
REMARK    5  A    between atoms: C_10  and  C_13
REMARK                            x       y       z     vdW  Elec       q    Type
REMARK                         _______ _______ _______ _____ _____    ______ ____
ROOT
ATOM      1  C   UNL     1      -2.890   4.545 127.958  0.00  0.00    +0.000 A 
ATOM      2  C   UNL     1      -3.099   4.068 129.249  0.00  0.00    +0.000 A 
ATOM      3  C   UNL     1      -2.865   4.832 130.371  0.00  0.00    +0.000 A 
ATOM      4  F   UNL     1      -3.068   4.252 131.563  0.00  0.00    +0.000 F 
ATOM      5  C   UNL     1      -2.369   6.111 130.268  0.00  0.00    +0.000 A 
ATOM      6  C   UNL     1      -2.170   6.649 128.991  0.00  0.00    +0.000 A 
ATOM      7  C   UNL     1      -2.449   5.886 127.852  0.00  0.00    +0.000 A 
ENDROOT
BRANCH   5   8
ATOM      8  C   UNL     1      -1.986   6.820 131.468  0.00  0.00    +0.000 A 
ATOM      9  C   UNL     1      -2.822   7.804 131.992  0.00  0.00    +0.000 A 
ATOM     10  C   UNL     1      -2.353   8.626 133.003  0.00  0.00    +0.000 A 
ATOM     11  C   UNL     1      -1.099   8.389 133.570  0.00  0.00    +0.000 A 
ATOM     12  C   UNL     1      -0.300   7.340 133.121  0.00  0.00    +0.000 A 
ATOM     13  C   UNL     1      -0.742   6.557 132.068  0.00  0.00    +0.000 A 
ENDBRANCH   5   8
BRANCH   1  15
ATOM     14  C   UNL     1      -1.695   2.966 126.442  0.00  0.00    +0.000 C 
ATOM     15  C   UNL     1      -3.026   3.716 126.681  0.00  0.00    +0.000 C 
BRANCH  15  16
ATOM     16  C   UNL     1      -4.140   2.691 126.445  0.00  0.00    +0.000 C 
ATOM     17  O   UNL     1      -5.126   2.992 125.760  0.00  0.00    +0.000 OA
BRANCH  16  18
ATOM     18  O   UNL     1      -4.118   1.452 126.941  0.00  0.00    +0.000 OA
ATOM     19  H   UNL     1      -4.859   0.850 126.830  0.00  0.00    +0.000 HD
ENDBRANCH  16  18
ENDBRANCH  15  16
ENDBRANCH   1  15
TORSDOF 4
ENDMDL
MODEL 6
REMARK VINA RESULT:      -6.8      8.945      9.752
REMARK  Name = Flurbiprofen
REMARK  5 active torsions:
REMARK  status: ('A' for Active; 'I' for Inactive)
REMARK    1  A    between atoms: C_1  and  C_2
REMARK    2  A    between atoms: C_2  and  C_3
REMARK    3  A    between atoms: C_2  and  C_6
REMARK    4  A    between atoms: C_3  and  O_4
REMARK    5  A    between atoms: C_10  and  C_13
REMARK                            x       y       z     vdW  Elec       q    Type
REMARK                         _______ _______ _______ _____ _____    ______ ____
ROOT
ATOM      1  C   UNL     1      -6.504   3.817 121.473  0.00  0.00    +0.000 A 
ATOM      2  C   UNL     1      -5.623   3.920 122.546  0.00  0.00    +0.000 A 
ATOM      3  C   UNL     1      -5.989   3.623 123.840  0.00  0.00    +0.000 A 
ATOM      4  F   UNL     1      -5.064   3.795 124.796  0.00  0.00    +0.000 F 
ATOM      5  C   UNL     1      -7.275   3.241 124.144  0.00  0.00    +0.000 A 
ATOM      6  C   UNL     1      -8.193   3.093 123.097  0.00  0.00    +0.000 A 
ATOM      7  C   UNL     1      -7.807   3.354 121.778  0.00  0.00    +0.000 A 
ENDROOT
BRANCH   5   8
ATOM      8  C   UNL     1      -7.661   3.095 125.529  0.00  0.00    +0.000 A 
ATOM      9  C   UNL     1      -7.644   4.202 126.377  0.00  0.00    +0.000 A 
ATOM     10  C   UNL     1      -7.799   4.016 127.740  0.00  0.00    +0.000 A 
ATOM     11  C   UNL     1      -8.088   2.746 128.243  0.00  0.00    +0.000 A 
ATOM     12  C   UNL     1      -8.210   1.652 127.389  0.00  0.00    +0.000 A 
ATOM     13  C   UNL     1      -7.994   1.826 126.033  0.00  0.00    +0.000 A 
ENDBRANCH   5   8
BRANCH   1  15
ATOM     14  C   UNL     1      -7.514   4.232 119.231  0.00  0.00    +0.000 C 
ATOM     15  C   UNL     1      -6.193   4.233 120.036  0.00  0.00    +0.000 C 
BRANCH  15  16
ATOM     16  C   UNL     1      -5.468   5.530 119.662  0.00  0.00    +0.000 C 
ATOM     17  O   UNL     1      -5.690   6.074 118.573  0.00  0.00    +0.000 OA
BRANCH  16  18
ATOM     18  O   UNL     1      -4.585   6.136 120.459  0.00  0.00    +0.000 OA
ATOM     19  H   UNL     1      -4.537   7.093 120.525  0.00  0.00    +0.000 HD
ENDBRANCH  16  18
ENDBRANCH  15  16
ENDBRANCH   1  15
TORSDOF 4
ENDMDL
MODEL 7
REMARK VINA RESULT:      -6.6     10.776     12.609
REMARK  Name = Flurbiprofen
REMARK  5 active torsions:
REMARK  status: ('A' for Active; 'I' for Inactive)
REMARK    1  A    between atoms: C_1  and  C_2
REMARK    2  A    between atoms: C_2  and  C_3
REMARK    3  A    between atoms: C_2  and  C_6
REMARK    4  A    between atoms: C_3  and  O_4
REMARK    5  A    between atoms: C_10  and  C_13
REMARK                            x       y       z     vdW  Elec       q    Type
REMARK                         _______ _______ _______ _____ _____    ______ ____
ROOT
ATOM      1  C   UNL     1      -6.340  -3.161 129.618  0.00  0.00    +0.000 A 
ATOM      2  C   UNL     1      -5.694  -2.586 128.527  0.00  0.00    +0.000 A 
ATOM      3  C   UNL     1      -6.341  -2.301 127.345  0.00  0.00    +0.000 A 
ATOM      4  F   UNL     1      -5.606  -1.781 126.352  0.00  0.00    +0.000 F 
ATOM      5  C   UNL     1      -7.669  -2.612 127.171  0.00  0.00    +0.000 A 
ATOM      6  C   UNL     1      -8.373  -3.164 128.248  0.00  0.00    +0.000 A 
ATOM      7  C   UNL     1      -7.724  -3.413 129.462  0.00  0.00    +0.000 A 
ENDROOT
BRANCH   5   8
ATOM      8  C   UNL     1      -8.269  -2.446 125.866  0.00  0.00    +0.000 A 
ATOM      9  C   UNL     1      -8.501  -3.559 125.060  0.00  0.00    +0.000 A 
ATOM     10  C   UNL     1      -8.867  -3.376 123.737  0.00  0.00    +0.000 A 
ATOM     11  C   UNL     1      -9.116  -2.090 123.254  0.00  0.00    +0.000 A 
ATOM     12  C   UNL     1      -8.987  -0.979 124.084  0.00  0.00    +0.000 A 
ATOM     13  C   UNL     1      -8.562  -1.157 125.389  0.00  0.00    +0.000 A 
ENDBRANCH   5   8
BRANCH   1  15
ATOM     14  C   UNL     1      -5.528  -5.141 130.898  0.00  0.00    +0.000 C 
ATOM     15  C   UNL     1      -5.658  -3.600 130.913  0.00  0.00    +0.000 C 
BRANCH  15  16
ATOM     16  C   UNL     1      -4.303  -3.064 131.388  0.00  0.00    +0.000 C 
ATOM     17  O   UNL     1      -3.260  -3.662 131.093  0.00  0.00    +0.000 OA
BRANCH  16  18
ATOM     18  O   UNL     1      -4.166  -1.956 132.120  0.00  0.00    +0.000 OA
ATOM     19  H   UNL     1      -4.870  -1.305 132.189  0.00  0.00    +0.000 HD
ENDBRANCH  16  18
ENDBRANCH  15  16
ENDBRANCH   1  15
TORSDOF 4
ENDMDL
MODEL 8
REMARK VINA RESULT:      -6.5      4.103      7.010
REMARK  Name = Flurbiprofen
REMARK  5 active torsions:
REMARK  status: ('A' for Active; 'I' for Inactive)
REMARK    1  A    between atoms: C_1  and  C_2
REMARK    2  A    between atoms: C_2  and  C_3
REMARK    3  A    between atoms: C_2  and  C_6
REMARK    4  A    between atoms: C_3  and  O_4
REMARK    5  A    between atoms: C_10  and  C_13
REMARK                            x       y       z     vdW  Elec       q    Type
REMARK                         _______ _______ _______ _____ _____    ______ ____
ROOT
ATOM      1  C   UNL     1      -8.261   4.736 132.089  0.00  0.00    +0.000 A 
ATOM      2  C   UNL     1      -9.410   4.231 131.486  0.00  0.00    +0.000 A 
ATOM      3  C   UNL     1     -10.216   4.991 130.668  0.00  0.00    +0.000 A 
ATOM      4  F   UNL     1     -11.316   4.406 130.173  0.00  0.00    +0.000 F 
ATOM      5  C   UNL     1      -9.939   6.318 130.433  0.00  0.00    +0.000 A 
ATOM      6  C   UNL     1      -8.779   6.867 130.992  0.00  0.00    +0.000 A 
ATOM      7  C   UNL     1      -7.939   6.082 131.789  0.00  0.00    +0.000 A 
ENDROOT
BRANCH   5   8
ATOM      8  C   UNL     1     -10.893   7.121 129.702  0.00  0.00    +0.000 A 
ATOM      9  C   UNL     1     -10.667   7.418 128.359  0.00  0.00    +0.000 A 
ATOM     10  C   UNL     1     -11.462   8.362 127.730  0.00  0.00    +0.000 A 
ATOM     11  C   UNL     1     -12.551   8.918 128.403  0.00  0.00    +0.000 A 
ATOM     12  C   UNL     1     -12.845   8.546 129.713  0.00  0.00    +0.000 A 
ATOM     13  C   UNL     1     -12.015   7.650 130.363  0.00  0.00    +0.000 A 
ENDBRANCH   5   8
BRANCH   1  15
ATOM     14  C   UNL     1      -8.052   4.073 134.484  0.00  0.00    +0.000 C 
ATOM     15  C   UNL     1      -7.388   3.981 133.090  0.00  0.00    +0.000 C 
BRANCH  15  16
ATOM     16  C   UNL     1      -6.962   2.519 132.918  0.00  0.00    +0.000 C 
ATOM     17  O   UNL     1      -7.461   1.638 133.630  0.00  0.00    +0.000 OA
BRANCH  16  18
ATOM     18  O   UNL     1      -6.062   2.116 132.019  0.00  0.00    +0.000 OA
ATOM     19  H   UNL     1      -6.234   1.378 131.427  0.00  0.00    +0.000 HD
ENDBRANCH  16  18
ENDBRANCH  15  16
ENDBRANCH   1  15
TORSDOF 4
ENDMDL
MODEL 9
REMARK VINA RESULT:      -6.4     10.137     12.254
REMARK  Name = Flurbiprofen
REMARK  5 active torsions:
REMARK  status: ('A' for Active; 'I' for Inactive)
REMARK    1  A    between atoms: C_1  and  C_2
REMARK    2  A    between atoms: C_2  and  C_3
REMARK    3  A    between atoms: C_2  and  C_6
REMARK    4  A    between atoms: C_3  and  O_4
REMARK    5  A    between atoms: C_10  and  C_13
REMARK                            x       y       z     vdW  Elec       q    Type
REMARK                         _______ _______ _______ _____ _____    ______ ____
ROOT
ATOM      1  C   UNL     1      -7.188  -3.288 129.467  0.00  0.00    +0.000 A 
ATOM      2  C   UNL     1      -8.399  -3.741 128.950  0.00  0.00    +0.000 A 
ATOM      3  C   UNL     1      -8.788  -3.506 127.651  0.00  0.00    +0.000 A 
ATOM      4  F   UNL     1      -9.993  -3.960 127.277  0.00  0.00    +0.000 F 
ATOM      5  C   UNL     1      -8.001  -2.767 126.797  0.00  0.00    +0.000 A 
ATOM      6  C   UNL     1      -6.759  -2.313 127.258  0.00  0.00    +0.000 A 
ATOM      7  C   UNL     1      -6.348  -2.590 128.566  0.00  0.00    +0.000 A 
ENDROOT
BRANCH   5   8
ATOM      8  C   UNL     1      -8.515  -2.406 125.495  0.00  0.00    +0.000 A 
ATOM      9  C   UNL     1      -8.809  -3.399 124.563  0.00  0.00    +0.000 A 
ATOM     10  C   UNL     1      -9.087  -3.042 123.255  0.00  0.00    +0.000 A 
ATOM     11  C   UNL     1      -9.189  -1.695 122.905  0.00  0.00    +0.000 A 
ATOM     12  C   UNL     1      -9.000  -0.695 123.857  0.00  0.00    +0.000 A 
ATOM     13  C   UNL     1      -8.660  -1.051 125.151  0.00  0.00    +0.000 A 
ENDBRANCH   5   8
BRANCH   1  15
ATOM     14  C   UNL     1      -5.445  -4.253 130.966  0.00  0.00    +0.000 C 
ATOM     15  C   UNL     1      -6.748  -3.421 130.924  0.00  0.00    +0.000 C 
BRANCH  15  16
ATOM     16  C   UNL     1      -6.522  -2.228 131.859  0.00  0.00    +0.000 C 
ATOM     17  O   UNL     1      -5.393  -1.736 131.977  0.00  0.00    +0.000 OA
BRANCH  16  18
ATOM     18  O   UNL     1      -7.494  -1.662 132.577  0.00  0.00    +0.000 OA
ATOM     19  H   UNL     1      -7.924  -2.125 133.301  0.00  0.00    +0.000 HD
ENDBRANCH  16  18
ENDBRANCH  15  16
ENDBRANCH   1  15
TORSDOF 4
ENDMDL
