MODEL 1
REMARK VINA RESULT:      -8.1      0.000      0.000
REMARK  Name = Flurazepam
REMARK  8 active torsions:
REMARK  status: ('A' for Active; 'I' for Inactive)
REMARK    1  A    between atoms: C_1  and  C_2
REMARK    2  A    between atoms: C_2  and  N_3
REMARK    3  A    between atoms: N_3  and  C_4
REMARK    4  A    between atoms: N_3  and  C_6
REMARK    5  A    between atoms: C_4  and  C_5
REMARK    6  A    between atoms: C_6  and  C_7
REMARK    7  A    between atoms: C_7  and  N_8
REMARK    8  A    between atoms: C_16  and  C_21
REMARK                            x       y       z     vdW  Elec       q    Type
REMARK                         _______ _______ _______ _____ _____    ______ ____
ROOT
ATOM      1  N   UNL     1      -7.934   0.544 125.053  0.00  0.00    +0.000 N 
ATOM      2  C   UNL     1      -7.308   1.798 125.325  0.00  0.00    +0.000 A 
ATOM      3  C   UNL     1      -7.312   2.872 124.420  0.00  0.00    +0.000 A 
ATOM      4  C   UNL     1      -6.599   4.049 124.720  0.00  0.00    +0.000 A 
ATOM      5  C   UNL     1      -5.897   4.165 125.915  0.00  0.00    +0.000 A 
ATOM      6 CL   UNL     1      -5.037   5.611 126.266  0.00  0.00    +0.000 Cl
ATOM      7  C   UNL     1      -5.892   3.123 126.827  0.00  0.00    +0.000 A 
ATOM      8  C   UNL     1      -6.587   1.951 126.530  0.00  0.00    +0.000 A 
ATOM      9  C   UNL     1      -7.967   2.792 123.081  0.00  0.00    +0.000 C 
ATOM     10  N   UNL     1      -9.125   2.273 122.849  0.00  0.00    +0.000 NA
ATOM     11  C   UNL     1      -9.860   1.665 123.960  0.00  0.00    +0.000 C 
ATOM     12  C   UNL     1      -9.167   0.393 124.418  0.00  0.00    +0.000 C 
ATOM     13  O   UNL     1      -9.722  -0.696 124.300  0.00  0.00    +0.000 OA
ENDROOT
BRANCH   9  14
ATOM     14  C   UNL     1      -7.224   3.351 121.918  0.00  0.00    +0.000 A 
ATOM     15  C   UNL     1      -5.828   3.429 121.928  0.00  0.00    +0.000 A 
ATOM     16  C   UNL     1      -5.165   4.023 120.849  0.00  0.00    +0.000 A 
ATOM     17  C   UNL     1      -5.886   4.450 119.730  0.00  0.00    +0.000 A 
ATOM     18  C   UNL     1      -7.270   4.285 119.687  0.00  0.00    +0.000 A 
ATOM     19  C   UNL     1      -7.936   3.790 120.801  0.00  0.00    +0.000 A 
ATOM     20  F   UNL     1      -9.276   3.742 120.782  0.00  0.00    +0.000 F 
ENDBRANCH   9  14
BRANCH   1  21
ATOM     21  C   UNL     1      -7.257  -0.678 125.488  0.00  0.00    +0.000 C 
BRANCH  21  22
ATOM     22  C   UNL     1      -6.226  -1.180 124.449  0.00  0.00    +0.000 C 
BRANCH  22  23
ATOM     23  N   UNL     1      -6.120  -2.661 124.365  0.00  0.00    +0.000 NA
BRANCH  23  25
ATOM     24  C   UNL     1      -8.154  -4.113 124.786  0.00  0.00    +0.000 C 
ATOM     25  C   UNL     1      -7.405  -3.178 123.846  0.00  0.00    +0.000 C 
ENDBRANCH  23  25
BRANCH  23  26
ATOM     26  C   UNL     1      -4.950  -3.028 123.542  0.00  0.00    +0.000 C 
ATOM     27  C   UNL     1      -4.414  -4.436 123.722  0.00  0.00    +0.000 C 
ENDBRANCH  23  26
ENDBRANCH  22  23
ENDBRANCH  21  22
ENDBRANCH   1  21
TORSDOF 6
ENDMDL
MODEL 2
REMARK VINA RESULT:      -8.0      3.238      5.783
REMARK  Name = Flurazepam
REMARK  8 active torsions:
REMARK  status: ('A' for Active; 'I' for Inactive)
REMARK    1  A    between atoms: C_1  and  C_2
REMARK    2  A    between atoms: C_2  and  N_3
REMARK    3  A    between atoms: N_3  and  C_4
REMARK    4  A    between atoms: N_3  and  C_6
REMARK    5  A    between atoms: C_4  and  C_5
REMARK    6  A    between atoms: C_6  and  C_7
REMARK    7  A    between atoms: C_7  and  N_8
REMARK    8  A    between atoms: C_16  and  C_21
REMARK                            x       y       z     vdW  Elec       q    Type
REMARK                         _______ _______ _______ _____ _____    ______ ____
ROOT
ATOM      1  N   UNL     1      -5.688   4.151 125.269  0.00  0.00    +0.000 N 
ATOM      2  C   UNL     1      -5.925   4.107 123.861  0.00  0.00    +0.000 A 
ATOM      3  C   UNL     1      -7.037   3.469 123.288  0.00  0.00    +0.000 A 
ATOM      4  C   UNL     1      -7.158   3.389 121.887  0.00  0.00    +0.000 A 
ATOM      5  C   UNL     1      -6.190   3.949 121.060  0.00  0.00    +0.000 A 
ATOM      6 CL   UNL     1      -6.358   3.846 119.353  0.00  0.00    +0.000 Cl
ATOM      7  C   UNL     1      -5.093   4.594 121.606  0.00  0.00    +0.000 A 
ATOM      8  C   UNL     1      -4.962   4.666 122.992  0.00  0.00    +0.000 A 
ATOM      9  C   UNL     1      -8.072   2.770 124.105  0.00  0.00    +0.000 C 
ATOM     10  N   UNL     1      -8.586   3.221 125.199  0.00  0.00    +0.000 NA
ATOM     11  C   UNL     1      -8.103   4.496 125.731  0.00  0.00    +0.000 C 
ATOM     12  C   UNL     1      -6.676   4.352 126.233  0.00  0.00    +0.000 C 
ATOM     13  O   UNL     1      -6.418   4.493 127.425  0.00  0.00    +0.000 OA
ENDROOT
BRANCH   9  14
ATOM     14  C   UNL     1      -8.546   1.443 123.623  0.00  0.00    +0.000 A 
ATOM     15  C   UNL     1      -9.768   1.316 122.955  0.00  0.00    +0.000 A 
ATOM     16  C   UNL     1     -10.216   0.045 122.577  0.00  0.00    +0.000 A 
ATOM     17  C   UNL     1      -9.406  -1.075 122.783  0.00  0.00    +0.000 A 
ATOM     18  C   UNL     1      -8.148  -0.929 123.367  0.00  0.00    +0.000 A 
ATOM     19  C   UNL     1      -7.749   0.317 123.834  0.00  0.00    +0.000 A 
ATOM     20  F   UNL     1      -6.584   0.416 124.490  0.00  0.00    +0.000 F 
ENDBRANCH   9  14
BRANCH   1  21
ATOM     21  C   UNL     1      -4.314   4.003 125.747  0.00  0.00    +0.000 C 
BRANCH  21  22
ATOM     22  C   UNL     1      -4.054   2.608 126.364  0.00  0.00    +0.000 C 
BRANCH  22  23
ATOM     23  N   UNL     1      -3.294   2.641 127.642  0.00  0.00    +0.000 NA
BRANCH  23  25
ATOM     24  C   UNL     1      -3.045   4.621 129.205  0.00  0.00    +0.000 C 
ATOM     25  C   UNL     1      -2.788   4.018 127.831  0.00  0.00    +0.000 C 
ENDBRANCH  23  25
BRANCH  23  26
ATOM     26  C   UNL     1      -4.155   2.164 128.742  0.00  0.00    +0.000 C 
ATOM     27  C   UNL     1      -5.313   1.263 128.350  0.00  0.00    +0.000 C 
ENDBRANCH  23  26
ENDBRANCH  22  23
ENDBRANCH  21  22
ENDBRANCH   1  21
TORSDOF 6
ENDMDL
MODEL 3
REMARK VINA RESULT:      -8.0      3.805      7.531
REMARK  Name = Flurazepam
REMARK  8 active torsions:
REMARK  status: ('A' for Active; 'I' for Inactive)
REMARK    1  A    between atoms: C_1  and  C_2
REMARK    2  A    between atoms: C_2  and  N_3
REMARK    3  A    between atoms: N_3  and  C_4
REMARK    4  A    between atoms: N_3  and  C_6
REMARK    5  A    between atoms: C_4  and  C_5
REMARK    6  A    between atoms: C_6  and  C_7
REMARK    7  A    between atoms: C_7  and  N_8
REMARK    8  A    between atoms: C_16  and  C_21
REMARK                            x       y       z     vdW  Elec       q    Type
REMARK                         _______ _______ _______ _____ _____    ______ ____
ROOT
ATOM      1  N   UNL     1      -7.695   0.136 124.255  0.00  0.00    +0.000 N 
ATOM      2  C   UNL     1      -6.979  -1.093 124.122  0.00  0.00    +0.000 A 
ATOM      3  C   UNL     1      -6.858  -2.028 125.162  0.00  0.00    +0.000 A 
ATOM      4  C   UNL     1      -6.062  -3.178 124.986  0.00  0.00    +0.000 A 
ATOM      5  C   UNL     1      -5.401  -3.404 123.784  0.00  0.00    +0.000 A 
ATOM      6 CL   UNL     1      -4.439  -4.813 123.587  0.00  0.00    +0.000 Cl
ATOM      7  C   UNL     1      -5.519  -2.500 122.741  0.00  0.00    +0.000 A 
ATOM      8  C   UNL     1      -6.296  -1.354 122.914  0.00  0.00    +0.000 A 
ATOM      9  C   UNL     1      -7.464  -1.816 126.509  0.00  0.00    +0.000 C 
ATOM     10  N   UNL     1      -8.651  -1.360 126.727  0.00  0.00    +0.000 NA
ATOM     11  C   UNL     1      -9.477  -0.969 125.584  0.00  0.00    +0.000 C 
ATOM     12  C   UNL     1      -8.910   0.277 124.925  0.00  0.00    +0.000 C 
ATOM     13  O   UNL     1      -9.549   1.326 124.923  0.00  0.00    +0.000 OA
ENDROOT
BRANCH   9  14
ATOM     14  C   UNL     1      -6.632  -2.150 127.697  0.00  0.00    +0.000 A 
ATOM     15  C   UNL     1      -5.425  -1.486 127.939  0.00  0.00    +0.000 A 
ATOM     16  C   UNL     1      -4.634  -1.873 129.027  0.00  0.00    +0.000 A 
ATOM     17  C   UNL     1      -5.089  -2.851 129.915  0.00  0.00    +0.000 A 
ATOM     18  C   UNL     1      -6.336  -3.445 129.720  0.00  0.00    +0.000 A 
ATOM     19  C   UNL     1      -7.074  -3.134 128.584  0.00  0.00    +0.000 A 
ATOM     20  F   UNL     1      -8.218  -3.795 128.357  0.00  0.00    +0.000 F 
ENDBRANCH   9  14
BRANCH   1  21
ATOM     21  C   UNL     1      -7.139   1.334 123.626  0.00  0.00    +0.000 C 
BRANCH  21  22
ATOM     22  C   UNL     1      -6.326   2.195 124.621  0.00  0.00    +0.000 C 
BRANCH  22  23
ATOM     23  N   UNL     1      -5.874   3.499 124.067  0.00  0.00    +0.000 NA
BRANCH  23  25
ATOM     24  C   UNL     1      -5.387   4.095 121.652  0.00  0.00    +0.000 C 
ATOM     25  C   UNL     1      -6.393   3.608 122.686  0.00  0.00    +0.000 C 
ENDBRANCH  23  25
BRANCH  23  26
ATOM     26  C   UNL     1      -6.308   4.593 124.958  0.00  0.00    +0.000 C 
ATOM     27  C   UNL     1      -7.727   4.504 125.492  0.00  0.00    +0.000 C 
ENDBRANCH  23  26
ENDBRANCH  22  23
ENDBRANCH  21  22
ENDBRANCH   1  21
TORSDOF 6
ENDMDL
MODEL 4
REMARK VINA RESULT:      -7.8      2.838      5.777
REMARK  Name = Flurazepam
REMARK  8 active torsions:
REMARK  status: ('A' for Active; 'I' for Inactive)
REMARK    1  A    between atoms: C_1  and  C_2
REMARK    2  A    between atoms: C_2  and  N_3
REMARK    3  A    between atoms: N_3  and  C_4
REMARK    4  A    between atoms: N_3  and  C_6
REMARK    5  A    between atoms: C_4  and  C_5
REMARK    6  A    between atoms: C_6  and  C_7
REMARK    7  A    between atoms: C_7  and  N_8
REMARK    8  A    between atoms: C_16  and  C_21
REMARK                            x       y       z     vdW  Elec       q    Type
REMARK                         _______ _______ _______ _____ _____    ______ ____
ROOT
ATOM      1  N   UNL     1      -6.963   2.599 127.369  0.00  0.00    +0.000 N 
ATOM      2  C   UNL     1      -6.773   2.864 125.979  0.00  0.00    +0.000 A 
ATOM      3  C   UNL     1      -7.007   1.910 124.975  0.00  0.00    +0.000 A 
ATOM      4  C   UNL     1      -6.713   2.215 123.631  0.00  0.00    +0.000 A 
ATOM      5  C   UNL     1      -6.203   3.462 123.284  0.00  0.00    +0.000 A 
ATOM      6 CL   UNL     1      -5.856   3.817 121.639  0.00  0.00    +0.000 Cl
ATOM      7  C   UNL     1      -5.979   4.421 124.257  0.00  0.00    +0.000 A 
ATOM      8  C   UNL     1      -6.256   4.120 125.591  0.00  0.00    +0.000 A 
ATOM      9  C   UNL     1      -7.469   0.523 125.276  0.00  0.00    +0.000 C 
ATOM     10  N   UNL     1      -8.389   0.214 126.126  0.00  0.00    +0.000 NA
ATOM     11  C   UNL     1      -9.016   1.282 126.906  0.00  0.00    +0.000 C 
ATOM     12  C   UNL     1      -8.024   1.864 127.898  0.00  0.00    +0.000 C 
ATOM     13  O   UNL     1      -8.212   1.751 129.107  0.00  0.00    +0.000 OA
ENDROOT
BRANCH   9  14
ATOM     14  C   UNL     1      -6.814  -0.594 124.542  0.00  0.00    +0.000 A 
ATOM     15  C   UNL     1      -5.656  -1.199 125.039  0.00  0.00    +0.000 A 
ATOM     16  C   UNL     1      -5.027  -2.199 124.290  0.00  0.00    +0.000 A 
ATOM     17  C   UNL     1      -5.602  -2.652 123.099  0.00  0.00    +0.000 A 
ATOM     18  C   UNL     1      -6.807  -2.108 122.655  0.00  0.00    +0.000 A 
ATOM     19  C   UNL     1      -7.376  -1.046 123.346  0.00  0.00    +0.000 A 
ATOM     20  F   UNL     1      -8.475  -0.464 122.844  0.00  0.00    +0.000 F 
ENDBRANCH   9  14
BRANCH   1  21
ATOM     21  C   UNL     1      -5.999   3.153 128.319  0.00  0.00    +0.000 C 
BRANCH  21  22
ATOM     22  C   UNL     1      -4.663   2.374 128.322  0.00  0.00    +0.000 C 
BRANCH  22  23
ATOM     23  N   UNL     1      -3.463   3.223 128.094  0.00  0.00    +0.000 NA
BRANCH  23  25
ATOM     24  C   UNL     1      -1.488   2.934 126.533  0.00  0.00    +0.000 C 
ATOM     25  C   UNL     1      -2.999   2.987 126.709  0.00  0.00    +0.000 C 
ENDBRANCH  23  25
BRANCH  23  26
ATOM     26  C   UNL     1      -3.794   4.633 128.382  0.00  0.00    +0.000 C 
ATOM     27  C   UNL     1      -2.664   5.494 128.919  0.00  0.00    +0.000 C 
ENDBRANCH  23  26
ENDBRANCH  22  23
ENDBRANCH  21  22
ENDBRANCH   1  21
TORSDOF 6
ENDMDL
MODEL 5
REMARK VINA RESULT:      -7.7      7.633     10.347
REMARK  Name = Flurazepam
REMARK  8 active torsions:
REMARK  status: ('A' for Active; 'I' for Inactive)
REMARK    1  A    between atoms: C_1  and  C_2
REMARK    2  A    between atoms: C_2  and  N_3
REMARK    3  A    between atoms: N_3  and  C_4
REMARK    4  A    between atoms: N_3  and  C_6
REMARK    5  A    between atoms: C_4  and  C_5
REMARK    6  A    between atoms: C_6  and  C_7
REMARK    7  A    between atoms: C_7  and  N_8
REMARK    8  A    between atoms: C_16  and  C_21
REMARK                            x       y       z     vdW  Elec       q    Type
REMARK                         _______ _______ _______ _____ _____    ______ ____
ROOT
ATOM      1  N   UNL     1      -9.704   5.357 130.940  0.00  0.00    +0.000 N 
ATOM      2  C   UNL     1      -8.639   4.462 130.613  0.00  0.00    +0.000 A 
ATOM      3  C   UNL     1      -7.342   4.587 131.137  0.00  0.00    +0.000 A 
ATOM      4  C   UNL     1      -6.320   3.721 130.701  0.00  0.00    +0.000 A 
ATOM      5  C   UNL     1      -6.585   2.730 129.762  0.00  0.00    +0.000 A 
ATOM      6 CL   UNL     1      -5.327   1.680 129.246  0.00  0.00    +0.000 Cl
ATOM      7  C   UNL     1      -7.861   2.583 129.243  0.00  0.00    +0.000 A 
ATOM      8  C   UNL     1      -8.874   3.445 129.663  0.00  0.00    +0.000 A 
ATOM      9  C   UNL     1      -6.958   5.678 132.081  0.00  0.00    +0.000 C 
ATOM     10  N   UNL     1      -7.666   6.078 133.083  0.00  0.00    +0.000 NA
ATOM     11  C   UNL     1      -8.975   5.465 133.311  0.00  0.00    +0.000 C 
ATOM     12  C   UNL     1      -9.946   5.869 132.215  0.00  0.00    +0.000 C 
ATOM     13  O   UNL     1     -10.935   6.548 132.478  0.00  0.00    +0.000 OA
ENDROOT
BRANCH   9  14
ATOM     14  C   UNL     1      -5.657   6.362 131.846  0.00  0.00    +0.000 A 
ATOM     15  C   UNL     1      -5.467   7.180 130.728  0.00  0.00    +0.000 A 
ATOM     16  C   UNL     1      -4.211   7.753 130.501  0.00  0.00    +0.000 A 
ATOM     17  C   UNL     1      -3.183   7.584 131.432  0.00  0.00    +0.000 A 
ATOM     18  C   UNL     1      -3.406   6.843 132.592  0.00  0.00    +0.000 A 
ATOM     19  C   UNL     1      -4.621   6.191 132.766  0.00  0.00    +0.000 A 
ATOM     20  F   UNL     1      -4.778   5.395 133.833  0.00  0.00    +0.000 F 
ENDBRANCH   9  14
BRANCH   1  21
ATOM     21  C   UNL     1     -10.629   5.751 129.878  0.00  0.00    +0.000 C 
BRANCH  21  22
ATOM     22  C   UNL     1      -9.998   6.765 128.895  0.00  0.00    +0.000 C 
BRANCH  22  23
ATOM     23  N   UNL     1     -10.874   7.921 128.569  0.00  0.00    +0.000 NA
BRANCH  23  25
ATOM     24  C   UNL     1     -12.213   7.147 126.560  0.00  0.00    +0.000 C 
ATOM     25  C   UNL     1     -11.043   7.959 127.100  0.00  0.00    +0.000 C 
ENDBRANCH  23  25
BRANCH  23  26
ATOM     26  C   UNL     1     -12.143   7.806 129.314  0.00  0.00    +0.000 C 
ATOM     27  C   UNL     1     -12.786   9.109 129.756  0.00  0.00    +0.000 C 
ENDBRANCH  23  26
ENDBRANCH  22  23
ENDBRANCH  21  22
ENDBRANCH   1  21
TORSDOF 6
ENDMDL
MODEL 6
REMARK VINA RESULT:      -7.5      7.275      9.339
REMARK  Name = Flurazepam
REMARK  8 active torsions:
REMARK  status: ('A' for Active; 'I' for Inactive)
REMARK    1  A    between atoms: C_1  and  C_2
REMARK    2  A    between atoms: C_2  and  N_3
REMARK    3  A    between atoms: N_3  and  C_4
REMARK    4  A    between atoms: N_3  and  C_6
REMARK    5  A    between atoms: C_4  and  C_5
REMARK    6  A    between atoms: C_6  and  C_7
REMARK    7  A    between atoms: C_7  and  N_8
REMARK    8  A    between atoms: C_16  and  C_21
REMARK                            x       y       z     vdW  Elec       q    Type
REMARK                         _______ _______ _______ _____ _____    ______ ____
ROOT
ATOM      1  N   UNL     1      -6.535  -1.117 132.398  0.00  0.00    +0.000 N 
ATOM      2  C   UNL     1      -5.633  -1.743 131.484  0.00  0.00    +0.000 A 
ATOM      3  C   UNL     1      -5.843  -1.770 130.096  0.00  0.00    +0.000 A 
ATOM      4  C   UNL     1      -4.956  -2.483 129.264  0.00  0.00    +0.000 A 
ATOM      5  C   UNL     1      -3.863  -3.152 129.804  0.00  0.00    +0.000 A 
ATOM      6 CL   UNL     1      -2.791  -4.012 128.773  0.00  0.00    +0.000 Cl
ATOM      7  C   UNL     1      -3.632  -3.126 131.169  0.00  0.00    +0.000 A 
ATOM      8  C   UNL     1      -4.513  -2.432 131.999  0.00  0.00    +0.000 A 
ATOM      9  C   UNL     1      -7.038  -1.151 129.450  0.00  0.00    +0.000 C 
ATOM     10  N   UNL     1      -7.530   0.003 129.749  0.00  0.00    +0.000 NA
ATOM     11  C   UNL     1      -6.917   0.772 130.833  0.00  0.00    +0.000 C 
ATOM     12  C   UNL     1      -7.178   0.099 132.170  0.00  0.00    +0.000 C 
ATOM     13  O   UNL     1      -7.860   0.658 133.026  0.00  0.00    +0.000 OA
ENDROOT
BRANCH   9  14
ATOM     14  C   UNL     1      -7.721  -1.929 128.381  0.00  0.00    +0.000 A 
ATOM     15  C   UNL     1      -7.735  -1.475 127.058  0.00  0.00    +0.000 A 
ATOM     16  C   UNL     1      -8.444  -2.195 126.091  0.00  0.00    +0.000 A 
ATOM     17  C   UNL     1      -9.057  -3.406 126.426  0.00  0.00    +0.000 A 
ATOM     18  C   UNL     1      -8.962  -3.901 127.726  0.00  0.00    +0.000 A 
ATOM     19  C   UNL     1      -8.345  -3.135 128.708  0.00  0.00    +0.000 A 
ATOM     20  F   UNL     1      -8.359  -3.576 129.974  0.00  0.00    +0.000 F 
ENDBRANCH   9  14
BRANCH   1  21
ATOM     21  C   UNL     1      -6.790  -1.774 133.680  0.00  0.00    +0.000 C 
BRANCH  21  22
ATOM     22  C   UNL     1      -7.920  -2.827 133.585  0.00  0.00    +0.000 C 
BRANCH  22  23
ATOM     23  N   UNL     1      -7.698  -4.033 134.426  0.00  0.00    +0.000 NA
BRANCH  23  25
ATOM     24  C   UNL     1      -5.636  -5.413 133.911  0.00  0.00    +0.000 C 
ATOM     25  C   UNL     1      -6.239  -4.198 134.603  0.00  0.00    +0.000 C 
ENDBRANCH  23  25
BRANCH  23  26
ATOM     26  C   UNL     1      -8.443  -3.897 135.693  0.00  0.00    +0.000 C 
ATOM     27  C   UNL     1      -9.103  -5.156 136.227  0.00  0.00    +0.000 C 
ENDBRANCH  23  26
ENDBRANCH  22  23
ENDBRANCH  21  22
ENDBRANCH   1  21
TORSDOF 6
ENDMDL
MODEL 7
REMARK VINA RESULT:      -7.5      3.341      5.213
REMARK  Name = Flurazepam
REMARK  8 active torsions:
REMARK  status: ('A' for Active; 'I' for Inactive)
REMARK    1  A    between atoms: C_1  and  C_2
REMARK    2  A    between atoms: C_2  and  N_3
REMARK    3  A    between atoms: N_3  and  C_4
REMARK    4  A    between atoms: N_3  and  C_6
REMARK    5  A    between atoms: C_4  and  C_5
REMARK    6  A    between atoms: C_6  and  C_7
REMARK    7  A    between atoms: C_7  and  N_8
REMARK    8  A    between atoms: C_16  and  C_21
REMARK                            x       y       z     vdW  Elec       q    Type
REMARK                         _______ _______ _______ _____ _____    ______ ____
ROOT
ATOM      1  N   UNL     1      -7.007   2.950 126.206  0.00  0.00    +0.000 N 
ATOM      2  C   UNL     1      -7.035   1.835 125.315  0.00  0.00    +0.000 A 
ATOM      3  C   UNL     1      -6.732   1.936 123.947  0.00  0.00    +0.000 A 
ATOM      4  C   UNL     1      -6.867   0.810 123.112  0.00  0.00    +0.000 A 
ATOM      5  C   UNL     1      -7.287  -0.410 123.630  0.00  0.00    +0.000 A 
ATOM      6 CL   UNL     1      -7.441  -1.773 122.596  0.00  0.00    +0.000 Cl
ATOM      7  C   UNL     1      -7.578  -0.533 124.979  0.00  0.00    +0.000 A 
ATOM      8  C   UNL     1      -7.458   0.581 125.809  0.00  0.00    +0.000 A 
ATOM      9  C   UNL     1      -6.360   3.228 123.300  0.00  0.00    +0.000 C 
ATOM     10  N   UNL     1      -5.550   4.102 123.795  0.00  0.00    +0.000 NA
ATOM     11  C   UNL     1      -4.969   3.856 125.115  0.00  0.00    +0.000 C 
ATOM     12  C   UNL     1      -6.039   3.955 126.189  0.00  0.00    +0.000 C 
ATOM     13  O   UNL     1      -5.987   4.838 127.042  0.00  0.00    +0.000 OA
ENDROOT
BRANCH   9  14
ATOM     14  C   UNL     1      -6.975   3.537 121.980  0.00  0.00    +0.000 A 
ATOM     15  C   UNL     1      -8.364   3.538 121.817  0.00  0.00    +0.000 A 
ATOM     16  C   UNL     1      -8.908   3.765 120.548  0.00  0.00    +0.000 A 
ATOM     17  C   UNL     1      -8.073   4.078 119.472  0.00  0.00    +0.000 A 
ATOM     18  C   UNL     1      -6.694   4.166 119.661  0.00  0.00    +0.000 A 
ATOM     19  C   UNL     1      -6.149   3.841 120.897  0.00  0.00    +0.000 A 
ATOM     20  F   UNL     1      -4.815   3.825 121.029  0.00  0.00    +0.000 F 
ENDBRANCH   9  14
BRANCH   1  21
ATOM     21  C   UNL     1      -8.046   3.046 127.232  0.00  0.00    +0.000 C 
BRANCH  21  22
ATOM     22  C   UNL     1      -7.493   2.784 128.653  0.00  0.00    +0.000 C 
BRANCH  22  23
ATOM     23  N   UNL     1      -8.177   1.679 129.377  0.00  0.00    +0.000 NA
BRANCH  23  25
ATOM     24  C   UNL     1      -7.822  -0.784 129.856  0.00  0.00    +0.000 C 
ATOM     25  C   UNL     1      -7.209   0.570 129.524  0.00  0.00    +0.000 C 
ENDBRANCH  23  25
BRANCH  23  26
ATOM     26  C   UNL     1      -8.711   2.183 130.658  0.00  0.00    +0.000 C 
ATOM     27  C   UNL     1      -9.943   3.065 130.574  0.00  0.00    +0.000 C 
ENDBRANCH  23  26
ENDBRANCH  22  23
ENDBRANCH  21  22
ENDBRANCH   1  21
TORSDOF 6
ENDMDL
MODEL 8
REMARK VINA RESULT:      -7.4      3.473      5.006
REMARK  Name = Flurazepam
REMARK  8 active torsions:
REMARK  status: ('A' for Active; 'I' for Inactive)
REMARK    1  A    between atoms: C_1  and  C_2
REMARK    2  A    between atoms: C_2  and  N_3
REMARK    3  A    between atoms: N_3  and  C_4
REMARK    4  A    between atoms: N_3  and  C_6
REMARK    5  A    between atoms: C_4  and  C_5
REMARK    6  A    between atoms: C_6  and  C_7
REMARK    7  A    between atoms: C_7  and  N_8
REMARK    8  A    between atoms: C_16  and  C_21
REMARK                            x       y       z     vdW  Elec       q    Type
REMARK                         _______ _______ _______ _____ _____    ______ ____
ROOT
ATOM      1  N   UNL     1      -8.196   2.045 125.389  0.00  0.00    +0.000 N 
ATOM      2  C   UNL     1      -7.858   1.871 126.765  0.00  0.00    +0.000 A 
ATOM      3  C   UNL     1      -6.909   2.666 127.430  0.00  0.00    +0.000 A 
ATOM      4  C   UNL     1      -6.562   2.379 128.765  0.00  0.00    +0.000 A 
ATOM      5  C   UNL     1      -7.161   1.321 129.440  0.00  0.00    +0.000 A 
ATOM      6 CL   UNL     1      -6.729   0.990 131.069  0.00  0.00    +0.000 Cl
ATOM      7  C   UNL     1      -8.109   0.535 128.806  0.00  0.00    +0.000 A 
ATOM      8  C   UNL     1      -8.447   0.806 127.480  0.00  0.00    +0.000 A 
ATOM      9  C   UNL     1      -6.160   3.763 126.749  0.00  0.00    +0.000 C 
ATOM     10  N   UNL     1      -6.676   4.624 125.939  0.00  0.00    +0.000 NA
ATOM     11  C   UNL     1      -8.097   4.516 125.607  0.00  0.00    +0.000 C 
ATOM     12  C   UNL     1      -8.349   3.281 124.759  0.00  0.00    +0.000 C 
ATOM     13  O   UNL     1      -8.747   3.389 123.602  0.00  0.00    +0.000 OA
ENDROOT
BRANCH   9  14
ATOM     14  C   UNL     1      -4.700   3.868 127.020  0.00  0.00    +0.000 A 
ATOM     15  C   UNL     1      -3.778   3.101 126.302  0.00  0.00    +0.000 A 
ATOM     16  C   UNL     1      -2.420   3.174 126.630  0.00  0.00    +0.000 A 
ATOM     17  C   UNL     1      -1.979   4.074 127.604  0.00  0.00    +0.000 A 
ATOM     18  C   UNL     1      -2.893   4.904 128.252  0.00  0.00    +0.000 A 
ATOM     19  C   UNL     1      -4.251   4.757 127.999  0.00  0.00    +0.000 A 
ATOM     20  F   UNL     1      -5.122   5.487 128.711  0.00  0.00    +0.000 F 
ENDBRANCH   9  14
BRANCH   1  21
ATOM     21  C   UNL     1      -8.427   0.852 124.575  0.00  0.00    +0.000 C 
BRANCH  21  22
ATOM     22  C   UNL     1      -7.109   0.234 124.052  0.00  0.00    +0.000 C 
BRANCH  22  23
ATOM     23  N   UNL     1      -6.986  -1.229 124.295  0.00  0.00    +0.000 NA
BRANCH  23  25
ATOM     24  C   UNL     1      -5.345  -2.849 123.243  0.00  0.00    +0.000 C 
ATOM     25  C   UNL     1      -6.479  -1.852 123.052  0.00  0.00    +0.000 C 
ENDBRANCH  23  25
BRANCH  23  26
ATOM     26  C   UNL     1      -6.130  -1.464 125.474  0.00  0.00    +0.000 C 
ATOM     27  C   UNL     1      -5.234  -0.314 125.897  0.00  0.00    +0.000 C 
ENDBRANCH  23  26
ENDBRANCH  22  23
ENDBRANCH  21  22
ENDBRANCH   1  21
TORSDOF 6
ENDMDL
MODEL 9
REMARK VINA RESULT:      -7.3      7.228      8.917
REMARK  Name = Flurazepam
REMARK  8 active torsions:
REMARK  status: ('A' for Active; 'I' for Inactive)
REMARK    1  A    between atoms: C_1  and  C_2
REMARK    2  A    between atoms: C_2  and  N_3
REMARK    3  A    between atoms: N_3  and  C_4
REMARK    4  A    between atoms: N_3  and  C_6
REMARK    5  A    between atoms: C_4  and  C_5
REMARK    6  A    between atoms: C_6  and  C_7
REMARK    7  A    between atoms: C_7  and  N_8
REMARK    8  A    between atoms: C_16  and  C_21
REMARK                            x       y       z     vdW  Elec       q    Type
REMARK                         _______ _______ _______ _____ _____    ______ ____
ROOT
ATOM      1  N   UNL     1      -9.487   4.766 131.105  0.00  0.00    +0.000 N 
ATOM      2  C   UNL     1      -8.712   4.874 132.299  0.00  0.00    +0.000 A 
ATOM      3  C   UNL     1      -7.520   5.613 132.378  0.00  0.00    +0.000 A 
ATOM      4  C   UNL     1      -6.762   5.601 133.565  0.00  0.00    +0.000 A 
ATOM      5  C   UNL     1      -7.189   4.874 134.671  0.00  0.00    +0.000 A 
ATOM      6 CL   UNL     1      -6.254   4.876 136.112  0.00  0.00    +0.000 Cl
ATOM      7  C   UNL     1      -8.369   4.150 134.617  0.00  0.00    +0.000 A 
ATOM      8  C   UNL     1      -9.117   4.147 133.440  0.00  0.00    +0.000 A 
ATOM      9  C   UNL     1      -6.951   6.347 131.210  0.00  0.00    +0.000 C 
ATOM     10  N   UNL     1      -7.630   7.066 130.381  0.00  0.00    +0.000 NA
ATOM     11  C   UNL     1      -9.082   7.150 130.546  0.00  0.00    +0.000 C 
ATOM     12  C   UNL     1      -9.729   5.815 130.218  0.00  0.00    +0.000 C 
ATOM     13  O   UNL     1     -10.490   5.710 129.260  0.00  0.00    +0.000 OA
ENDROOT
BRANCH   9  14
ATOM     14  C   UNL     1      -5.485   6.239 130.979  0.00  0.00    +0.000 A 
ATOM     15  C   UNL     1      -4.639   7.330 131.202  0.00  0.00    +0.000 A 
ATOM     16  C   UNL     1      -3.276   7.214 130.909  0.00  0.00    +0.000 A 
ATOM     17  C   UNL     1      -2.749   5.991 130.484  0.00  0.00    +0.000 A 
ATOM     18  C   UNL     1      -3.583   4.881 130.351  0.00  0.00    +0.000 A 
ATOM     19  C   UNL     1      -4.951   5.024 130.544  0.00  0.00    +0.000 A 
ATOM     20  F   UNL     1      -5.749   3.973 130.305  0.00  0.00    +0.000 F 
ENDBRANCH   9  14
BRANCH   1  21
ATOM     21  C   UNL     1     -10.100   3.475 130.789  0.00  0.00    +0.000 C 
BRANCH  21  22
ATOM     22  C   UNL     1      -9.234   2.636 129.820  0.00  0.00    +0.000 C 
BRANCH  22  23
ATOM     23  N   UNL     1      -8.336   1.661 130.496  0.00  0.00    +0.000 NA
BRANCH  23  25
ATOM     24  C   UNL     1      -8.534  -0.336 132.043  0.00  0.00    +0.000 C 
ATOM     25  C   UNL     1      -9.122   0.977 131.546  0.00  0.00    +0.000 C 
ENDBRANCH  23  25
BRANCH  23  26
ATOM     26  C   UNL     1      -7.753   0.749 129.493  0.00  0.00    +0.000 C 
ATOM     27  C   UNL     1      -6.242   0.786 129.346  0.00  0.00    +0.000 C 
ENDBRANCH  23  26
ENDBRANCH  22  23
ENDBRANCH  21  22
ENDBRANCH   1  21
TORSDOF 6
ENDMDL
