MODEL 1
REMARK VINA RESULT:      -7.9      0.000      0.000
REMARK  Name = Flurandrenolide
REMARK  8 active torsions:
REMARK  status: ('A' for Active; 'I' for Inactive)
REMARK    1  A    between atoms: C_1  and  C_2
REMARK    2  A    between atoms: C_2  and  C_3
REMARK    3  A    between atoms: C_18  and  C_19
REMARK    4  A    between atoms: C_21  and  O_22
REMARK    5  A    between atoms: C_24  and  C_25
REMARK    6  A    between atoms: C_26  and  C_28
REMARK    7  A    between atoms: C_28  and  C_30
REMARK    8  A    between atoms: C_30  and  O_31
REMARK                            x       y       z     vdW  Elec       q    Type
REMARK                         _______ _______ _______ _____ _____    ______ ____
ROOT
ATOM      1  C   UNL     1      -7.845   1.044 131.001  0.00  0.00    +0.000 C 
ATOM      2  C   UNL     1      -8.336   2.318 131.636  0.00  0.00    +0.000 C 
ATOM      3  C   UNL     1      -9.629   2.529 130.846  0.00  0.00    +0.000 C 
ATOM      4  O   UNL     1      -8.664   2.124 133.000  0.00  0.00    +0.000 OA
ATOM      5  C   UNL     1      -7.831   2.990 133.778  0.00  0.00    +0.000 C 
ATOM      6  C   UNL     1      -8.776   4.117 134.369  0.00  0.00    +0.000 C 
ATOM      7  C   UNL     1      -8.399   5.410 133.603  0.00  0.00    +0.000 C 
ATOM      8  C   UNL     1      -9.147   5.580 132.259  0.00  0.00    +0.000 C 
ATOM      9  C   UNL     1     -10.647   5.722 132.435  0.00  0.00    +0.000 C 
ATOM     10  C   UNL     1     -11.436   5.532 131.163  0.00  0.00    +0.000 C 
ATOM     11  F   UNL     1     -11.623   4.257 130.761  0.00  0.00    +0.000 F 
ATOM     12  C   UNL     1     -10.849   6.194 130.001  0.00  0.00    +0.000 C 
ATOM     13  C   UNL     1     -11.741   6.423 129.028  0.00  0.00    +0.000 C 
ATOM     14  C   UNL     1     -12.206   7.706 129.585  0.00  0.00    +0.000 C 
ATOM     15  O   UNL     1     -13.005   7.864 130.535  0.00  0.00    +0.000 OA
ATOM     16  C   UNL     1     -11.397   8.742 128.951  0.00  0.00    +0.000 C 
ATOM     17  C   UNL     1      -9.717   8.119 129.081  0.00  0.00    +0.000 C 
ATOM     18  C   UNL     1      -9.411   6.596 129.836  0.00  0.00    +0.000 C 
ATOM     19  C   UNL     1      -8.833   5.366 129.037  0.00  0.00    +0.000 C 
ATOM     20  C   UNL     1      -8.566   6.609 131.229  0.00  0.00    +0.000 C 
ATOM     21  C   UNL     1      -7.036   6.284 131.112  0.00  0.00    +0.000 C 
ATOM     22  C   UNL     1      -6.396   6.317 132.496  0.00  0.00    +0.000 C 
ATOM     23  C   UNL     1      -6.891   5.176 133.397  0.00  0.00    +0.000 C 
ATOM     24  C   UNL     1      -6.200   5.239 134.808  0.00  0.00    +0.000 C 
ATOM     25  C   UNL     1      -6.807   3.681 132.838  0.00  0.00    +0.000 C 
ATOM     26  O   UNL     1      -7.348   3.373 131.526  0.00  0.00    +0.000 OA
ENDROOT
BRANCH  21  27
ATOM     27  O   UNL     1      -6.354   7.182 130.259  0.00  0.00    +0.000 OA
ATOM     28  H   UNL     1      -5.751   6.664 129.707  0.00  0.00    +0.000 HD
ENDBRANCH  21  27
BRANCH  25  29
ATOM     29  C   UNL     1      -5.284   3.271 132.837  0.00  0.00    +0.000 C 
ATOM     30  O   UNL     1      -4.779   2.619 133.754  0.00  0.00    +0.000 OA
BRANCH  29  31
ATOM     31  C   UNL     1      -4.369   3.796 131.679  0.00  0.00    +0.000 C 
BRANCH  31  32
ATOM     32  O   UNL     1      -4.805   3.563 130.354  0.00  0.00    +0.000 OA
ATOM     33  H   UNL     1      -4.765   4.435 129.918  0.00  0.00    +0.000 HD
ENDBRANCH  31  32
ENDBRANCH  29  31
ENDBRANCH  25  29
TORSDOF 4
ENDMDL
MODEL 2
REMARK VINA RESULT:      -7.7      2.569      5.981
REMARK  Name = Flurandrenolide
REMARK  8 active torsions:
REMARK  status: ('A' for Active; 'I' for Inactive)
REMARK    1  A    between atoms: C_1  and  C_2
REMARK    2  A    between atoms: C_2  and  C_3
REMARK    3  A    between atoms: C_18  and  C_19
REMARK    4  A    between atoms: C_21  and  O_22
REMARK    5  A    between atoms: C_24  and  C_25
REMARK    6  A    between atoms: C_26  and  C_28
REMARK    7  A    between atoms: C_28  and  C_30
REMARK    8  A    between atoms: C_30  and  O_31
REMARK                            x       y       z     vdW  Elec       q    Type
REMARK                         _______ _______ _______ _____ _____    ______ ____
ROOT
ATOM      1  C   UNL     1      -7.864   2.884 127.939  0.00  0.00    +0.000 C 
ATOM      2  C   UNL     1      -7.714   4.091 128.829  0.00  0.00    +0.000 C 
ATOM      3  C   UNL     1      -6.239   4.416 128.591  0.00  0.00    +0.000 C 
ATOM      4  O   UNL     1      -8.498   5.175 128.368  0.00  0.00    +0.000 OA
ATOM      5  C   UNL     1      -9.429   5.514 129.401  0.00  0.00    +0.000 C 
ATOM      6  C   UNL     1      -8.972   6.916 129.980  0.00  0.00    +0.000 C 
ATOM      7  C   UNL     1      -8.413   6.615 131.393  0.00  0.00    +0.000 C 
ATOM      8  C   UNL     1      -6.921   6.201 131.398  0.00  0.00    +0.000 C 
ATOM      9  C   UNL     1      -6.004   7.303 130.906  0.00  0.00    +0.000 C 
ATOM     10  C   UNL     1      -4.611   6.836 130.560  0.00  0.00    +0.000 C 
ATOM     11  F   UNL     1      -4.469   6.213 129.371  0.00  0.00    +0.000 F 
ATOM     12  C   UNL     1      -4.047   5.900 131.528  0.00  0.00    +0.000 C 
ATOM     13  C   UNL     1      -2.708   5.856 131.488  0.00  0.00    +0.000 C 
ATOM     14  C   UNL     1      -2.519   6.994 132.404  0.00  0.00    +0.000 C 
ATOM     15  O   UNL     1      -2.618   8.209 132.121  0.00  0.00    +0.000 OA
ATOM     16  C   UNL     1      -2.398   6.424 133.742  0.00  0.00    +0.000 C 
ATOM     17  C   UNL     1      -3.755   5.250 133.835  0.00  0.00    +0.000 C 
ATOM     18  C   UNL     1      -4.815   5.039 132.489  0.00  0.00    +0.000 C 
ATOM     19  C   UNL     1      -4.899   3.681 131.692  0.00  0.00    +0.000 C 
ATOM     20  C   UNL     1      -6.368   5.492 132.683  0.00  0.00    +0.000 C 
ATOM     21  C   UNL     1      -7.387   4.347 133.015  0.00  0.00    +0.000 C 
ATOM     22  C   UNL     1      -8.791   4.928 133.146  0.00  0.00    +0.000 C 
ATOM     23  C   UNL     1      -9.334   5.452 131.808  0.00  0.00    +0.000 C 
ATOM     24  C   UNL     1     -10.785   6.032 131.984  0.00  0.00    +0.000 C 
ATOM     25  C   UNL     1      -9.309   4.473 130.546  0.00  0.00    +0.000 C 
ATOM     26  O   UNL     1      -8.081   3.781 130.197  0.00  0.00    +0.000 OA
ENDROOT
BRANCH  21  27
ATOM     27  O   UNL     1      -7.054   3.652 134.201  0.00  0.00    +0.000 OA
ATOM     28  H   UNL     1      -6.390   4.174 134.672  0.00  0.00    +0.000 HD
ENDBRANCH  21  27
BRANCH  25  29
ATOM     29  C   UNL     1     -10.423   3.381 130.785  0.00  0.00    +0.000 C 
ATOM     30  O   UNL     1     -11.547   3.470 130.286  0.00  0.00    +0.000 OA
BRANCH  29  31
ATOM     31  C   UNL     1     -10.115   2.200 131.768  0.00  0.00    +0.000 C 
BRANCH  31  32
ATOM     32  O   UNL     1      -8.986   1.397 131.479  0.00  0.00    +0.000 OA
ATOM     33  H   UNL     1      -8.608   1.777 130.664  0.00  0.00    +0.000 HD
ENDBRANCH  31  32
ENDBRANCH  29  31
ENDBRANCH  25  29
TORSDOF 4
ENDMDL
MODEL 3
REMARK VINA RESULT:      -7.6      3.638      6.799
REMARK  Name = Flurandrenolide
REMARK  8 active torsions:
REMARK  status: ('A' for Active; 'I' for Inactive)
REMARK    1  A    between atoms: C_1  and  C_2
REMARK    2  A    between atoms: C_2  and  C_3
REMARK    3  A    between atoms: C_18  and  C_19
REMARK    4  A    between atoms: C_21  and  O_22
REMARK    5  A    between atoms: C_24  and  C_25
REMARK    6  A    between atoms: C_26  and  C_28
REMARK    7  A    between atoms: C_28  and  C_30
REMARK    8  A    between atoms: C_30  and  O_31
REMARK                            x       y       z     vdW  Elec       q    Type
REMARK                         _______ _______ _______ _____ _____    ______ ____
ROOT
ATOM      1  C   UNL     1      -8.621   3.842 129.214  0.00  0.00    +0.000 C 
ATOM      2  C   UNL     1      -7.135   3.776 129.451  0.00  0.00    +0.000 C 
ATOM      3  C   UNL     1      -7.096   3.997 130.964  0.00  0.00    +0.000 C 
ATOM      4  O   UNL     1      -6.621   2.489 129.167  0.00  0.00    +0.000 OA
ATOM      5  C   UNL     1      -5.650   2.624 128.125  0.00  0.00    +0.000 C 
ATOM      6  C   UNL     1      -4.236   2.347 128.784  0.00  0.00    +0.000 C 
ATOM      7  C   UNL     1      -3.524   3.722 128.824  0.00  0.00    +0.000 C 
ATOM      8  C   UNL     1      -3.869   4.568 130.074  0.00  0.00    +0.000 C 
ATOM      9  C   UNL     1      -3.410   3.919 131.366  0.00  0.00    +0.000 C 
ATOM     10  C   UNL     1      -4.028   4.516 132.607  0.00  0.00    +0.000 C 
ATOM     11  F   UNL     1      -5.292   4.136 132.887  0.00  0.00    +0.000 F 
ATOM     12  C   UNL     1      -4.084   5.975 132.592  0.00  0.00    +0.000 C 
ATOM     13  C   UNL     1      -4.182   6.503 133.820  0.00  0.00    +0.000 C 
ATOM     14  C   UNL     1      -2.729   6.513 134.066  0.00  0.00    +0.000 C 
ATOM     15  O   UNL     1      -2.018   5.538 134.399  0.00  0.00    +0.000 OA
ATOM     16  C   UNL     1      -2.254   7.828 133.647  0.00  0.00    +0.000 C 
ATOM     17  C   UNL     1      -3.022   8.072 132.041  0.00  0.00    +0.000 C 
ATOM     18  C   UNL     1      -4.053   6.857 131.377  0.00  0.00    +0.000 C 
ATOM     19  C   UNL     1      -5.591   7.106 131.132  0.00  0.00    +0.000 C 
ATOM     20  C   UNL     1      -3.544   6.101 130.027  0.00  0.00    +0.000 C 
ATOM     21  C   UNL     1      -4.139   6.625 128.674  0.00  0.00    +0.000 C 
ATOM     22  C   UNL     1      -3.582   5.807 127.514  0.00  0.00    +0.000 C 
ATOM     23  C   UNL     1      -4.079   4.353 127.532  0.00  0.00    +0.000 C 
ATOM     24  C   UNL     1      -3.491   3.547 126.316  0.00  0.00    +0.000 C 
ATOM     25  C   UNL     1      -5.653   4.093 127.623  0.00  0.00    +0.000 C 
ATOM     26  O   UNL     1      -6.434   4.761 128.650  0.00  0.00    +0.000 OA
ENDROOT
BRANCH  21  27
ATOM     27  O   UNL     1      -3.865   7.995 128.455  0.00  0.00    +0.000 OA
ATOM     28  H   UNL     1      -4.132   8.480 129.249  0.00  0.00    +0.000 HD
ENDBRANCH  21  27
BRANCH  25  29
ATOM     29  C   UNL     1      -6.268   4.483 126.224  0.00  0.00    +0.000 C 
ATOM     30  O   UNL     1      -6.007   5.552 125.667  0.00  0.00    +0.000 OA
BRANCH  29  31
ATOM     31  C   UNL     1      -7.320   3.521 125.574  0.00  0.00    +0.000 C 
BRANCH  31  32
ATOM     32  O   UNL     1      -8.617   4.039 125.348  0.00  0.00    +0.000 OA
ATOM     33  H   UNL     1      -9.178   3.257 125.191  0.00  0.00    +0.000 HD
ENDBRANCH  31  32
ENDBRANCH  29  31
ENDBRANCH  25  29
TORSDOF 4
ENDMDL
MODEL 4
REMARK VINA RESULT:      -7.5      6.664     10.003
REMARK  Name = Flurandrenolide
REMARK  8 active torsions:
REMARK  status: ('A' for Active; 'I' for Inactive)
REMARK    1  A    between atoms: C_1  and  C_2
REMARK    2  A    between atoms: C_2  and  C_3
REMARK    3  A    between atoms: C_18  and  C_19
REMARK    4  A    between atoms: C_21  and  O_22
REMARK    5  A    between atoms: C_24  and  C_25
REMARK    6  A    between atoms: C_26  and  C_28
REMARK    7  A    between atoms: C_28  and  C_30
REMARK    8  A    between atoms: C_30  and  O_31
REMARK                            x       y       z     vdW  Elec       q    Type
REMARK                         _______ _______ _______ _____ _____    ______ ____
ROOT
ATOM      1  C   UNL     1     -10.360  -3.480 126.596  0.00  0.00    +0.000 C 
ATOM      2  C   UNL     1      -8.886  -3.192 126.487  0.00  0.00    +0.000 C 
ATOM      3  C   UNL     1      -8.429  -3.604 127.887  0.00  0.00    +0.000 C 
ATOM      4  O   UNL     1      -8.262  -4.037 125.538  0.00  0.00    +0.000 OA
ATOM      5  C   UNL     1      -7.694  -3.210 124.519  0.00  0.00    +0.000 C 
ATOM      6  C   UNL     1      -6.121  -3.298 124.687  0.00  0.00    +0.000 C 
ATOM      7  C   UNL     1      -5.687  -1.914 125.232  0.00  0.00    +0.000 C 
ATOM      8  C   UNL     1      -5.780  -1.793 126.773  0.00  0.00    +0.000 C 
ATOM      9  C   UNL     1      -4.843  -2.743 127.494  0.00  0.00    +0.000 C 
ATOM     10  C   UNL     1      -5.149  -2.913 128.962  0.00  0.00    +0.000 C 
ATOM     11  F   UNL     1      -6.180  -3.730 129.265  0.00  0.00    +0.000 F 
ATOM     12  C   UNL     1      -5.466  -1.662 129.646  0.00  0.00    +0.000 C 
ATOM     13  C   UNL     1      -5.278  -1.733 130.971  0.00  0.00    +0.000 C 
ATOM     14  C   UNL     1      -3.845  -1.394 130.910  0.00  0.00    +0.000 C 
ATOM     15  O   UNL     1      -2.906  -2.162 130.604  0.00  0.00    +0.000 OA
ATOM     16  C   UNL     1      -3.763   0.053 131.076  0.00  0.00    +0.000 C 
ATOM     17  C   UNL     1      -5.013   0.689 129.953  0.00  0.00    +0.000 C 
ATOM     18  C   UNL     1      -5.964  -0.397 129.007  0.00  0.00    +0.000 C 
ATOM     19  C   UNL     1      -7.522  -0.539 129.206  0.00  0.00    +0.000 C 
ATOM     20  C   UNL     1      -5.763  -0.352 127.391  0.00  0.00    +0.000 C 
ATOM     21  C   UNL     1      -6.825   0.474 126.585  0.00  0.00    +0.000 C 
ATOM     22  C   UNL     1      -6.511   0.402 125.094  0.00  0.00    +0.000 C 
ATOM     23  C   UNL     1      -6.711  -1.009 124.521  0.00  0.00    +0.000 C 
ATOM     24  C   UNL     1      -6.388  -1.038 122.983  0.00  0.00    +0.000 C 
ATOM     25  C   UNL     1      -8.111  -1.737 124.777  0.00  0.00    +0.000 C 
ATOM     26  O   UNL     1      -8.648  -1.808 126.125  0.00  0.00    +0.000 OA
ENDROOT
BRANCH  21  27
ATOM     27  O   UNL     1      -6.878   1.829 126.988  0.00  0.00    +0.000 OA
ATOM     28  H   UNL     1      -6.381   1.910 127.814  0.00  0.00    +0.000 HD
ENDBRANCH  21  27
BRANCH  25  29
ATOM     29  C   UNL     1      -9.181  -1.014 123.872  0.00  0.00    +0.000 C 
ATOM     30  O   UNL     1      -9.630  -1.530 122.847  0.00  0.00    +0.000 OA
BRANCH  29  31
ATOM     31  C   UNL     1      -9.609   0.447 124.242  0.00  0.00    +0.000 C 
BRANCH  31  32
ATOM     32  O   UNL     1     -10.259   0.636 125.485  0.00  0.00    +0.000 OA
ATOM     33  H   UNL     1      -9.551   0.900 126.101  0.00  0.00    +0.000 HD
ENDBRANCH  31  32
ENDBRANCH  29  31
ENDBRANCH  25  29
TORSDOF 4
ENDMDL
MODEL 5
REMARK VINA RESULT:      -7.5      1.499      2.057
REMARK  Name = Flurandrenolide
REMARK  8 active torsions:
REMARK  status: ('A' for Active; 'I' for Inactive)
REMARK    1  A    between atoms: C_1  and  C_2
REMARK    2  A    between atoms: C_2  and  C_3
REMARK    3  A    between atoms: C_18  and  C_19
REMARK    4  A    between atoms: C_21  and  O_22
REMARK    5  A    between atoms: C_24  and  C_25
REMARK    6  A    between atoms: C_26  and  C_28
REMARK    7  A    between atoms: C_28  and  C_30
REMARK    8  A    between atoms: C_30  and  O_31
REMARK                            x       y       z     vdW  Elec       q    Type
REMARK                         _______ _______ _______ _____ _____    ______ ____
ROOT
ATOM      1  C   UNL     1      -5.332   1.187 131.360  0.00  0.00    +0.000 C 
ATOM      2  C   UNL     1      -5.979   2.344 132.075  0.00  0.00    +0.000 C 
ATOM      3  C   UNL     1      -7.433   2.146 131.643  0.00  0.00    +0.000 C 
ATOM      4  O   UNL     1      -5.899   2.195 133.480  0.00  0.00    +0.000 OA
ATOM      5  C   UNL     1      -5.167   3.310 133.999  0.00  0.00    +0.000 C 
ATOM      6  C   UNL     1      -6.207   4.205 134.791  0.00  0.00    +0.000 C 
ATOM      7  C   UNL     1      -6.394   5.479 133.929  0.00  0.00    +0.000 C 
ATOM      8  C   UNL     1      -7.464   5.331 132.821  0.00  0.00    +0.000 C 
ATOM      9  C   UNL     1      -8.856   5.099 133.376  0.00  0.00    +0.000 C 
ATOM     10  C   UNL     1      -9.850   4.601 132.356  0.00  0.00    +0.000 C 
ATOM     11  F   UNL     1      -9.778   3.290 132.042  0.00  0.00    +0.000 F 
ATOM     12  C   UNL     1      -9.767   5.286 131.069  0.00  0.00    +0.000 C 
ATOM     13  C   UNL     1     -10.897   5.191 130.356  0.00  0.00    +0.000 C 
ATOM     14  C   UNL     1     -11.541   6.356 130.989  0.00  0.00    +0.000 C 
ATOM     15  O   UNL     1     -12.095   6.388 132.110  0.00  0.00    +0.000 OA
ATOM     16  C   UNL     1     -11.222   7.504 130.146  0.00  0.00    +0.000 C 
ATOM     17  C   UNL     1      -9.458   7.347 129.849  0.00  0.00    +0.000 C 
ATOM     18  C   UNL     1      -8.576   6.026 130.528  0.00  0.00    +0.000 C 
ATOM     19  C   UNL     1      -7.901   4.919 129.632  0.00  0.00    +0.000 C 
ATOM     20  C   UNL     1      -7.453   6.379 131.655  0.00  0.00    +0.000 C 
ATOM     21  C   UNL     1      -5.969   6.448 131.152  0.00  0.00    +0.000 C 
ATOM     22  C   UNL     1      -5.043   6.767 132.322  0.00  0.00    +0.000 C 
ATOM     23  C   UNL     1      -4.976   5.621 133.343  0.00  0.00    +0.000 C 
ATOM     24  C   UNL     1      -4.005   5.984 134.526  0.00  0.00    +0.000 C 
ATOM     25  C   UNL     1      -4.630   4.154 132.812  0.00  0.00    +0.000 C 
ATOM     26  O   UNL     1      -5.371   3.603 131.691  0.00  0.00    +0.000 OA
ENDROOT
BRANCH  21  27
ATOM     27  O   UNL     1      -5.785   7.411 130.133  0.00  0.00    +0.000 OA
ATOM     28  H   UNL     1      -6.406   7.208 129.420  0.00  0.00    +0.000 HD
ENDBRANCH  21  27
BRANCH  25  29
ATOM     29  C   UNL     1      -3.101   4.150 132.425  0.00  0.00    +0.000 C 
ATOM     30  O   UNL     1      -2.239   3.661 133.159  0.00  0.00    +0.000 OA
BRANCH  29  31
ATOM     31  C   UNL     1      -2.660   4.878 131.109  0.00  0.00    +0.000 C 
BRANCH  31  32
ATOM     32  O   UNL     1      -3.250   4.441 129.900  0.00  0.00    +0.000 OA
ATOM     33  H   UNL     1      -3.113   5.176 129.273  0.00  0.00    +0.000 HD
ENDBRANCH  31  32
ENDBRANCH  29  31
ENDBRANCH  25  29
TORSDOF 4
ENDMDL
MODEL 6
REMARK VINA RESULT:      -7.4      4.583      8.687
REMARK  Name = Flurandrenolide
REMARK  8 active torsions:
REMARK  status: ('A' for Active; 'I' for Inactive)
REMARK    1  A    between atoms: C_1  and  C_2
REMARK    2  A    between atoms: C_2  and  C_3
REMARK    3  A    between atoms: C_18  and  C_19
REMARK    4  A    between atoms: C_21  and  O_22
REMARK    5  A    between atoms: C_24  and  C_25
REMARK    6  A    between atoms: C_26  and  C_28
REMARK    7  A    between atoms: C_28  and  C_30
REMARK    8  A    between atoms: C_30  and  O_31
REMARK                            x       y       z     vdW  Elec       q    Type
REMARK                         _______ _______ _______ _____ _____    ______ ____
ROOT
ATOM      1  C   UNL     1      -6.762   0.127 125.518  0.00  0.00    +0.000 C 
ATOM      2  C   UNL     1      -6.082   0.191 126.861  0.00  0.00    +0.000 C 
ATOM      3  C   UNL     1      -5.528  -1.232 126.947  0.00  0.00    +0.000 C 
ATOM      4  O   UNL     1      -4.998   1.101 126.850  0.00  0.00    +0.000 OA
ATOM      5  C   UNL     1      -5.267   2.115 127.822  0.00  0.00    +0.000 C 
ATOM      6  C   UNL     1      -4.239   1.890 129.008  0.00  0.00    +0.000 C 
ATOM      7  C   UNL     1      -5.086   1.357 130.190  0.00  0.00    +0.000 C 
ATOM      8  C   UNL     1      -5.294  -0.177 130.167  0.00  0.00    +0.000 C 
ATOM      9  C   UNL     1      -3.997  -0.948 130.313  0.00  0.00    +0.000 C 
ATOM     10  C   UNL     1      -4.103  -2.407 129.943  0.00  0.00    +0.000 C 
ATOM     11  F   UNL     1      -4.101  -2.690 128.623  0.00  0.00    +0.000 F 
ATOM     12  C   UNL     1      -5.309  -3.056 130.449  0.00  0.00    +0.000 C 
ATOM     13  C   UNL     1      -5.186  -4.388 130.533  0.00  0.00    +0.000 C 
ATOM     14  C   UNL     1      -4.574  -4.371 131.873  0.00  0.00    +0.000 C 
ATOM     15  O   UNL     1      -3.382  -4.112 132.149  0.00  0.00    +0.000 OA
ATOM     16  C   UNL     1      -5.672  -4.513 132.824  0.00  0.00    +0.000 C 
ATOM     17  C   UNL     1      -6.900  -3.335 132.244  0.00  0.00    +0.000 C 
ATOM     18  C   UNL     1      -6.590  -2.377 130.842  0.00  0.00    +0.000 C 
ATOM     19  C   UNL     1      -7.440  -2.524 129.522  0.00  0.00    +0.000 C 
ATOM     20  C   UNL     1      -6.444  -0.768 131.054  0.00  0.00    +0.000 C 
ATOM     21  C   UNL     1      -7.718   0.090 130.735  0.00  0.00    +0.000 C 
ATOM     22  C   UNL     1      -7.415   1.567 130.963  0.00  0.00    +0.000 C 
ATOM     23  C   UNL     1      -6.403   2.120 129.948  0.00  0.00    +0.000 C 
ATOM     24  C   UNL     1      -6.126   3.645 130.210  0.00  0.00    +0.000 C 
ATOM     25  C   UNL     1      -6.694   1.899 128.392  0.00  0.00    +0.000 C 
ATOM     26  O   UNL     1      -7.016   0.570 127.903  0.00  0.00    +0.000 OA
ENDROOT
BRANCH  21  27
ATOM     27  O   UNL     1      -8.835  -0.286 131.517  0.00  0.00    +0.000 OA
ATOM     28  H   UNL     1      -9.313  -0.976 131.036  0.00  0.00    +0.000 HD
ENDBRANCH  21  27
BRANCH  25  29
ATOM     29  C   UNL     1      -7.888   2.854 128.005  0.00  0.00    +0.000 C 
ATOM     30  O   UNL     1      -9.037   2.668 128.413  0.00  0.00    +0.000 OA
BRANCH  29  31
ATOM     31  C   UNL     1      -7.618   4.017 126.990  0.00  0.00    +0.000 C 
BRANCH  31  32
ATOM     32  O   UNL     1      -8.532   5.097 126.987  0.00  0.00    +0.000 OA
ATOM     33  H   UNL     1      -9.150   4.906 127.716  0.00  0.00    +0.000 HD
ENDBRANCH  31  32
ENDBRANCH  29  31
ENDBRANCH  25  29
TORSDOF 4
ENDMDL
MODEL 7
REMARK VINA RESULT:      -7.3      4.963      6.074
REMARK  Name = Flurandrenolide
REMARK  8 active torsions:
REMARK  status: ('A' for Active; 'I' for Inactive)
REMARK    1  A    between atoms: C_1  and  C_2
REMARK    2  A    between atoms: C_2  and  C_3
REMARK    3  A    between atoms: C_18  and  C_19
REMARK    4  A    between atoms: C_21  and  O_22
REMARK    5  A    between atoms: C_24  and  C_25
REMARK    6  A    between atoms: C_26  and  C_28
REMARK    7  A    between atoms: C_28  and  C_30
REMARK    8  A    between atoms: C_30  and  O_31
REMARK                            x       y       z     vdW  Elec       q    Type
REMARK                         _______ _______ _______ _____ _____    ______ ____
ROOT
ATOM      1  C   UNL     1      -6.859  -3.521 129.231  0.00  0.00    +0.000 C 
ATOM      2  C   UNL     1      -7.215  -2.058 129.270  0.00  0.00    +0.000 C 
ATOM      3  C   UNL     1      -7.827  -1.895 127.878  0.00  0.00    +0.000 C 
ATOM      4  O   UNL     1      -8.212  -1.793 130.239  0.00  0.00    +0.000 OA
ATOM      5  C   UNL     1      -7.667  -0.874 131.191  0.00  0.00    +0.000 C 
ATOM      6  C   UNL     1      -8.415   0.505 130.968  0.00  0.00    +0.000 C 
ATOM      7  C   UNL     1      -7.361   1.447 130.334  0.00  0.00    +0.000 C 
ATOM      8  C   UNL     1      -7.263   1.326 128.794  0.00  0.00    +0.000 C 
ATOM      9  C   UNL     1      -8.542   1.738 128.090  0.00  0.00    +0.000 C 
ATOM     10  C   UNL     1      -8.616   1.305 126.646  0.00  0.00    +0.000 C 
ATOM     11  F   UNL     1      -8.933   0.012 126.426  0.00  0.00    +0.000 F 
ATOM     12  C   UNL     1      -7.372   1.503 125.908  0.00  0.00    +0.000 C 
ATOM     13  C   UNL     1      -7.559   1.569 124.583  0.00  0.00    +0.000 C 
ATOM     14  C   UNL     1      -7.852   3.013 124.571  0.00  0.00    +0.000 C 
ATOM     15  O   UNL     1      -8.933   3.561 124.883  0.00  0.00    +0.000 OA
ATOM     16  C   UNL     1      -6.580   3.684 124.324  0.00  0.00    +0.000 C 
ATOM     17  C   UNL     1      -5.441   2.881 125.457  0.00  0.00    +0.000 C 
ATOM     18  C   UNL     1      -5.994   1.617 126.496  0.00  0.00    +0.000 C 
ATOM     19  C   UNL     1      -5.474   0.135 126.363  0.00  0.00    +0.000 C 
ATOM     20  C   UNL     1      -5.984   1.910 128.099  0.00  0.00    +0.000 C 
ATOM     21  C   UNL     1      -4.761   1.338 128.898  0.00  0.00    +0.000 C 
ATOM     22  C   UNL     1      -4.910   1.677 130.378  0.00  0.00    +0.000 C 
ATOM     23  C   UNL     1      -6.085   0.938 131.033  0.00  0.00    +0.000 C 
ATOM     24  C   UNL     1      -6.197   1.306 132.557  0.00  0.00    +0.000 C 
ATOM     25  C   UNL     1      -6.166  -0.650 130.869  0.00  0.00    +0.000 C 
ATOM     26  O   UNL     1      -6.049  -1.243 129.548  0.00  0.00    +0.000 OA
ENDROOT
BRANCH  21  27
ATOM     27  O   UNL     1      -3.524   1.834 128.425  0.00  0.00    +0.000 OA
ATOM     28  H   UNL     1      -2.820   1.376 128.905  0.00  0.00    +0.000 HD
ENDBRANCH  21  27
BRANCH  25  29
ATOM     29  C   UNL     1      -5.030  -1.267 131.773  0.00  0.00    +0.000 C 
ATOM     30  O   UNL     1      -5.250  -1.682 132.913  0.00  0.00    +0.000 OA
BRANCH  29  31
ATOM     31  C   UNL     1      -3.558  -1.258 131.236  0.00  0.00    +0.000 C 
BRANCH  31  32
ATOM     32  O   UNL     1      -3.352  -1.698 129.907  0.00  0.00    +0.000 OA
ATOM     33  H   UNL     1      -2.751  -1.039 129.513  0.00  0.00    +0.000 HD
ENDBRANCH  31  32
ENDBRANCH  29  31
ENDBRANCH  25  29
TORSDOF 4
ENDMDL
MODEL 8
REMARK VINA RESULT:      -7.3      5.662      8.924
REMARK  Name = Flurandrenolide
REMARK  8 active torsions:
REMARK  status: ('A' for Active; 'I' for Inactive)
REMARK    1  A    between atoms: C_1  and  C_2
REMARK    2  A    between atoms: C_2  and  C_3
REMARK    3  A    between atoms: C_18  and  C_19
REMARK    4  A    between atoms: C_21  and  O_22
REMARK    5  A    between atoms: C_24  and  C_25
REMARK    6  A    between atoms: C_26  and  C_28
REMARK    7  A    between atoms: C_28  and  C_30
REMARK    8  A    between atoms: C_30  and  O_31
REMARK                            x       y       z     vdW  Elec       q    Type
REMARK                         _______ _______ _______ _____ _____    ______ ____
ROOT
ATOM      1  C   UNL     1      -7.033   1.724 130.321  0.00  0.00    +0.000 C 
ATOM      2  C   UNL     1      -6.462   0.611 129.481  0.00  0.00    +0.000 C 
ATOM      3  C   UNL     1      -6.593   1.233 128.090  0.00  0.00    +0.000 C 
ATOM      4  O   UNL     1      -5.089   0.406 129.759  0.00  0.00    +0.000 OA
ATOM      5  C   UNL     1      -4.933  -0.937 130.229  0.00  0.00    +0.000 C 
ATOM      6  C   UNL     1      -4.169  -1.730 129.090  0.00  0.00    +0.000 C 
ATOM      7  C   UNL     1      -5.222  -2.689 128.480  0.00  0.00    +0.000 C 
ATOM      8  C   UNL     1      -6.081  -2.046 127.365  0.00  0.00    +0.000 C 
ATOM      9  C   UNL     1      -5.263  -1.638 126.155  0.00  0.00    +0.000 C 
ATOM     10  C   UNL     1      -5.981  -0.701 125.214  0.00  0.00    +0.000 C 
ATOM     11  F   UNL     1      -6.037   0.594 125.589  0.00  0.00    +0.000 F 
ATOM     12  C   UNL     1      -7.373  -1.067 124.969  0.00  0.00    +0.000 C 
ATOM     13  C   UNL     1      -7.851  -0.552 123.828  0.00  0.00    +0.000 C 
ATOM     14  C   UNL     1      -7.362  -1.653 122.980  0.00  0.00    +0.000 C 
ATOM     15  O   UNL     1      -6.192  -1.819 122.568  0.00  0.00    +0.000 OA
ATOM     16  C   UNL     1      -8.456  -2.614 122.889  0.00  0.00    +0.000 C 
ATOM     17  C   UNL     1      -9.011  -2.799 124.588  0.00  0.00    +0.000 C 
ATOM     18  C   UNL     1      -8.243  -1.912 125.854  0.00  0.00    +0.000 C 
ATOM     19  C   UNL     1      -9.004  -0.811 126.687  0.00  0.00    +0.000 C 
ATOM     20  C   UNL     1      -7.416  -2.766 126.969  0.00  0.00    +0.000 C 
ATOM     21  C   UNL     1      -8.166  -3.053 128.316  0.00  0.00    +0.000 C 
ATOM     22  C   UNL     1      -7.257  -3.840 129.254  0.00  0.00    +0.000 C 
ATOM     23  C   UNL     1      -6.056  -3.012 129.735  0.00  0.00    +0.000 C 
ATOM     24  C   UNL     1      -5.151  -3.853 130.707  0.00  0.00    +0.000 C 
ATOM     25  C   UNL     1      -6.337  -1.580 130.387  0.00  0.00    +0.000 C 
ATOM     26  O   UNL     1      -7.185  -0.627 129.692  0.00  0.00    +0.000 OA
ENDROOT
BRANCH  21  27
ATOM     27  O   UNL     1      -9.372  -3.767 128.124  0.00  0.00    +0.000 OA
ATOM     28  H   UNL     1      -9.419  -4.455 128.803  0.00  0.00    +0.000 HD
ENDBRANCH  21  27
BRANCH  25  29
ATOM     29  C   UNL     1      -6.969  -1.835 131.809  0.00  0.00    +0.000 C 
ATOM     30  O   UNL     1      -7.949  -2.567 131.971  0.00  0.00    +0.000 OA
BRANCH  29  31
ATOM     31  C   UNL     1      -6.390  -1.054 133.038  0.00  0.00    +0.000 C 
BRANCH  31  32
ATOM     32  O   UNL     1      -7.119   0.071 133.491  0.00  0.00    +0.000 OA
ATOM     33  H   UNL     1      -6.472   0.609 133.983  0.00  0.00    +0.000 HD
ENDBRANCH  31  32
ENDBRANCH  29  31
ENDBRANCH  25  29
TORSDOF 4
ENDMDL
MODEL 9
REMARK VINA RESULT:      -7.2      5.360      7.776
REMARK  Name = Flurandrenolide
REMARK  8 active torsions:
REMARK  status: ('A' for Active; 'I' for Inactive)
REMARK    1  A    between atoms: C_1  and  C_2
REMARK    2  A    between atoms: C_2  and  C_3
REMARK    3  A    between atoms: C_18  and  C_19
REMARK    4  A    between atoms: C_21  and  O_22
REMARK    5  A    between atoms: C_24  and  C_25
REMARK    6  A    between atoms: C_26  and  C_28
REMARK    7  A    between atoms: C_28  and  C_30
REMARK    8  A    between atoms: C_30  and  O_31
REMARK                            x       y       z     vdW  Elec       q    Type
REMARK                         _______ _______ _______ _____ _____    ______ ____
ROOT
ATOM      1  C   UNL     1      -3.917  -0.815 130.093  0.00  0.00    +0.000 C 
ATOM      2  C   UNL     1      -5.253  -0.551 129.449  0.00  0.00    +0.000 C 
ATOM      3  C   UNL     1      -5.479  -1.890 128.745  0.00  0.00    +0.000 C 
ATOM      4  O   UNL     1      -6.268  -0.370 130.418  0.00  0.00    +0.000 OA
ATOM      5  C   UNL     1      -6.814   0.942 130.242  0.00  0.00    +0.000 C 
ATOM      6  C   UNL     1      -8.278   0.750 129.668  0.00  0.00    +0.000 C 
ATOM      7  C   UNL     1      -8.206   1.221 128.194  0.00  0.00    +0.000 C 
ATOM      8  C   UNL     1      -7.746   0.119 127.209  0.00  0.00    +0.000 C 
ATOM      9  C   UNL     1      -8.714  -1.047 127.139  0.00  0.00    +0.000 C 
ATOM     10  C   UNL     1      -8.145  -2.280 126.481  0.00  0.00    +0.000 C 
ATOM     11  F   UNL     1      -7.320  -3.034 127.238  0.00  0.00    +0.000 F 
ATOM     12  C   UNL     1      -7.371  -1.999 125.274  0.00  0.00    +0.000 C 
ATOM     13  C   UNL     1      -7.273  -3.061 124.462  0.00  0.00    +0.000 C 
ATOM     14  C   UNL     1      -8.546  -2.801 123.765  0.00  0.00    +0.000 C 
ATOM     15  O   UNL     1      -9.696  -3.062 124.184  0.00  0.00    +0.000 OA
ATOM     16  C   UNL     1      -8.212  -1.998 122.593  0.00  0.00    +0.000 C 
ATOM     17  C   UNL     1      -7.120  -0.725 123.239  0.00  0.00    +0.000 C 
ATOM     18  C   UNL     1      -6.717  -0.695 124.917  0.00  0.00    +0.000 C 
ATOM     19  C   UNL     1      -5.245  -0.934 125.430  0.00  0.00    +0.000 C 
ATOM     20  C   UNL     1      -7.252   0.571 125.791  0.00  0.00    +0.000 C 
ATOM     21  C   UNL     1      -6.218   1.723 126.044  0.00  0.00    +0.000 C 
ATOM     22  C   UNL     1      -6.862   2.818 126.888  0.00  0.00    +0.000 C 
ATOM     23  C   UNL     1      -7.166   2.351 128.319  0.00  0.00    +0.000 C 
ATOM     24  C   UNL     1      -7.818   3.510 129.158  0.00  0.00    +0.000 C 
ATOM     25  C   UNL     1      -5.982   1.691 129.167  0.00  0.00    +0.000 C 
ATOM     26  O   UNL     1      -5.198   0.614 128.588  0.00  0.00    +0.000 OA
ENDROOT
BRANCH  21  27
ATOM     27  O   UNL     1      -5.727   2.285 124.842  0.00  0.00    +0.000 OA
ATOM     28  H   UNL     1      -5.832   3.245 124.902  0.00  0.00    +0.000 HD
ENDBRANCH  21  27
BRANCH  25  29
ATOM     29  C   UNL     1      -4.989   2.852 129.556  0.00  0.00    +0.000 C 
ATOM     30  O   UNL     1      -5.060   3.443 130.637  0.00  0.00    +0.000 OA
BRANCH  29  31
ATOM     31  C   UNL     1      -3.943   3.332 128.492  0.00  0.00    +0.000 C 
BRANCH  31  32
ATOM     32  O   UNL     1      -3.168   2.335 127.854  0.00  0.00    +0.000 OA
ATOM     33  H   UNL     1      -3.783   1.592 127.708  0.00  0.00    +0.000 HD
ENDBRANCH  31  32
ENDBRANCH  29  31
ENDBRANCH  25  29
TORSDOF 4
ENDMDL
