MODEL 1
REMARK VINA RESULT:      -9.4      0.000      0.000
REMARK  Name = Fluspirilene
REMARK  7 active torsions:
REMARK  status: ('A' for Active; 'I' for Inactive)
REMARK    1  A    between atoms: C_5  and  C_8
REMARK    2  A    between atoms: C_8  and  C_9
REMARK    3  A    between atoms: C_8  and  C_29
REMARK    4  A    between atoms: C_9  and  C_10
REMARK    5  A    between atoms: C_10  and  C_11
REMARK    6  A    between atoms: C_11  and  N_12
REMARK    7  A    between atoms: N_18  and  C_23
REMARK                            x       y       z     vdW  Elec       q    Type
REMARK                         _______ _______ _______ _____ _____    ______ ____
ROOT
ATOM      1  C   UNL     1      -8.239   3.127 127.264  0.00  0.00    +0.000 C 
ENDROOT
BRANCH   1   2
ATOM      2  N   UNL     1      -7.036   2.827 128.062  0.00  0.00    +0.000 NA
ATOM      3  C   UNL     1      -7.141   2.276 129.415  0.00  0.00    +0.000 C 
ATOM      4  C   UNL     1      -7.078   0.739 129.495  0.00  0.00    +0.000 C 
ATOM      5  C   UNL     1      -5.944   0.189 128.619  0.00  0.00    +0.000 C 
ATOM      6  C   UNL     1      -6.022   0.762 127.236  0.00  0.00    +0.000 C 
ATOM      7  C   UNL     1      -5.894   2.256 127.345  0.00  0.00    +0.000 C 
ATOM      8  N   UNL     1      -5.929  -1.284 128.635  0.00  0.00    +0.000 N 
ATOM      9  C   UNL     1      -4.654  -1.778 129.112  0.00  0.00    +0.000 C 
ATOM     10  N   UNL     1      -4.152  -0.674 129.856  0.00  0.00    +0.000 N 
ATOM     11  C   UNL     1      -4.580   0.495 129.284  0.00  0.00    +0.000 C 
ATOM     12  O   UNL     1      -3.945   1.542 129.362  0.00  0.00    +0.000 OA
ATOM     13  H   UNL     1      -3.290  -0.670 130.377  0.00  0.00    +0.000 HD
BRANCH   8  14
ATOM     14  C   UNL     1      -6.923  -2.118 128.197  0.00  0.00    +0.000 A 
ATOM     15  C   UNL     1      -7.174  -2.258 126.829  0.00  0.00    +0.000 A 
ATOM     16  C   UNL     1      -8.227  -3.048 126.358  0.00  0.00    +0.000 A 
ATOM     17  C   UNL     1      -9.001  -3.788 127.247  0.00  0.00    +0.000 A 
ATOM     18  C   UNL     1      -8.748  -3.699 128.607  0.00  0.00    +0.000 A 
ATOM     19  C   UNL     1      -7.734  -2.857 129.067  0.00  0.00    +0.000 A 
ENDBRANCH   8  14
ENDBRANCH   1   2
BRANCH   1  20
ATOM     20  C   UNL     1      -7.745   3.514 125.874  0.00  0.00    +0.000 C 
BRANCH  20  21
ATOM     21  C   UNL     1      -8.388   3.062 124.614  0.00  0.00    +0.000 C 
BRANCH  21  22
ATOM     22  C   UNL     1      -7.359   2.369 123.643  0.00  0.00    +0.000 C 
BRANCH  22  27
ATOM     23  F   UNL     1      -6.888   4.788 118.493  0.00  0.00    +0.000 F 
ATOM     24  C   UNL     1      -6.999   4.249 119.712  0.00  0.00    +0.000 A 
ATOM     25  C   UNL     1      -8.249   3.961 120.221  0.00  0.00    +0.000 A 
ATOM     26  C   UNL     1      -8.349   3.472 121.525  0.00  0.00    +0.000 A 
ATOM     27  C   UNL     1      -7.220   3.084 122.272  0.00  0.00    +0.000 A 
ATOM     28  C   UNL     1      -5.973   3.382 121.703  0.00  0.00    +0.000 A 
ATOM     29  C   UNL     1      -5.862   4.007 120.461  0.00  0.00    +0.000 A 
ENDBRANCH  22  27
BRANCH  22  30
ATOM     30  C   UNL     1      -7.743   0.888 123.521  0.00  0.00    +0.000 A 
ATOM     31  C   UNL     1      -6.746  -0.093 123.389  0.00  0.00    +0.000 A 
ATOM     32  C   UNL     1      -7.098  -1.406 123.080  0.00  0.00    +0.000 A 
ATOM     33  C   UNL     1      -8.440  -1.758 122.995  0.00  0.00    +0.000 A 
ATOM     34  F   UNL     1      -8.779  -3.020 122.712  0.00  0.00    +0.000 F 
ATOM     35  C   UNL     1      -9.441  -0.823 123.186  0.00  0.00    +0.000 A 
ATOM     36  C   UNL     1      -9.092   0.491 123.434  0.00  0.00    +0.000 A 
ENDBRANCH  22  30
ENDBRANCH  21  22
ENDBRANCH  20  21
ENDBRANCH   1  20
TORSDOF 7
ENDMDL
MODEL 2
REMARK VINA RESULT:      -9.3      1.556      2.423
REMARK  Name = Fluspirilene
REMARK  7 active torsions:
REMARK  status: ('A' for Active; 'I' for Inactive)
REMARK    1  A    between atoms: C_5  and  C_8
REMARK    2  A    between atoms: C_8  and  C_9
REMARK    3  A    between atoms: C_8  and  C_29
REMARK    4  A    between atoms: C_9  and  C_10
REMARK    5  A    between atoms: C_10  and  C_11
REMARK    6  A    between atoms: C_11  and  N_12
REMARK    7  A    between atoms: N_18  and  C_23
REMARK                            x       y       z     vdW  Elec       q    Type
REMARK                         _______ _______ _______ _____ _____    ______ ____
ROOT
ATOM      1  C   UNL     1      -5.201   2.828 126.339  0.00  0.00    +0.000 C 
ENDROOT
BRANCH   1   2
ATOM      2  N   UNL     1      -5.915   2.367 127.544  0.00  0.00    +0.000 NA
ATOM      3  C   UNL     1      -7.354   2.093 127.514  0.00  0.00    +0.000 C 
ATOM      4  C   UNL     1      -7.727   0.626 127.230  0.00  0.00    +0.000 C 
ATOM      5  C   UNL     1      -6.866  -0.333 128.063  0.00  0.00    +0.000 C 
ATOM      6  C   UNL     1      -5.412   0.005 127.917  0.00  0.00    +0.000 C 
ATOM      7  C   UNL     1      -5.212   1.413 128.403  0.00  0.00    +0.000 C 
ATOM      8  N   UNL     1      -7.170  -1.737 127.738  0.00  0.00    +0.000 N 
ATOM      9  C   UNL     1      -7.602  -2.454 128.920  0.00  0.00    +0.000 C 
ATOM     10  N   UNL     1      -8.059  -1.407 129.768  0.00  0.00    +0.000 N 
ATOM     11  C   UNL     1      -7.315  -0.279 129.544  0.00  0.00    +0.000 C 
ATOM     12  O   UNL     1      -7.120   0.569 130.409  0.00  0.00    +0.000 OA
ATOM     13  H   UNL     1      -8.478  -1.537 130.675  0.00  0.00    +0.000 HD
BRANCH   8  14
ATOM     14  C   UNL     1      -7.008  -2.349 126.524  0.00  0.00    +0.000 A 
ATOM     15  C   UNL     1      -8.076  -3.024 125.926  0.00  0.00    +0.000 A 
ATOM     16  C   UNL     1      -7.919  -3.716 124.722  0.00  0.00    +0.000 A 
ATOM     17  C   UNL     1      -6.706  -3.674 124.042  0.00  0.00    +0.000 A 
ATOM     18  C   UNL     1      -5.641  -2.978 124.591  0.00  0.00    +0.000 A 
ATOM     19  C   UNL     1      -5.794  -2.344 125.826  0.00  0.00    +0.000 A 
ENDBRANCH   8  14
ENDBRANCH   1   2
BRANCH   1  20
ATOM     20  C   UNL     1      -5.910   4.098 125.881  0.00  0.00    +0.000 C 
BRANCH  20  21
ATOM     21  C   UNL     1      -6.746   4.180 124.656  0.00  0.00    +0.000 C 
BRANCH  21  22
ATOM     22  C   UNL     1      -6.298   3.135 123.565  0.00  0.00    +0.000 C 
BRANCH  22  27
ATOM     23  F   UNL     1      -5.480   5.654 118.507  0.00  0.00    +0.000 F 
ATOM     24  C   UNL     1      -5.656   5.039 119.682  0.00  0.00    +0.000 A 
ATOM     25  C   UNL     1      -4.741   5.230 120.698  0.00  0.00    +0.000 A 
ATOM     26  C   UNL     1      -4.899   4.520 121.889  0.00  0.00    +0.000 A 
ATOM     27  C   UNL     1      -6.054   3.763 122.166  0.00  0.00    +0.000 A 
ATOM     28  C   UNL     1      -6.963   3.614 121.107  0.00  0.00    +0.000 A 
ATOM     29  C   UNL     1      -6.741   4.201 119.861  0.00  0.00    +0.000 A 
ENDBRANCH  22  27
BRANCH  22  30
ATOM     30  C   UNL     1      -7.323   1.994 123.550  0.00  0.00    +0.000 A 
ATOM     31  C   UNL     1      -6.894   0.659 123.445  0.00  0.00    +0.000 A 
ATOM     32  C   UNL     1      -7.825  -0.356 123.231  0.00  0.00    +0.000 A 
ATOM     33  C   UNL     1      -9.182  -0.055 123.214  0.00  0.00    +0.000 A 
ATOM     34  F   UNL     1     -10.076  -1.029 123.022  0.00  0.00    +0.000 F 
ATOM     35  C   UNL     1      -9.632   1.242 123.380  0.00  0.00    +0.000 A 
ATOM     36  C   UNL     1      -8.706   2.258 123.534  0.00  0.00    +0.000 A 
ENDBRANCH  22  30
ENDBRANCH  21  22
ENDBRANCH  20  21
ENDBRANCH   1  20
TORSDOF 7
ENDMDL
MODEL 3
REMARK VINA RESULT:      -9.2      3.875      6.476
REMARK  Name = Fluspirilene
REMARK  7 active torsions:
REMARK  status: ('A' for Active; 'I' for Inactive)
REMARK    1  A    between atoms: C_5  and  C_8
REMARK    2  A    between atoms: C_8  and  C_9
REMARK    3  A    between atoms: C_8  and  C_29
REMARK    4  A    between atoms: C_9  and  C_10
REMARK    5  A    between atoms: C_10  and  C_11
REMARK    6  A    between atoms: C_11  and  N_12
REMARK    7  A    between atoms: N_18  and  C_23
REMARK                            x       y       z     vdW  Elec       q    Type
REMARK                         _______ _______ _______ _____ _____    ______ ____
ROOT
ATOM      1  C   UNL     1      -7.870   3.039 128.122  0.00  0.00    +0.000 C 
ENDROOT
BRANCH   1   2
ATOM      2  N   UNL     1      -7.972   3.320 129.567  0.00  0.00    +0.000 NA
ATOM      3  C   UNL     1      -7.484   4.581 130.131  0.00  0.00    +0.000 C 
ATOM      4  C   UNL     1      -8.548   5.688 130.257  0.00  0.00    +0.000 C 
ATOM      5  C   UNL     1      -9.852   5.134 130.847  0.00  0.00    +0.000 C 
ATOM      6  C   UNL     1     -10.283   3.903 130.107  0.00  0.00    +0.000 C 
ATOM      7  C   UNL     1      -9.193   2.876 130.241  0.00  0.00    +0.000 C 
ATOM      8  N   UNL     1     -10.894   6.173 130.899  0.00  0.00    +0.000 N 
ATOM      9  C   UNL     1     -11.358   6.366 132.258  0.00  0.00    +0.000 C 
ATOM     10  N   UNL     1     -10.269   5.874 133.030  0.00  0.00    +0.000 N 
ATOM     11  C   UNL     1      -9.657   4.849 132.357  0.00  0.00    +0.000 C 
ATOM     12  O   UNL     1      -9.069   3.938 132.930  0.00  0.00    +0.000 OA
ATOM     13  H   UNL     1     -10.218   5.889 134.036  0.00  0.00    +0.000 HD
BRANCH   8  14
ATOM     14  C   UNL     1     -11.441   6.838 129.834  0.00  0.00    +0.000 A 
ATOM     15  C   UNL     1     -12.720   6.508 129.378  0.00  0.00    +0.000 A 
ATOM     16  C   UNL     1     -13.273   7.123 128.250  0.00  0.00    +0.000 A 
ATOM     17  C   UNL     1     -12.590   8.149 127.605  0.00  0.00    +0.000 A 
ATOM     18  C   UNL     1     -11.337   8.525 128.062  0.00  0.00    +0.000 A 
ATOM     19  C   UNL     1     -10.769   7.859 129.150  0.00  0.00    +0.000 A 
ENDBRANCH   8  14
ENDBRANCH   1   2
BRANCH   1  20
ATOM     20  C   UNL     1      -8.132   1.547 127.957  0.00  0.00    +0.000 C 
BRANCH  20  21
ATOM     21  C   UNL     1      -8.798   0.951 126.771  0.00  0.00    +0.000 C 
BRANCH  21  22
ATOM     22  C   UNL     1      -7.768   0.603 125.630  0.00  0.00    +0.000 C 
BRANCH  22  27
ATOM     23  F   UNL     1      -8.100   3.870 120.959  0.00  0.00    +0.000 F 
ATOM     24  C   UNL     1      -8.031   3.129 122.070  0.00  0.00    +0.000 A 
ATOM     25  C   UNL     1      -9.134   2.406 122.480  0.00  0.00    +0.000 A 
ATOM     26  C   UNL     1      -9.068   1.702 123.683  0.00  0.00    +0.000 A 
ATOM     27  C   UNL     1      -7.864   1.544 124.398  0.00  0.00    +0.000 A 
ATOM     28  C   UNL     1      -6.768   2.284 123.931  0.00  0.00    +0.000 A 
ATOM     29  C   UNL     1      -6.863   3.110 122.811  0.00  0.00    +0.000 A 
ENDBRANCH  22  27
BRANCH  22  30
ATOM     30  C   UNL     1      -7.933  -0.881 125.277  0.00  0.00    +0.000 A 
ATOM     31  C   UNL     1      -8.961  -1.639 125.865  0.00  0.00    +0.000 A 
ATOM     32  C   UNL     1      -8.988  -3.022 125.699  0.00  0.00    +0.000 A 
ATOM     33  C   UNL     1      -8.050  -3.636 124.876  0.00  0.00    +0.000 A 
ATOM     34  F   UNL     1      -8.083  -4.961 124.705  0.00  0.00    +0.000 F 
ATOM     35  C   UNL     1      -7.069  -2.903 124.234  0.00  0.00    +0.000 A 
ATOM     36  C   UNL     1      -7.006  -1.538 124.445  0.00  0.00    +0.000 A 
ENDBRANCH  22  30
ENDBRANCH  21  22
ENDBRANCH  20  21
ENDBRANCH   1  20
TORSDOF 7
ENDMDL
MODEL 4
REMARK VINA RESULT:      -9.1      4.285      7.945
REMARK  Name = Fluspirilene
REMARK  7 active torsions:
REMARK  status: ('A' for Active; 'I' for Inactive)
REMARK    1  A    between atoms: C_5  and  C_8
REMARK    2  A    between atoms: C_8  and  C_9
REMARK    3  A    between atoms: C_8  and  C_29
REMARK    4  A    between atoms: C_9  and  C_10
REMARK    5  A    between atoms: C_10  and  C_11
REMARK    6  A    between atoms: C_11  and  N_12
REMARK    7  A    between atoms: N_18  and  C_23
REMARK                            x       y       z     vdW  Elec       q    Type
REMARK                         _______ _______ _______ _____ _____    ______ ____
ROOT
ATOM      1  C   UNL     1      -7.954   2.442 128.414  0.00  0.00    +0.000 C 
ENDROOT
BRANCH   1   2
ATOM      2  N   UNL     1      -8.080   2.853 129.825  0.00  0.00    +0.000 NA
ATOM      3  C   UNL     1      -7.497   4.109 130.305  0.00  0.00    +0.000 C 
ATOM      4  C   UNL     1      -8.455   5.314 130.293  0.00  0.00    +0.000 C 
ATOM      5  C   UNL     1      -9.826   4.934 130.869  0.00  0.00    +0.000 C 
ATOM      6  C   UNL     1     -10.344   3.689 130.214  0.00  0.00    +0.000 C 
ATOM      7  C   UNL     1      -9.361   2.582 130.479  0.00  0.00    +0.000 C 
ATOM      8  N   UNL     1     -10.766   6.065 130.790  0.00  0.00    +0.000 N 
ATOM      9  C   UNL     1     -11.258   6.414 132.107  0.00  0.00    +0.000 C 
ATOM     10  N   UNL     1     -10.249   5.893 132.964  0.00  0.00    +0.000 N 
ATOM     11  C   UNL     1      -9.713   4.763 132.404  0.00  0.00    +0.000 C 
ATOM     12  O   UNL     1      -9.234   3.855 133.075  0.00  0.00    +0.000 OA
ATOM     13  H   UNL     1     -10.233   5.990 133.967  0.00  0.00    +0.000 HD
BRANCH   8  14
ATOM     14  C   UNL     1     -11.209   6.683 129.652  0.00  0.00    +0.000 A 
ATOM     15  C   UNL     1     -12.483   6.403 129.147  0.00  0.00    +0.000 A 
ATOM     16  C   UNL     1     -12.932   6.968 127.949  0.00  0.00    +0.000 A 
ATOM     17  C   UNL     1     -12.147   7.896 127.273  0.00  0.00    +0.000 A 
ATOM     18  C   UNL     1     -10.896   8.223 127.773  0.00  0.00    +0.000 A 
ATOM     19  C   UNL     1     -10.434   7.604 128.936  0.00  0.00    +0.000 A 
ENDBRANCH   8  14
ENDBRANCH   1   2
BRANCH   1  20
ATOM     20  C   UNL     1      -7.193   1.121 128.421  0.00  0.00    +0.000 C 
BRANCH  20  21
ATOM     21  C   UNL     1      -7.839  -0.204 128.243  0.00  0.00    +0.000 C 
BRANCH  21  22
ATOM     22  C   UNL     1      -6.897  -1.223 127.497  0.00  0.00    +0.000 C 
BRANCH  22  27
ATOM     23  F   UNL     1      -9.462  -3.705 123.041  0.00  0.00    +0.000 F 
ATOM     24  C   UNL     1      -8.853  -3.151 124.094  0.00  0.00    +0.000 A 
ATOM     25  C   UNL     1      -7.535  -2.752 123.991  0.00  0.00    +0.000 A 
ATOM     26  C   UNL     1      -6.893  -2.249 125.124  0.00  0.00    +0.000 A 
ATOM     27  C   UNL     1      -7.586  -1.955 126.314  0.00  0.00    +0.000 A 
ATOM     28  C   UNL     1      -8.927  -2.364 126.363  0.00  0.00    +0.000 A 
ATOM     29  C   UNL     1      -9.541  -3.003 125.285  0.00  0.00    +0.000 A 
ENDBRANCH  22  27
BRANCH  22  30
ATOM     30  C   UNL     1      -6.306  -2.178 128.542  0.00  0.00    +0.000 A 
ATOM     31  C   UNL     1      -4.946  -2.532 128.489  0.00  0.00    +0.000 A 
ATOM     32  C   UNL     1      -4.458  -3.547 129.311  0.00  0.00    +0.000 A 
ATOM     33  C   UNL     1      -5.299  -4.142 130.245  0.00  0.00    +0.000 A 
ATOM     34  F   UNL     1      -4.829  -5.105 131.043  0.00  0.00    +0.000 F 
ATOM     35  C   UNL     1      -6.624  -3.764 130.361  0.00  0.00    +0.000 A 
ATOM     36  C   UNL     1      -7.124  -2.799 129.506  0.00  0.00    +0.000 A 
ENDBRANCH  22  30
ENDBRANCH  21  22
ENDBRANCH  20  21
ENDBRANCH   1  20
TORSDOF 7
ENDMDL
MODEL 5
REMARK VINA RESULT:      -9.1      4.010      8.176
REMARK  Name = Fluspirilene
REMARK  7 active torsions:
REMARK  status: ('A' for Active; 'I' for Inactive)
REMARK    1  A    between atoms: C_5  and  C_8
REMARK    2  A    between atoms: C_8  and  C_9
REMARK    3  A    between atoms: C_8  and  C_29
REMARK    4  A    between atoms: C_9  and  C_10
REMARK    5  A    between atoms: C_10  and  C_11
REMARK    6  A    between atoms: C_11  and  N_12
REMARK    7  A    between atoms: N_18  and  C_23
REMARK                            x       y       z     vdW  Elec       q    Type
REMARK                         _______ _______ _______ _____ _____    ______ ____
ROOT
ATOM      1  C   UNL     1      -7.985   2.516 128.317  0.00  0.00    +0.000 C 
ENDROOT
BRANCH   1   2
ATOM      2  N   UNL     1      -8.023   2.907 129.738  0.00  0.00    +0.000 NA
ATOM      3  C   UNL     1      -7.419   4.161 130.196  0.00  0.00    +0.000 C 
ATOM      4  C   UNL     1      -8.385   5.358 130.263  0.00  0.00    +0.000 C 
ATOM      5  C   UNL     1      -9.713   4.959 130.922  0.00  0.00    +0.000 C 
ATOM      6  C   UNL     1     -10.263   3.718 130.285  0.00  0.00    +0.000 C 
ATOM      7  C   UNL     1      -9.257   2.616 130.471  0.00  0.00    +0.000 C 
ATOM      8  N   UNL     1     -10.664   6.083 130.920  0.00  0.00    +0.000 N 
ATOM      9  C   UNL     1     -11.073   6.411 132.270  0.00  0.00    +0.000 C 
ATOM     10  N   UNL     1     -10.006   5.887 133.053  0.00  0.00    +0.000 N 
ATOM     11  C   UNL     1      -9.499   4.769 132.444  0.00  0.00    +0.000 C 
ATOM     12  O   UNL     1      -8.971   3.856 133.070  0.00  0.00    +0.000 OA
ATOM     13  H   UNL     1      -9.926   5.970 134.054  0.00  0.00    +0.000 HD
BRANCH   8  14
ATOM     14  C   UNL     1     -11.185   6.712 129.821  0.00  0.00    +0.000 A 
ATOM     15  C   UNL     1     -10.468   7.728 129.184  0.00  0.00    +0.000 A 
ATOM     16  C   UNL     1     -11.006   8.433 128.103  0.00  0.00    +0.000 A 
ATOM     17  C   UNL     1     -12.245   8.075 127.579  0.00  0.00    +0.000 A 
ATOM     18  C   UNL     1     -12.960   7.044 128.166  0.00  0.00    +0.000 A 
ATOM     19  C   UNL     1     -12.438   6.390 129.284  0.00  0.00    +0.000 A 
ENDBRANCH   8  14
ENDBRANCH   1   2
BRANCH   1  20
ATOM     20  C   UNL     1      -8.179   1.004 128.285  0.00  0.00    +0.000 C 
BRANCH  20  21
ATOM     21  C   UNL     1      -7.395   0.090 127.415  0.00  0.00    +0.000 C 
BRANCH  21  22
ATOM     22  C   UNL     1      -7.866  -1.407 127.560  0.00  0.00    +0.000 C 
BRANCH  22  27
ATOM     23  F   UNL     1      -4.272  -4.497 130.743  0.00  0.00    +0.000 F 
ATOM     24  C   UNL     1      -5.116  -3.797 129.978  0.00  0.00    +0.000 A 
ATOM     25  C   UNL     1      -6.472  -3.841 130.236  0.00  0.00    +0.000 A 
ATOM     26  C   UNL     1      -7.343  -3.167 129.380  0.00  0.00    +0.000 A 
ATOM     27  C   UNL     1      -6.885  -2.290 128.377  0.00  0.00    +0.000 A 
ATOM     28  C   UNL     1      -5.498  -2.267 128.165  0.00  0.00    +0.000 A 
ATOM     29  C   UNL     1      -4.626  -3.051 128.921  0.00  0.00    +0.000 A 
ENDBRANCH  22  27
BRANCH  22  30
ATOM     30  C   UNL     1      -8.150  -1.954 126.155  0.00  0.00    +0.000 A 
ATOM     31  C   UNL     1      -8.427  -1.073 125.094  0.00  0.00    +0.000 A 
ATOM     32  C   UNL     1      -8.878  -1.573 123.874  0.00  0.00    +0.000 A 
ATOM     33  C   UNL     1      -8.965  -2.947 123.681  0.00  0.00    +0.000 A 
ATOM     34  F   UNL     1      -9.385  -3.427 122.507  0.00  0.00    +0.000 F 
ATOM     35  C   UNL     1      -8.636  -3.835 124.688  0.00  0.00    +0.000 A 
ATOM     36  C   UNL     1      -8.244  -3.339 125.919  0.00  0.00    +0.000 A 
ENDBRANCH  22  30
ENDBRANCH  21  22
ENDBRANCH  20  21
ENDBRANCH   1  20
TORSDOF 7
ENDMDL
MODEL 6
REMARK VINA RESULT:      -9.1      3.059      5.592
REMARK  Name = Fluspirilene
REMARK  7 active torsions:
REMARK  status: ('A' for Active; 'I' for Inactive)
REMARK    1  A    between atoms: C_5  and  C_8
REMARK    2  A    between atoms: C_8  and  C_9
REMARK    3  A    between atoms: C_8  and  C_29
REMARK    4  A    between atoms: C_9  and  C_10
REMARK    5  A    between atoms: C_10  and  C_11
REMARK    6  A    between atoms: C_11  and  N_12
REMARK    7  A    between atoms: N_18  and  C_23
REMARK                            x       y       z     vdW  Elec       q    Type
REMARK                         _______ _______ _______ _____ _____    ______ ____
ROOT
ATOM      1  C   UNL     1      -8.621   1.779 127.320  0.00  0.00    +0.000 C 
ENDROOT
BRANCH   1   2
ATOM      2  N   UNL     1      -8.043   2.351 128.551  0.00  0.00    +0.000 NA
ATOM      3  C   UNL     1      -7.269   3.595 128.519  0.00  0.00    +0.000 C 
ATOM      4  C   UNL     1      -8.085   4.871 128.798  0.00  0.00    +0.000 C 
ATOM      5  C   UNL     1      -9.018   4.677 130.001  0.00  0.00    +0.000 C 
ATOM      6  C   UNL     1      -9.818   3.418 129.848  0.00  0.00    +0.000 C 
ATOM      7  C   UNL     1      -8.856   2.265 129.765  0.00  0.00    +0.000 C 
ATOM      8  N   UNL     1      -9.852   5.870 130.223  0.00  0.00    +0.000 N 
ATOM      9  C   UNL     1      -9.641   6.403 131.553  0.00  0.00    +0.000 C 
ATOM     10  N   UNL     1      -8.357   5.892 131.891  0.00  0.00    +0.000 N 
ATOM     11  C   UNL     1      -8.184   4.665 131.306  0.00  0.00    +0.000 C 
ATOM     12  O   UNL     1      -7.464   3.796 131.787  0.00  0.00    +0.000 OA
ATOM     13  H   UNL     1      -7.858   6.095 132.743  0.00  0.00    +0.000 HD
BRANCH   8  14
ATOM     14  C   UNL     1     -10.773   6.397 129.357  0.00  0.00    +0.000 A 
ATOM     15  C   UNL     1     -12.137   6.153 129.544  0.00  0.00    +0.000 A 
ATOM     16  C   UNL     1     -13.093   6.621 128.637  0.00  0.00    +0.000 A 
ATOM     17  C   UNL     1     -12.709   7.422 127.566  0.00  0.00    +0.000 A 
ATOM     18  C   UNL     1     -11.367   7.714 127.380  0.00  0.00    +0.000 A 
ATOM     19  C   UNL     1     -10.417   7.187 128.257  0.00  0.00    +0.000 A 
ENDBRANCH   8  14
ENDBRANCH   1   2
BRANCH   1  20
ATOM     20  C   UNL     1      -7.631   2.085 126.202  0.00  0.00    +0.000 C 
BRANCH  20  21
ATOM     21  C   UNL     1      -8.021   2.665 124.891  0.00  0.00    +0.000 C 
BRANCH  21  22
ATOM     22  C   UNL     1      -7.229   2.008 123.698  0.00  0.00    +0.000 C 
BRANCH  22  27
ATOM     23  F   UNL     1      -7.608   4.779 118.720  0.00  0.00    +0.000 F 
ATOM     24  C   UNL     1      -7.518   4.157 119.900  0.00  0.00    +0.000 A 
ATOM     25  C   UNL     1      -8.667   3.829 120.591  0.00  0.00    +0.000 A 
ATOM     26  C   UNL     1      -8.551   3.251 121.856  0.00  0.00    +0.000 A 
ATOM     27  C   UNL     1      -7.316   2.816 122.375  0.00  0.00    +0.000 A 
ATOM     28  C   UNL     1      -6.179   3.158 121.627  0.00  0.00    +0.000 A 
ATOM     29  C   UNL     1      -6.273   3.867 120.429  0.00  0.00    +0.000 A 
ENDBRANCH  22  27
BRANCH  22  30
ATOM     30  C   UNL     1      -7.702   0.555 123.555  0.00  0.00    +0.000 A 
ATOM     31  C   UNL     1      -6.772  -0.499 123.595  0.00  0.00    +0.000 A 
ATOM     32  C   UNL     1      -7.173  -1.793 123.269  0.00  0.00    +0.000 A 
ATOM     33  C   UNL     1      -8.511  -2.052 122.993  0.00  0.00    +0.000 A 
ATOM     34  F   UNL     1      -8.898  -3.295 122.693  0.00  0.00    +0.000 F 
ATOM     35  C   UNL     1      -9.455  -1.042 123.011  0.00  0.00    +0.000 A 
ATOM     36  C   UNL     1      -9.049   0.252 123.278  0.00  0.00    +0.000 A 
ENDBRANCH  22  30
ENDBRANCH  21  22
ENDBRANCH  20  21
ENDBRANCH   1  20
TORSDOF 7
ENDMDL
MODEL 7
REMARK VINA RESULT:      -8.9      3.716      7.293
REMARK  Name = Fluspirilene
REMARK  7 active torsions:
REMARK  status: ('A' for Active; 'I' for Inactive)
REMARK    1  A    between atoms: C_5  and  C_8
REMARK    2  A    between atoms: C_8  and  C_9
REMARK    3  A    between atoms: C_8  and  C_29
REMARK    4  A    between atoms: C_9  and  C_10
REMARK    5  A    between atoms: C_10  and  C_11
REMARK    6  A    between atoms: C_11  and  N_12
REMARK    7  A    between atoms: N_18  and  C_23
REMARK                            x       y       z     vdW  Elec       q    Type
REMARK                         _______ _______ _______ _____ _____    ______ ____
ROOT
ATOM      1  C   UNL     1      -8.419   2.249 128.274  0.00  0.00    +0.000 C 
ENDROOT
BRANCH   1   2
ATOM      2  N   UNL     1      -8.332   2.707 129.673  0.00  0.00    +0.000 NA
ATOM      3  C   UNL     1      -7.641   3.951 130.023  0.00  0.00    +0.000 C 
ATOM      4  C   UNL     1      -8.546   5.194 130.102  0.00  0.00    +0.000 C 
ATOM      5  C   UNL     1      -9.836   4.888 130.875  0.00  0.00    +0.000 C 
ATOM      6  C   UNL     1     -10.487   3.647 130.343  0.00  0.00    +0.000 C 
ATOM      7  C   UNL     1      -9.518   2.508 130.507  0.00  0.00    +0.000 C 
ATOM      8  N   UNL     1     -10.735   6.054 130.887  0.00  0.00    +0.000 N 
ATOM      9  C   UNL     1     -11.026   6.463 132.246  0.00  0.00    +0.000 C 
ATOM     10  N   UNL     1      -9.927   5.926 132.973  0.00  0.00    +0.000 N 
ATOM     11  C   UNL     1      -9.516   4.759 132.385  0.00  0.00    +0.000 C 
ATOM     12  O   UNL     1      -8.982   3.851 133.014  0.00  0.00    +0.000 OA
ATOM     13  H   UNL     1      -9.767   6.052 133.960  0.00  0.00    +0.000 HD
BRANCH   8  14
ATOM     14  C   UNL     1     -11.310   6.656 129.800  0.00  0.00    +0.000 A 
ATOM     15  C   UNL     1     -12.598   6.296 129.392  0.00  0.00    +0.000 A 
ATOM     16  C   UNL     1     -13.180   6.844 128.246  0.00  0.00    +0.000 A 
ATOM     17  C   UNL     1     -12.517   7.835 127.528  0.00  0.00    +0.000 A 
ATOM     18  C   UNL     1     -11.256   8.242 127.934  0.00  0.00    +0.000 A 
ATOM     19  C   UNL     1     -10.660   7.640 129.044  0.00  0.00    +0.000 A 
ENDBRANCH   8  14
ENDBRANCH   1   2
BRANCH   1  20
ATOM     20  C   UNL     1      -6.990   1.956 127.831  0.00  0.00    +0.000 C 
BRANCH  20  21
ATOM     21  C   UNL     1      -6.573   1.844 126.410  0.00  0.00    +0.000 C 
BRANCH  21  22
ATOM     22  C   UNL     1      -7.770   1.427 125.475  0.00  0.00    +0.000 C 
BRANCH  22  27
ATOM     23  F   UNL     1      -8.198  -4.157 124.363  0.00  0.00    +0.000 F 
ATOM     24  C   UNL     1      -8.082  -2.856 124.649  0.00  0.00    +0.000 A 
ATOM     25  C   UNL     1      -7.019  -2.136 124.141  0.00  0.00    +0.000 A 
ATOM     26  C   UNL     1      -6.872  -0.799 124.514  0.00  0.00    +0.000 A 
ATOM     27  C   UNL     1      -7.864  -0.104 125.233  0.00  0.00    +0.000 A 
ATOM     28  C   UNL     1      -8.933  -0.877 125.712  0.00  0.00    +0.000 A 
ATOM     29  C   UNL     1      -9.015  -2.248 125.469  0.00  0.00    +0.000 A 
ENDBRANCH  22  27
BRANCH  22  30
ATOM     30  C   UNL     1      -7.671   2.243 124.180  0.00  0.00    +0.000 A 
ATOM     31  C   UNL     1      -8.784   2.360 123.330  0.00  0.00    +0.000 A 
ATOM     32  C   UNL     1      -8.638   2.930 122.066  0.00  0.00    +0.000 A 
ATOM     33  C   UNL     1      -7.411   3.462 121.688  0.00  0.00    +0.000 A 
ATOM     34  F   UNL     1      -7.273   4.021 120.481  0.00  0.00    +0.000 F 
ATOM     35  C   UNL     1      -6.318   3.418 122.533  0.00  0.00    +0.000 A 
ATOM     36  C   UNL     1      -6.446   2.800 123.764  0.00  0.00    +0.000 A 
ENDBRANCH  22  30
ENDBRANCH  21  22
ENDBRANCH  20  21
ENDBRANCH   1  20
TORSDOF 7
ENDMDL
MODEL 8
REMARK VINA RESULT:      -8.8      3.886      6.304
REMARK  Name = Fluspirilene
REMARK  7 active torsions:
REMARK  status: ('A' for Active; 'I' for Inactive)
REMARK    1  A    between atoms: C_5  and  C_8
REMARK    2  A    between atoms: C_8  and  C_9
REMARK    3  A    between atoms: C_8  and  C_29
REMARK    4  A    between atoms: C_9  and  C_10
REMARK    5  A    between atoms: C_10  and  C_11
REMARK    6  A    between atoms: C_11  and  N_12
REMARK    7  A    between atoms: N_18  and  C_23
REMARK                            x       y       z     vdW  Elec       q    Type
REMARK                         _______ _______ _______ _____ _____    ______ ____
ROOT
ATOM      1  C   UNL     1      -5.251   2.619 127.697  0.00  0.00    +0.000 C 
ENDROOT
BRANCH   1   2
ATOM      2  N   UNL     1      -6.503   3.213 128.202  0.00  0.00    +0.000 NA
ATOM      3  C   UNL     1      -7.808   2.663 127.826  0.00  0.00    +0.000 C 
ATOM      4  C   UNL     1      -8.381   1.627 128.812  0.00  0.00    +0.000 C 
ATOM      5  C   UNL     1      -8.233   2.106 130.262  0.00  0.00    +0.000 C 
ATOM      6  C   UNL     1      -6.824   2.543 130.530  0.00  0.00    +0.000 C 
ATOM      7  C   UNL     1      -6.503   3.673 129.591  0.00  0.00    +0.000 C 
ATOM      8  N   UNL     1      -8.713   1.085 131.209  0.00  0.00    +0.000 N 
ATOM      9  C   UNL     1      -9.775   1.615 132.039  0.00  0.00    +0.000 C 
ATOM     10  N   UNL     1     -10.271   2.695 131.257  0.00  0.00    +0.000 N 
ATOM     11  C   UNL     1      -9.244   3.247 130.537  0.00  0.00    +0.000 C 
ATOM     12  O   UNL     1      -9.230   4.426 130.198  0.00  0.00    +0.000 OA
ATOM     13  H   UNL     1     -11.056   3.277 131.503  0.00  0.00    +0.000 HD
BRANCH   8  14
ATOM     14  C   UNL     1      -8.207  -0.177 131.378  0.00  0.00    +0.000 A 
ATOM     15  C   UNL     1      -8.327  -1.127 130.360  0.00  0.00    +0.000 A 
ATOM     16  C   UNL     1      -7.882  -2.441 130.533  0.00  0.00    +0.000 A 
ATOM     17  C   UNL     1      -7.224  -2.810 131.703  0.00  0.00    +0.000 A 
ATOM     18  C   UNL     1      -7.055  -1.876 132.713  0.00  0.00    +0.000 A 
ATOM     19  C   UNL     1      -7.561  -0.585 132.551  0.00  0.00    +0.000 A 
ENDBRANCH   8  14
ENDBRANCH   1   2
BRANCH   1  20
ATOM     20  C   UNL     1      -5.631   1.801 126.468  0.00  0.00    +0.000 C 
BRANCH  20  21
ATOM     21  C   UNL     1      -5.281   0.368 126.291  0.00  0.00    +0.000 C 
BRANCH  21  22
ATOM     22  C   UNL     1      -6.107  -0.564 127.256  0.00  0.00    +0.000 C 
BRANCH  22  27
ATOM     23  F   UNL     1      -3.176  -2.971 131.524  0.00  0.00    +0.000 F 
ATOM     24  C   UNL     1      -3.836  -2.400 130.510  0.00  0.00    +0.000 A 
ATOM     25  C   UNL     1      -4.244  -3.170 129.439  0.00  0.00    +0.000 A 
ATOM     26  C   UNL     1      -4.861  -2.545 128.355  0.00  0.00    +0.000 A 
ATOM     27  C   UNL     1      -5.256  -1.193 128.392  0.00  0.00    +0.000 A 
ATOM     28  C   UNL     1      -4.833  -0.457 129.509  0.00  0.00    +0.000 A 
ATOM     29  C   UNL     1      -4.085  -1.040 130.532  0.00  0.00    +0.000 A 
ENDBRANCH  22  27
BRANCH  22  30
ATOM     30  C   UNL     1      -6.842  -1.604 126.399  0.00  0.00    +0.000 A 
ATOM     31  C   UNL     1      -6.314  -1.999 125.157  0.00  0.00    +0.000 A 
ATOM     32  C   UNL     1      -7.076  -2.787 124.297  0.00  0.00    +0.000 A 
ATOM     33  C   UNL     1      -8.319  -3.255 124.709  0.00  0.00    +0.000 A 
ATOM     34  F   UNL     1      -9.045  -4.022 123.889  0.00  0.00    +0.000 F 
ATOM     35  C   UNL     1      -8.831  -2.933 125.952  0.00  0.00    +0.000 A 
ATOM     36  C   UNL     1      -8.101  -2.103 126.784  0.00  0.00    +0.000 A 
ENDBRANCH  22  30
ENDBRANCH  21  22
ENDBRANCH  20  21
ENDBRANCH   1  20
TORSDOF 7
ENDMDL
MODEL 9
REMARK VINA RESULT:      -8.8      3.842      7.326
REMARK  Name = Fluspirilene
REMARK  7 active torsions:
REMARK  status: ('A' for Active; 'I' for Inactive)
REMARK    1  A    between atoms: C_5  and  C_8
REMARK    2  A    between atoms: C_8  and  C_9
REMARK    3  A    between atoms: C_8  and  C_29
REMARK    4  A    between atoms: C_9  and  C_10
REMARK    5  A    between atoms: C_10  and  C_11
REMARK    6  A    between atoms: C_11  and  N_12
REMARK    7  A    between atoms: N_18  and  C_23
REMARK                            x       y       z     vdW  Elec       q    Type
REMARK                         _______ _______ _______ _____ _____    ______ ____
ROOT
ATOM      1  C   UNL     1      -8.148   2.770 127.810  0.00  0.00    +0.000 C 
ENDROOT
BRANCH   1   2
ATOM      2  N   UNL     1      -8.050   2.958 129.270  0.00  0.00    +0.000 NA
ATOM      3  C   UNL     1      -7.328   4.098 129.841  0.00  0.00    +0.000 C 
ATOM      4  C   UNL     1      -8.203   5.327 130.153  0.00  0.00    +0.000 C 
ATOM      5  C   UNL     1      -9.500   4.914 130.862  0.00  0.00    +0.000 C 
ATOM      6  C   UNL     1     -10.181   3.809 130.112  0.00  0.00    +0.000 C 
ATOM      7  C   UNL     1      -9.241   2.637 130.058  0.00  0.00    +0.000 C 
ATOM      8  N   UNL     1     -10.370   6.079 131.095  0.00  0.00    +0.000 N 
ATOM      9  C   UNL     1     -10.651   6.236 132.507  0.00  0.00    +0.000 C 
ATOM     10  N   UNL     1      -9.565   5.547 133.117  0.00  0.00    +0.000 N 
ATOM     11  C   UNL     1      -9.183   4.499 132.320  0.00  0.00    +0.000 C 
ATOM     12  O   UNL     1      -8.672   3.478 132.768  0.00  0.00    +0.000 OA
ATOM     13  H   UNL     1      -9.403   5.483 134.109  0.00  0.00    +0.000 HD
BRANCH   8  14
ATOM     14  C   UNL     1     -10.930   6.886 130.140  0.00  0.00    +0.000 A 
ATOM     15  C   UNL     1     -12.320   6.980 130.022  0.00  0.00    +0.000 A 
ATOM     16  C   UNL     1     -12.916   7.741 129.012  0.00  0.00    +0.000 A 
ATOM     17  C   UNL     1     -12.130   8.500 128.150  0.00  0.00    +0.000 A 
ATOM     18  C   UNL     1     -10.750   8.458 128.271  0.00  0.00    +0.000 A 
ATOM     19  C   UNL     1     -10.167   7.644 129.243  0.00  0.00    +0.000 A 
ENDBRANCH   8  14
ENDBRANCH   1   2
BRANCH   1  20
ATOM     20  C   UNL     1      -8.063   1.268 127.566  0.00  0.00    +0.000 C 
BRANCH  20  21
ATOM     21  C   UNL     1      -7.093   0.637 126.635  0.00  0.00    +0.000 C 
BRANCH  21  22
ATOM     22  C   UNL     1      -7.815  -0.144 125.473  0.00  0.00    +0.000 C 
BRANCH  22  27
ATOM     23  F   UNL     1      -5.092  -4.826 123.664  0.00  0.00    +0.000 F 
ATOM     24  C   UNL     1      -5.725  -3.738 124.116  0.00  0.00    +0.000 A 
ATOM     25  C   UNL     1      -5.019  -2.569 124.318  0.00  0.00    +0.000 A 
ATOM     26  C   UNL     1      -5.679  -1.468 124.864  0.00  0.00    +0.000 A 
ATOM     27  C   UNL     1      -7.076  -1.440 125.042  0.00  0.00    +0.000 A 
ATOM     28  C   UNL     1      -7.751  -2.647 124.807  0.00  0.00    +0.000 A 
ATOM     29  C   UNL     1      -7.078  -3.799 124.400  0.00  0.00    +0.000 A 
ENDBRANCH  22  27
BRANCH  22  30
ATOM     30  C   UNL     1      -8.051   0.835 124.315  0.00  0.00    +0.000 A 
ATOM     31  C   UNL     1      -7.080   1.801 123.997  0.00  0.00    +0.000 A 
ATOM     32  C   UNL     1      -7.377   2.811 123.083  0.00  0.00    +0.000 A 
ATOM     33  C   UNL     1      -8.600   2.805 122.422  0.00  0.00    +0.000 A 
ATOM     34  F   UNL     1      -8.880   3.766 121.536  0.00  0.00    +0.000 F 
ATOM     35  C   UNL     1      -9.546   1.828 122.671  0.00  0.00    +0.000 A 
ATOM     36  C   UNL     1      -9.276   0.859 123.620  0.00  0.00    +0.000 A 
ENDBRANCH  22  30
ENDBRANCH  21  22
ENDBRANCH  20  21
ENDBRANCH   1  20
TORSDOF 7
ENDMDL
