MODEL 1
REMARK VINA RESULT:      -8.8      0.000      0.000
REMARK  Name = Fluticasone
REMARK  8 active torsions:
REMARK  status: ('A' for Active; 'I' for Inactive)
REMARK    1  A    between atoms: C_4  and  C_5
REMARK    2  A    between atoms: C_6  and  O_7
REMARK    3  A    between atoms: C_6  and  C_8
REMARK    4  A    between atoms: C_8  and  S_10
REMARK    5  A    between atoms: S_10  and  C_11
REMARK    6  A    between atoms: C_13  and  C_14
REMARK    7  A    between atoms: C_16  and  O_17
REMARK    8  A    between atoms: C_31  and  C_32
REMARK                            x       y       z     vdW  Elec       q    Type
REMARK                         _______ _______ _______ _____ _____    ______ ____
ROOT
ATOM      1  C   UNL     1      -5.686  -1.590 125.414  0.00  0.00    +0.000 C 
ATOM      2  C   UNL     1      -6.212  -2.886 125.094  0.00  0.00    +0.000 C 
ATOM      3  C   UNL     1      -7.416  -2.027 125.482  0.00  0.00    +0.000 C 
ATOM      4  C   UNL     1      -8.889  -2.988 126.077  0.00  0.00    +0.000 C 
ATOM      5  C   UNL     1      -6.923  -0.004 125.614  0.00  0.00    +0.000 C 
ATOM      6  C   UNL     1      -7.094  -0.729 124.517  0.00  0.00    +0.000 C 
ATOM      7  C   UNL     1      -6.847  -0.496 123.082  0.00  0.00    +0.000 C 
ATOM      8  C   UNL     1      -8.751  -0.509 125.393  0.00  0.00    +0.000 C 
ATOM      9  C   UNL     1      -8.458  -0.532 127.241  0.00  0.00    +0.000 C 
ATOM     10  C   UNL     1      -7.124  -1.481 127.955  0.00  0.00    +0.000 C 
ATOM     11  F   UNL     1      -7.176  -2.711 127.301  0.00  0.00    +0.000 F 
ATOM     12  C   UNL     1      -5.659  -1.320 127.234  0.00  0.00    +0.000 C 
ATOM     13  C   UNL     1      -4.776  -2.484 127.713  0.00  0.00    +0.000 C 
ATOM     14  C   UNL     1      -4.846  -2.697 129.189  0.00  0.00    +0.000 C 
ATOM     15  F   UNL     1      -3.907  -3.629 129.482  0.00  0.00    +0.000 F 
ATOM     16  C   UNL     1      -6.187  -3.272 129.506  0.00  0.00    +0.000 C 
ATOM     17  C   UNL     1      -6.391  -4.337 130.321  0.00  0.00    +0.000 C 
ATOM     18  C   UNL     1      -5.907  -3.691 131.524  0.00  0.00    +0.000 C 
ATOM     19  O   UNL     1      -4.812  -3.868 132.009  0.00  0.00    +0.000 OA
ATOM     20  C   UNL     1      -7.009  -2.744 131.920  0.00  0.00    +0.000 C 
ATOM     21  C   UNL     1      -7.638  -1.997 130.920  0.00  0.00    +0.000 C 
ATOM     22  C   UNL     1      -7.386  -2.359 129.369  0.00  0.00    +0.000 C 
ATOM     23  C   UNL     1      -8.426  -3.498 128.855  0.00  0.00    +0.000 C 
ENDROOT
BRANCH   5  24
ATOM     24  O   UNL     1      -5.490   0.546 125.390  0.00  0.00    +0.000 OA
ATOM     25  H   UNL     1      -5.366   1.058 124.570  0.00  0.00    +0.000 HD
ENDBRANCH   5  24
BRANCH   5  26
ATOM     26  C   UNL     1      -7.595   1.614 124.962  0.00  0.00    +0.000 C 
ATOM     27  O   UNL     1      -6.970   2.653 124.811  0.00  0.00    +0.000 OA
BRANCH  26  28
ATOM     28  S   UNL     1      -9.382   1.827 124.586  0.00  0.00    +0.000 S 
BRANCH  28  29
ATOM     29  C   UNL     1      -9.302   2.091 122.656  0.00  0.00    +0.000 C 
ATOM     30  F   UNL     1     -10.037   1.114 122.022  0.00  0.00    +0.000 F 
ENDBRANCH  28  29
ENDBRANCH  26  28
ENDBRANCH   5  26
BRANCH   9  31
ATOM     31  O   UNL     1      -8.335   0.849 127.637  0.00  0.00    +0.000 OA
ATOM     32  H   UNL     1      -9.206   1.243 127.817  0.00  0.00    +0.000 HD
ENDBRANCH   9  31
TORSDOF 5
ENDMDL
MODEL 2
REMARK VINA RESULT:      -8.4      7.471      9.080
REMARK  Name = Fluticasone
REMARK  8 active torsions:
REMARK  status: ('A' for Active; 'I' for Inactive)
REMARK    1  A    between atoms: C_4  and  C_5
REMARK    2  A    between atoms: C_6  and  O_7
REMARK    3  A    between atoms: C_6  and  C_8
REMARK    4  A    between atoms: C_8  and  S_10
REMARK    5  A    between atoms: S_10  and  C_11
REMARK    6  A    between atoms: C_13  and  C_14
REMARK    7  A    between atoms: C_16  and  O_17
REMARK    8  A    between atoms: C_31  and  C_32
REMARK                            x       y       z     vdW  Elec       q    Type
REMARK                         _______ _______ _______ _____ _____    ______ ____
ROOT
ATOM      1  C   UNL     1      -7.817   3.162 130.424  0.00  0.00    +0.000 C 
ATOM      2  C   UNL     1      -7.136   2.735 131.614  0.00  0.00    +0.000 C 
ATOM      3  C   UNL     1      -7.799   4.069 131.963  0.00  0.00    +0.000 C 
ATOM      4  C   UNL     1      -7.005   4.978 133.374  0.00  0.00    +0.000 C 
ATOM      5  C   UNL     1      -9.156   4.674 130.498  0.00  0.00    +0.000 C 
ATOM      6  C   UNL     1      -9.314   3.724 131.410  0.00  0.00    +0.000 C 
ATOM      7  C   UNL     1     -10.324   2.673 131.634  0.00  0.00    +0.000 C 
ATOM      8  C   UNL     1      -9.284   5.411 132.255  0.00  0.00    +0.000 C 
ATOM      9  C   UNL     1      -8.069   6.512 131.351  0.00  0.00    +0.000 C 
ATOM     10  C   UNL     1      -6.633   5.830 130.536  0.00  0.00    +0.000 C 
ATOM     11  F   UNL     1      -6.109   4.915 131.449  0.00  0.00    +0.000 F 
ATOM     12  C   UNL     1      -6.897   4.518 129.588  0.00  0.00    +0.000 C 
ATOM     13  C   UNL     1      -5.535   3.858 129.320  0.00  0.00    +0.000 C 
ATOM     14  C   UNL     1      -4.479   4.840 128.934  0.00  0.00    +0.000 C 
ATOM     15  F   UNL     1      -3.396   4.109 128.573  0.00  0.00    +0.000 F 
ATOM     16  C   UNL     1      -4.122   5.631 130.148  0.00  0.00    +0.000 C 
ATOM     17  C   UNL     1      -2.853   5.894 130.547  0.00  0.00    +0.000 C 
ATOM     18  C   UNL     1      -2.504   6.699 129.394  0.00  0.00    +0.000 C 
ATOM     19  O   UNL     1      -1.846   6.310 128.456  0.00  0.00    +0.000 OA
ATOM     20  C   UNL     1      -3.208   8.011 129.616  0.00  0.00    +0.000 C 
ATOM     21  C   UNL     1      -4.522   7.991 130.094  0.00  0.00    +0.000 C 
ATOM     22  C   UNL     1      -5.149   6.618 130.662  0.00  0.00    +0.000 C 
ATOM     23  C   UNL     1      -4.812   6.427 132.241  0.00  0.00    +0.000 C 
ENDROOT
BRANCH   5  24
ATOM     24  O   UNL     1      -9.417   3.882 129.190  0.00  0.00    +0.000 OA
ATOM     25  H   UNL     1      -9.928   3.059 129.300  0.00  0.00    +0.000 HD
ENDBRANCH   5  24
BRANCH   5  26
ATOM     26  C   UNL     1     -10.926   5.270 130.435  0.00  0.00    +0.000 C 
ATOM     27  O   UNL     1     -11.715   5.111 129.516  0.00  0.00    +0.000 OA
BRANCH  26  28
ATOM     28  S   UNL     1     -11.635   6.311 131.775  0.00  0.00    +0.000 S 
BRANCH  28  29
ATOM     29  C   UNL     1     -12.769   7.502 130.727  0.00  0.00    +0.000 C 
ATOM     30  F   UNL     1     -13.161   8.571 131.501  0.00  0.00    +0.000 F 
ENDBRANCH  28  29
ENDBRANCH  26  28
ENDBRANCH   5  26
BRANCH   9  31
ATOM     31  O   UNL     1      -8.851   7.265 130.403  0.00  0.00    +0.000 OA
ATOM     32  H   UNL     1      -8.324   7.975 129.998  0.00  0.00    +0.000 HD
ENDBRANCH   9  31
TORSDOF 5
ENDMDL
MODEL 3
REMARK VINA RESULT:      -8.4      3.393      7.092
REMARK  Name = Fluticasone
REMARK  8 active torsions:
REMARK  status: ('A' for Active; 'I' for Inactive)
REMARK    1  A    between atoms: C_4  and  C_5
REMARK    2  A    between atoms: C_6  and  O_7
REMARK    3  A    between atoms: C_6  and  C_8
REMARK    4  A    between atoms: C_8  and  S_10
REMARK    5  A    between atoms: S_10  and  C_11
REMARK    6  A    between atoms: C_13  and  C_14
REMARK    7  A    between atoms: C_16  and  O_17
REMARK    8  A    between atoms: C_31  and  C_32
REMARK                            x       y       z     vdW  Elec       q    Type
REMARK                         _______ _______ _______ _____ _____    ______ ____
ROOT
ATOM      1  C   UNL     1      -6.196  -3.898 131.431  0.00  0.00    +0.000 C 
ATOM      2  C   UNL     1      -5.368  -4.736 130.610  0.00  0.00    +0.000 C 
ATOM      3  C   UNL     1      -4.715  -3.352 130.593  0.00  0.00    +0.000 C 
ATOM      4  C   UNL     1      -3.637  -3.027 129.118  0.00  0.00    +0.000 C 
ATOM      5  C   UNL     1      -5.539  -2.082 132.028  0.00  0.00    +0.000 C 
ATOM      6  C   UNL     1      -4.697  -3.088 132.221  0.00  0.00    +0.000 C 
ATOM      7  C   UNL     1      -4.187  -3.787 133.416  0.00  0.00    +0.000 C 
ATOM      8  C   UNL     1      -3.814  -1.690 131.311  0.00  0.00    +0.000 C 
ATOM      9  C   UNL     1      -5.026  -0.881 130.136  0.00  0.00    +0.000 C 
ATOM     10  C   UNL     1      -6.352  -1.816 129.388  0.00  0.00    +0.000 C 
ATOM     11  F   UNL     1      -5.756  -3.005 128.971  0.00  0.00    +0.000 F 
ATOM     12  C   UNL     1      -7.220  -2.771 130.399  0.00  0.00    +0.000 C 
ATOM     13  C   UNL     1      -8.011  -3.766 129.534  0.00  0.00    +0.000 C 
ATOM     14  C   UNL     1      -8.692  -3.115 128.376  0.00  0.00    +0.000 C 
ATOM     15  F   UNL     1      -9.471  -4.069 127.809  0.00  0.00    +0.000 F 
ATOM     16  C   UNL     1      -7.644  -2.723 127.388  0.00  0.00    +0.000 C 
ATOM     17  C   UNL     1      -7.721  -2.958 126.054  0.00  0.00    +0.000 C 
ATOM     18  C   UNL     1      -8.867  -2.101 125.824  0.00  0.00    +0.000 C 
ATOM     19  O   UNL     1     -10.005  -2.493 125.690  0.00  0.00    +0.000 OA
ATOM     20  C   UNL     1      -8.319  -0.700 125.892  0.00  0.00    +0.000 C 
ATOM     21  C   UNL     1      -7.395  -0.393 126.896  0.00  0.00    +0.000 C 
ATOM     22  C   UNL     1      -6.728  -1.578 127.763  0.00  0.00    +0.000 C 
ATOM     23  C   UNL     1      -5.398  -2.162 127.034  0.00  0.00    +0.000 C 
ENDROOT
BRANCH   5  24
ATOM     24  O   UNL     1      -6.709  -2.487 132.963  0.00  0.00    +0.000 OA
ATOM     25  H   UNL     1      -6.483  -3.142 133.648  0.00  0.00    +0.000 HD
ENDBRANCH   5  24
BRANCH   5  26
ATOM     26  C   UNL     1      -4.912  -0.954 133.380  0.00  0.00    +0.000 C 
ATOM     27  O   UNL     1      -5.577  -0.442 134.268  0.00  0.00    +0.000 OA
BRANCH  26  28
ATOM     28  S   UNL     1      -3.162  -0.390 133.422  0.00  0.00    +0.000 S 
BRANCH  28  29
ATOM     29  C   UNL     1      -3.419   1.542 133.367  0.00  0.00    +0.000 C 
ATOM     30  F   UNL     1      -2.213   2.166 133.136  0.00  0.00    +0.000 F 
ENDBRANCH  28  29
ENDBRANCH  26  28
ENDBRANCH   5  26
BRANCH   9  31
ATOM     31  O   UNL     1      -5.572   0.247 130.849  0.00  0.00    +0.000 OA
ATOM     32  H   UNL     1      -6.235  -0.036 131.501  0.00  0.00    +0.000 HD
ENDBRANCH   9  31
TORSDOF 5
ENDMDL
MODEL 4
REMARK VINA RESULT:      -8.2      7.490      8.520
REMARK  Name = Fluticasone
REMARK  8 active torsions:
REMARK  status: ('A' for Active; 'I' for Inactive)
REMARK    1  A    between atoms: C_4  and  C_5
REMARK    2  A    between atoms: C_6  and  O_7
REMARK    3  A    between atoms: C_6  and  C_8
REMARK    4  A    between atoms: C_8  and  S_10
REMARK    5  A    between atoms: S_10  and  C_11
REMARK    6  A    between atoms: C_13  and  C_14
REMARK    7  A    between atoms: C_16  and  O_17
REMARK    8  A    between atoms: C_31  and  C_32
REMARK                            x       y       z     vdW  Elec       q    Type
REMARK                         _______ _______ _______ _____ _____    ______ ____
ROOT
ATOM      1  C   UNL     1      -8.351   3.324 130.708  0.00  0.00    +0.000 C 
ATOM      2  C   UNL     1      -8.580   2.876 132.052  0.00  0.00    +0.000 C 
ATOM      3  C   UNL     1      -8.846   4.383 132.058  0.00  0.00    +0.000 C 
ATOM      4  C   UNL     1      -8.663   5.191 133.720  0.00  0.00    +0.000 C 
ATOM      5  C   UNL     1      -8.945   5.167 130.128  0.00  0.00    +0.000 C 
ATOM      6  C   UNL     1      -9.859   4.443 130.759  0.00  0.00    +0.000 C 
ATOM      7  C   UNL     1     -11.115   3.788 130.348  0.00  0.00    +0.000 C 
ATOM      8  C   UNL     1      -9.724   6.140 131.574  0.00  0.00    +0.000 C 
ATOM      9  C   UNL     1      -7.935   6.686 131.527  0.00  0.00    +0.000 C 
ATOM     10  C   UNL     1      -6.603   5.496 131.580  0.00  0.00    +0.000 C 
ATOM     11  F   UNL     1      -6.971   4.598 132.582  0.00  0.00    +0.000 F 
ATOM     12  C   UNL     1      -6.745   4.210 130.572  0.00  0.00    +0.000 C 
ATOM     13  C   UNL     1      -5.751   3.138 131.046  0.00  0.00    +0.000 C 
ATOM     14  C   UNL     1      -4.396   3.690 131.342  0.00  0.00    +0.000 C 
ATOM     15  F   UNL     1      -3.596   2.623 131.584  0.00  0.00    +0.000 F 
ATOM     16  C   UNL     1      -4.493   4.494 132.597  0.00  0.00    +0.000 C 
ATOM     17  C   UNL     1      -3.618   4.410 133.631  0.00  0.00    +0.000 C 
ATOM     18  C   UNL     1      -2.475   4.907 132.891  0.00  0.00    +0.000 C 
ATOM     19  O   UNL     1      -1.594   4.213 132.436  0.00  0.00    +0.000 OA
ATOM     20  C   UNL     1      -2.713   6.388 132.767  0.00  0.00    +0.000 C 
ATOM     21  C   UNL     1      -4.003   6.833 132.460  0.00  0.00    +0.000 C 
ATOM     22  C   UNL     1      -5.244   5.806 132.527  0.00  0.00    +0.000 C 
ATOM     23  C   UNL     1      -5.870   5.738 134.025  0.00  0.00    +0.000 C 
ENDROOT
BRANCH   5  24
ATOM     24  O   UNL     1      -8.724   4.321 128.846  0.00  0.00    +0.000 OA
ATOM     25  H   UNL     1      -7.991   3.681 128.894  0.00  0.00    +0.000 HD
ENDBRANCH   5  24
BRANCH   5  26
ATOM     26  C   UNL     1     -10.107   6.258 129.151  0.00  0.00    +0.000 C 
ATOM     27  O   UNL     1     -10.074   6.462 127.947  0.00  0.00    +0.000 OA
BRANCH  26  28
ATOM     28  S   UNL     1     -11.397   7.270 129.983  0.00  0.00    +0.000 S 
BRANCH  28  29
ATOM     29  C   UNL     1     -12.944   6.838 128.878  0.00  0.00    +0.000 C 
ATOM     30  F   UNL     1     -13.503   7.996 128.386  0.00  0.00    +0.000 F 
ENDBRANCH  28  29
ENDBRANCH  26  28
ENDBRANCH   5  26
BRANCH   9  31
ATOM     31  O   UNL     1      -7.804   7.505 130.347  0.00  0.00    +0.000 OA
ATOM     32  H   UNL     1      -8.079   8.421 130.524  0.00  0.00    +0.000 HD
ENDBRANCH   9  31
TORSDOF 5
ENDMDL
MODEL 5
REMARK VINA RESULT:      -8.1      6.624      8.040
REMARK  Name = Fluticasone
REMARK  8 active torsions:
REMARK  status: ('A' for Active; 'I' for Inactive)
REMARK    1  A    between atoms: C_4  and  C_5
REMARK    2  A    between atoms: C_6  and  O_7
REMARK    3  A    between atoms: C_6  and  C_8
REMARK    4  A    between atoms: C_8  and  S_10
REMARK    5  A    between atoms: S_10  and  C_11
REMARK    6  A    between atoms: C_13  and  C_14
REMARK    7  A    between atoms: C_16  and  O_17
REMARK    8  A    between atoms: C_31  and  C_32
REMARK                            x       y       z     vdW  Elec       q    Type
REMARK                         _______ _______ _______ _____ _____    ______ ____
ROOT
ATOM      1  C   UNL     1      -9.667   4.209 132.446  0.00  0.00    +0.000 C 
ATOM      2  C   UNL     1      -8.779   4.784 133.416  0.00  0.00    +0.000 C 
ATOM      3  C   UNL     1      -8.531   5.546 132.112  0.00  0.00    +0.000 C 
ATOM      4  C   UNL     1      -6.861   6.347 131.994  0.00  0.00    +0.000 C 
ATOM      5  C   UNL     1      -9.986   5.131 130.676  0.00  0.00    +0.000 C 
ATOM      6  C   UNL     1     -10.101   5.899 131.751  0.00  0.00    +0.000 C 
ATOM      7  C   UNL     1     -11.233   6.561 132.425  0.00  0.00    +0.000 C 
ATOM      8  C   UNL     1      -8.934   6.716 130.513  0.00  0.00    +0.000 C 
ATOM      9  C   UNL     1      -7.942   5.382 129.655  0.00  0.00    +0.000 C 
ATOM     10  C   UNL     1      -7.527   3.857 130.489  0.00  0.00    +0.000 C 
ATOM     11  F   UNL     1      -7.105   4.251 131.758  0.00  0.00    +0.000 F 
ATOM     12  C   UNL     1      -8.755   3.114 131.283  0.00  0.00    +0.000 C 
ATOM     13  C   UNL     1      -8.132   2.085 132.240  0.00  0.00    +0.000 C 
ATOM     14  C   UNL     1      -7.071   1.257 131.594  0.00  0.00    +0.000 C 
ATOM     15  F   UNL     1      -6.735   0.301 132.494  0.00  0.00    +0.000 F 
ATOM     16  C   UNL     1      -5.878   2.129 131.376  0.00  0.00    +0.000 C 
ATOM     17  C   UNL     1      -4.605   1.778 131.683  0.00  0.00    +0.000 C 
ATOM     18  C   UNL     1      -4.522   0.692 130.726  0.00  0.00    +0.000 C 
ATOM     19  O   UNL     1      -4.631  -0.481 131.004  0.00  0.00    +0.000 OA
ATOM     20  C   UNL     1      -4.375   1.370 129.390  0.00  0.00    +0.000 C 
ATOM     21  C   UNL     1      -5.164   2.492 129.120  0.00  0.00    +0.000 C 
ATOM     22  C   UNL     1      -5.985   3.201 130.313  0.00  0.00    +0.000 C 
ATOM     23  C   UNL     1      -5.073   4.309 131.078  0.00  0.00    +0.000 C 
ENDROOT
BRANCH   5  24
ATOM     24  O   UNL     1     -11.149   4.129 130.898  0.00  0.00    +0.000 OA
ATOM     25  H   UNL     1     -11.190   3.395 130.258  0.00  0.00    +0.000 HD
ENDBRANCH   5  24
BRANCH   5  26
ATOM     26  C   UNL     1     -11.105   6.106 129.540  0.00  0.00    +0.000 C 
ATOM     27  O   UNL     1     -12.103   5.692 128.970  0.00  0.00    +0.000 OA
BRANCH  26  28
ATOM     28  S   UNL     1     -10.709   7.837 129.059  0.00  0.00    +0.000 S 
BRANCH  28  29
ATOM     29  C   UNL     1     -12.494   8.622 129.088  0.00  0.00    +0.000 C 
ATOM     30  F   UNL     1     -12.737   9.180 130.322  0.00  0.00    +0.000 F 
ENDBRANCH  28  29
ENDBRANCH  26  28
ENDBRANCH   5  26
BRANCH   9  31
ATOM     31  O   UNL     1      -8.650   5.088 128.434  0.00  0.00    +0.000 OA
ATOM     32  H   UNL     1      -8.612   4.139 128.225  0.00  0.00    +0.000 HD
ENDBRANCH   9  31
TORSDOF 5
ENDMDL
MODEL 6
REMARK VINA RESULT:      -8.1      6.360      8.094
REMARK  Name = Fluticasone
REMARK  8 active torsions:
REMARK  status: ('A' for Active; 'I' for Inactive)
REMARK    1  A    between atoms: C_4  and  C_5
REMARK    2  A    between atoms: C_6  and  O_7
REMARK    3  A    between atoms: C_6  and  C_8
REMARK    4  A    between atoms: C_8  and  S_10
REMARK    5  A    between atoms: S_10  and  C_11
REMARK    6  A    between atoms: C_13  and  C_14
REMARK    7  A    between atoms: C_16  and  O_17
REMARK    8  A    between atoms: C_31  and  C_32
REMARK                            x       y       z     vdW  Elec       q    Type
REMARK                         _______ _______ _______ _____ _____    ______ ____
ROOT
ATOM      1  C   UNL     1      -8.727   3.354 128.931  0.00  0.00    +0.000 C 
ATOM      2  C   UNL     1      -8.321   2.128 129.558  0.00  0.00    +0.000 C 
ATOM      3  C   UNL     1      -8.010   3.240 130.563  0.00  0.00    +0.000 C 
ATOM      4  C   UNL     1      -6.689   2.816 131.796  0.00  0.00    +0.000 C 
ATOM      5  C   UNL     1      -8.873   5.057 130.010  0.00  0.00    +0.000 C 
ATOM      6  C   UNL     1      -9.476   3.996 130.530  0.00  0.00    +0.000 C 
ATOM      7  C   UNL     1     -10.884   3.612 130.738  0.00  0.00    +0.000 C 
ATOM      8  C   UNL     1      -8.351   4.782 131.826  0.00  0.00    +0.000 C 
ATOM      9  C   UNL     1      -6.821   5.438 130.972  0.00  0.00    +0.000 C 
ATOM     10  C   UNL     1      -6.174   4.655 129.502  0.00  0.00    +0.000 C 
ATOM     11  F   UNL     1      -6.215   3.290 129.781  0.00  0.00    +0.000 F 
ATOM     12  C   UNL     1      -7.269   4.304 128.332  0.00  0.00    +0.000 C 
ATOM     13  C   UNL     1      -6.613   3.301 127.369  0.00  0.00    +0.000 C 
ATOM     14  C   UNL     1      -5.226   3.692 126.979  0.00  0.00    +0.000 C 
ATOM     15  F   UNL     1      -4.843   2.820 126.016  0.00  0.00    +0.000 F 
ATOM     16  C   UNL     1      -4.343   3.491 128.166  0.00  0.00    +0.000 C 
ATOM     17  C   UNL     1      -3.137   2.871 128.129  0.00  0.00    +0.000 C 
ATOM     18  C   UNL     1      -2.496   3.855 127.280  0.00  0.00    +0.000 C 
ATOM     19  O   UNL     1      -2.304   3.720 126.092  0.00  0.00    +0.000 OA
ATOM     20  C   UNL     1      -2.244   5.034 128.183  0.00  0.00    +0.000 C 
ATOM     21  C   UNL     1      -3.249   5.417 129.077  0.00  0.00    +0.000 C 
ATOM     22  C   UNL     1      -4.512   4.446 129.329  0.00  0.00    +0.000 C 
ATOM     23  C   UNL     1      -4.197   3.365 130.501  0.00  0.00    +0.000 C 
ENDROOT
BRANCH   5  24
ATOM     24  O   UNL     1      -9.691   5.257 128.707  0.00  0.00    +0.000 OA
ATOM     25  H   UNL     1     -10.226   4.490 128.432  0.00  0.00    +0.000 HD
ENDBRANCH   5  24
BRANCH   5  26
ATOM     26  C   UNL     1      -9.926   6.373 130.817  0.00  0.00    +0.000 C 
ATOM     27  O   UNL     1      -9.909   6.698 131.994  0.00  0.00    +0.000 OA
BRANCH  26  28
ATOM     28  S   UNL     1     -11.237   7.260 129.880  0.00  0.00    +0.000 S 
BRANCH  28  29
ATOM     29  C   UNL     1     -12.704   7.165 131.161  0.00  0.00    +0.000 C 
ATOM     30  F   UNL     1     -13.081   8.436 131.532  0.00  0.00    +0.000 F 
ENDBRANCH  28  29
ENDBRANCH  26  28
ENDBRANCH   5  26
BRANCH   9  31
ATOM     31  O   UNL     1      -7.086   6.829 130.702  0.00  0.00    +0.000 OA
ATOM     32  H   UNL     1      -7.496   6.946 129.828  0.00  0.00    +0.000 HD
ENDBRANCH   9  31
TORSDOF 5
ENDMDL
MODEL 7
REMARK VINA RESULT:      -8.1      2.997      6.341
REMARK  Name = Fluticasone
REMARK  8 active torsions:
REMARK  status: ('A' for Active; 'I' for Inactive)
REMARK    1  A    between atoms: C_4  and  C_5
REMARK    2  A    between atoms: C_6  and  O_7
REMARK    3  A    between atoms: C_6  and  C_8
REMARK    4  A    between atoms: C_8  and  S_10
REMARK    5  A    between atoms: S_10  and  C_11
REMARK    6  A    between atoms: C_13  and  C_14
REMARK    7  A    between atoms: C_16  and  O_17
REMARK    8  A    between atoms: C_31  and  C_32
REMARK                            x       y       z     vdW  Elec       q    Type
REMARK                         _______ _______ _______ _____ _____    ______ ____
ROOT
ATOM      1  C   UNL     1      -7.475  -2.831 130.063  0.00  0.00    +0.000 C 
ATOM      2  C   UNL     1      -6.639  -3.967 129.796  0.00  0.00    +0.000 C 
ATOM      3  C   UNL     1      -5.743  -2.737 129.633  0.00  0.00    +0.000 C 
ATOM      4  C   UNL     1      -4.260  -3.002 128.549  0.00  0.00    +0.000 C 
ATOM      5  C   UNL     1      -6.658  -1.004 130.349  0.00  0.00    +0.000 C 
ATOM      6  C   UNL     1      -6.119  -1.990 131.055  0.00  0.00    +0.000 C 
ATOM      7  C   UNL     1      -6.107  -2.341 132.487  0.00  0.00    +0.000 C 
ATOM      8  C   UNL     1      -4.760  -1.046 130.146  0.00  0.00    +0.000 C 
ATOM      9  C   UNL     1      -5.418  -0.506 128.479  0.00  0.00    +0.000 C 
ATOM     10  C   UNL     1      -6.647  -1.472 127.613  0.00  0.00    +0.000 C 
ATOM     11  F   UNL     1      -6.209  -2.790 127.732  0.00  0.00    +0.000 F 
ATOM     12  C   UNL     1      -7.932  -1.968 128.504  0.00  0.00    +0.000 C 
ATOM     13  C   UNL     1      -8.636  -3.086 127.719  0.00  0.00    +0.000 C 
ATOM     14  C   UNL     1      -8.831  -2.750 126.277  0.00  0.00    +0.000 C 
ATOM     15  F   UNL     1      -9.598  -3.739 125.758  0.00  0.00    +0.000 F 
ATOM     16  C   UNL     1      -7.496  -2.799 125.611  0.00  0.00    +0.000 C 
ATOM     17  C   UNL     1      -7.250  -3.421 124.431  0.00  0.00    +0.000 C 
ATOM     18  C   UNL     1      -8.094  -2.554 123.634  0.00  0.00    +0.000 C 
ATOM     19  O   UNL     1      -9.206  -2.839 123.248  0.00  0.00    +0.000 OA
ATOM     20  C   UNL     1      -7.317  -1.270 123.510  0.00  0.00    +0.000 C 
ATOM     21  C   UNL     1      -6.662  -0.775 124.641  0.00  0.00    +0.000 C 
ATOM     22  C   UNL     1      -6.508  -1.703 125.950  0.00  0.00    +0.000 C 
ATOM     23  C   UNL     1      -5.173  -2.627 125.862  0.00  0.00    +0.000 C 
ENDROOT
BRANCH   5  24
ATOM     24  O   UNL     1      -8.096  -0.971 130.931  0.00  0.00    +0.000 OA
ATOM     25  H   UNL     1      -8.675  -1.701 130.645  0.00  0.00    +0.000 HD
ENDBRANCH   5  24
BRANCH   5  26
ATOM     26  C   UNL     1      -6.213   0.406 131.492  0.00  0.00    +0.000 C 
ATOM     27  O   UNL     1      -6.968   1.273 131.907  0.00  0.00    +0.000 OA
BRANCH  26  28
ATOM     28  S   UNL     1      -4.477   0.697 132.024  0.00  0.00    +0.000 S 
BRANCH  28  29
ATOM     29  C   UNL     1      -4.243   2.545 131.449  0.00  0.00    +0.000 C 
ATOM     30  F   UNL     1      -3.775   2.574 130.154  0.00  0.00    +0.000 F 
ENDBRANCH  28  29
ENDBRANCH  26  28
ENDBRANCH   5  26
BRANCH   9  31
ATOM     31  O   UNL     1      -5.901   0.839 128.663  0.00  0.00    +0.000 OA
ATOM     32  H   UNL     1      -5.283   1.489 128.289  0.00  0.00    +0.000 HD
ENDBRANCH   9  31
TORSDOF 5
ENDMDL
MODEL 8
REMARK VINA RESULT:      -8.0      3.009      4.335
REMARK  Name = Fluticasone
REMARK  8 active torsions:
REMARK  status: ('A' for Active; 'I' for Inactive)
REMARK    1  A    between atoms: C_4  and  C_5
REMARK    2  A    between atoms: C_6  and  O_7
REMARK    3  A    between atoms: C_6  and  C_8
REMARK    4  A    between atoms: C_8  and  S_10
REMARK    5  A    between atoms: S_10  and  C_11
REMARK    6  A    between atoms: C_13  and  C_14
REMARK    7  A    between atoms: C_16  and  O_17
REMARK    8  A    between atoms: C_31  and  C_32
REMARK                            x       y       z     vdW  Elec       q    Type
REMARK                         _______ _______ _______ _____ _____    ______ ____
ROOT
ATOM      1  C   UNL     1      -7.753   2.457 125.957  0.00  0.00    +0.000 C 
ATOM      2  C   UNL     1      -6.352   2.676 126.184  0.00  0.00    +0.000 C 
ATOM      3  C   UNL     1      -6.506   1.179 125.908  0.00  0.00    +0.000 C 
ATOM      4  C   UNL     1      -5.147   0.124 126.606  0.00  0.00    +0.000 C 
ATOM      5  C   UNL     1      -8.401   0.710 125.174  0.00  0.00    +0.000 C 
ATOM      6  C   UNL     1      -7.400   1.290 124.527  0.00  0.00    +0.000 C 
ATOM      7  C   UNL     1      -7.271   1.956 123.217  0.00  0.00    +0.000 C 
ATOM      8  C   UNL     1      -6.959  -0.509 124.889  0.00  0.00    +0.000 C 
ATOM      9  C   UNL     1      -7.670  -0.975 126.557  0.00  0.00    +0.000 C 
ATOM     10  C   UNL     1      -7.857   0.239 127.855  0.00  0.00    +0.000 C 
ATOM     11  F   UNL     1      -6.658   0.952 127.848  0.00  0.00    +0.000 F 
ATOM     12  C   UNL     1      -8.542   1.663 127.416  0.00  0.00    +0.000 C 
ATOM     13  C   UNL     1      -8.247   2.682 128.529  0.00  0.00    +0.000 C 
ATOM     14  C   UNL     1      -8.498   2.138 129.896  0.00  0.00    +0.000 C 
ATOM     15  F   UNL     1      -8.357   3.181 130.750  0.00  0.00    +0.000 F 
ATOM     16  C   UNL     1      -7.427   1.142 130.198  0.00  0.00    +0.000 C 
ATOM     17  C   UNL     1      -6.732   1.092 131.362  0.00  0.00    +0.000 C 
ATOM     18  C   UNL     1      -7.872   0.761 132.194  0.00  0.00    +0.000 C 
ATOM     19  O   UNL     1      -8.467   1.551 132.893  0.00  0.00    +0.000 OA
ATOM     20  C   UNL     1      -8.151  -0.689 131.903  0.00  0.00    +0.000 C 
ATOM     21  C   UNL     1      -8.094  -1.126 130.575  0.00  0.00    +0.000 C 
ATOM     22  C   UNL     1      -7.463  -0.168 129.442  0.00  0.00    +0.000 C 
ATOM     23  C   UNL     1      -5.853  -0.363 129.337  0.00  0.00    +0.000 C 
ENDROOT
BRANCH   5  24
ATOM     24  O   UNL     1      -9.530   1.756 124.982  0.00  0.00    +0.000 OA
ATOM     25  H   UNL     1      -9.694   2.023 124.059  0.00  0.00    +0.000 HD
ENDBRANCH   5  24
BRANCH   5  26
ATOM     26  C   UNL     1      -9.114  -0.253 123.740  0.00  0.00    +0.000 C 
ATOM     27  O   UNL     1     -10.236  -0.138 123.271  0.00  0.00    +0.000 OA
BRANCH  26  28
ATOM     28  S   UNL     1      -8.176  -1.619 122.942  0.00  0.00    +0.000 S 
BRANCH  28  29
ATOM     29  C   UNL     1      -9.347  -3.126 123.344  0.00  0.00    +0.000 C 
ATOM     30  F   UNL     1      -8.733  -3.966 124.246  0.00  0.00    +0.000 F 
ENDBRANCH  28  29
ENDBRANCH  26  28
ENDBRANCH   5  26
BRANCH   9  31
ATOM     31  O   UNL     1      -8.945  -1.590 126.283  0.00  0.00    +0.000 OA
ATOM     32  H   UNL     1      -9.013  -1.859 125.351  0.00  0.00    +0.000 HD
ENDBRANCH   9  31
TORSDOF 5
ENDMDL
MODEL 9
REMARK VINA RESULT:      -8.0      4.790      6.522
REMARK  Name = Fluticasone
REMARK  8 active torsions:
REMARK  status: ('A' for Active; 'I' for Inactive)
REMARK    1  A    between atoms: C_4  and  C_5
REMARK    2  A    between atoms: C_6  and  O_7
REMARK    3  A    between atoms: C_6  and  C_8
REMARK    4  A    between atoms: C_8  and  S_10
REMARK    5  A    between atoms: S_10  and  C_11
REMARK    6  A    between atoms: C_13  and  C_14
REMARK    7  A    between atoms: C_16  and  O_17
REMARK    8  A    between atoms: C_31  and  C_32
REMARK                            x       y       z     vdW  Elec       q    Type
REMARK                         _______ _______ _______ _____ _____    ______ ____
ROOT
ATOM      1  C   UNL     1      -8.659   1.819 132.750  0.00  0.00    +0.000 C 
ATOM      2  C   UNL     1      -7.327   2.043 133.237  0.00  0.00    +0.000 C 
ATOM      3  C   UNL     1      -7.397   2.728 131.870  0.00  0.00    +0.000 C 
ATOM      4  C   UNL     1      -5.754   2.951 131.035  0.00  0.00    +0.000 C 
ATOM      5  C   UNL     1      -9.354   2.855 131.160  0.00  0.00    +0.000 C 
ATOM      6  C   UNL     1      -8.787   3.582 132.113  0.00  0.00    +0.000 C 
ATOM      7  C   UNL     1      -9.292   4.550 133.104  0.00  0.00    +0.000 C 
ATOM      8  C   UNL     1      -8.021   4.020 130.445  0.00  0.00    +0.000 C 
ATOM      9  C   UNL     1      -7.919   2.466 129.406  0.00  0.00    +0.000 C 
ATOM     10  C   UNL     1      -7.700   0.862 130.161  0.00  0.00    +0.000 C 
ATOM     11  F   UNL     1      -6.708   1.055 131.122  0.00  0.00    +0.000 F 
ATOM     12  C   UNL     1      -8.673   0.528 131.439  0.00  0.00    +0.000 C 
ATOM     13  C   UNL     1      -8.072  -0.679 132.177  0.00  0.00    +0.000 C 
ATOM     14  C   UNL     1      -7.669  -1.782 131.256  0.00  0.00    +0.000 C 
ATOM     15  F   UNL     1      -7.317  -2.825 132.046  0.00  0.00    +0.000 F 
ATOM     16  C   UNL     1      -6.457  -1.335 130.507  0.00  0.00    +0.000 C 
ATOM     17  C   UNL     1      -5.344  -2.090 130.330  0.00  0.00    +0.000 C 
ATOM     18  C   UNL     1      -5.989  -3.110 129.529  0.00  0.00    +0.000 C 
ATOM     19  O   UNL     1      -6.335  -4.194 129.942  0.00  0.00    +0.000 OA
ATOM     20  C   UNL     1      -6.186  -2.471 128.179  0.00  0.00    +0.000 C 
ATOM     21  C   UNL     1      -6.627  -1.146 128.127  0.00  0.00    +0.000 C 
ATOM     22  C   UNL     1      -6.642  -0.251 129.468  0.00  0.00    +0.000 C 
ATOM     23  C   UNL     1      -5.207   0.476 129.705  0.00  0.00    +0.000 C 
ENDROOT
BRANCH   5  24
ATOM     24  O   UNL     1     -10.580   2.275 131.913  0.00  0.00    +0.000 OA
ATOM     25  H   UNL     1     -10.583   1.306 132.014  0.00  0.00    +0.000 HD
ENDBRANCH   5  24
BRANCH   5  26
ATOM     26  C   UNL     1     -10.472   4.177 130.455  0.00  0.00    +0.000 C 
ATOM     27  O   UNL     1     -11.600   4.017 130.014  0.00  0.00    +0.000 OA
BRANCH  26  28
ATOM     28  S   UNL     1      -9.891   5.909 130.242  0.00  0.00    +0.000 S 
BRANCH  28  29
ATOM     29  C   UNL     1     -11.469   6.882 130.845  0.00  0.00    +0.000 C 
ATOM     30  F   UNL     1     -11.893   6.378 132.054  0.00  0.00    +0.000 F 
ENDBRANCH  28  29
ENDBRANCH  26  28
ENDBRANCH   5  26
BRANCH   9  31
ATOM     31  O   UNL     1      -9.108   2.459 128.591  0.00  0.00    +0.000 OA
ATOM     32  H   UNL     1      -8.921   2.119 127.699  0.00  0.00    +0.000 HD
ENDBRANCH   9  31
TORSDOF 5
ENDMDL
