MODEL 1
REMARK VINA RESULT:     -10.7      0.000      0.000
REMARK  Name = Fluticasone furoate
REMARK  10 active torsions:
REMARK  status: ('A' for Active; 'I' for Inactive)
REMARK    1  A    between atoms: C_4  and  C_5
REMARK    2  A    between atoms: C_6  and  O_7
REMARK    3  A    between atoms: C_6  and  C_15
REMARK    4  A    between atoms: O_7  and  C_8
REMARK    5  A    between atoms: C_8  and  C_10
REMARK    6  A    between atoms: C_15  and  S_17
REMARK    7  A    between atoms: S_17  and  C_18
REMARK    8  A    between atoms: C_20  and  C_21
REMARK    9  A    between atoms: C_23  and  O_24
REMARK   10  A    between atoms: C_38  and  C_39
REMARK                            x       y       z     vdW  Elec       q    Type
REMARK                         _______ _______ _______ _____ _____    ______ ____
ROOT
ATOM      1  C   UNL     1      -6.049   0.989 125.125  0.00  0.00    +0.000 C 
ATOM      2  C   UNL     1      -5.129   0.342 126.013  0.00  0.00    +0.000 C 
ATOM      3  C   UNL     1      -6.500  -0.276 126.161  0.00  0.00    +0.000 C 
ATOM      4  C   UNL     1      -6.746  -1.096 127.812  0.00  0.00    +0.000 C 
ATOM      5  C   UNL     1      -7.802   0.384 124.665  0.00  0.00    +0.000 C 
ATOM      6  C   UNL     1      -6.886  -0.583 124.589  0.00  0.00    +0.000 C 
ATOM      7  C   UNL     1      -6.237  -1.253 123.442  0.00  0.00    +0.000 C 
ATOM      8  C   UNL     1      -8.216  -1.288 125.691  0.00  0.00    +0.000 C 
ATOM      9  C   UNL     1      -8.974   0.078 126.694  0.00  0.00    +0.000 C 
ATOM     10  C   UNL     1      -8.025   1.494 127.209  0.00  0.00    +0.000 C 
ATOM     11  F   UNL     1      -6.811   0.985 127.636  0.00  0.00    +0.000 F 
ATOM     12  C   UNL     1      -7.164   2.174 126.055  0.00  0.00    +0.000 C 
ATOM     13  C   UNL     1      -6.138   3.139 126.683  0.00  0.00    +0.000 C 
ATOM     14  C   UNL     1      -6.748   4.027 127.705  0.00  0.00    +0.000 C 
ATOM     15  F   UNL     1      -5.785   4.908 128.071  0.00  0.00    +0.000 F 
ATOM     16  C   UNL     1      -7.060   3.154 128.874  0.00  0.00    +0.000 C 
ATOM     17  C   UNL     1      -6.751   3.466 130.154  0.00  0.00    +0.000 C 
ATOM     18  C   UNL     1      -7.624   4.619 130.229  0.00  0.00    +0.000 C 
ATOM     19  O   UNL     1      -7.256   5.770 130.154  0.00  0.00    +0.000 OA
ATOM     20  C   UNL     1      -9.013   4.044 130.330  0.00  0.00    +0.000 C 
ATOM     21  C   UNL     1      -9.346   2.952 129.523  0.00  0.00    +0.000 C 
ATOM     22  C   UNL     1      -8.192   2.159 128.730  0.00  0.00    +0.000 C 
ATOM     23  C   UNL     1      -7.535   0.990 129.636  0.00  0.00    +0.000 C 
ENDROOT
BRANCH   5  24
ATOM     24  C   UNL     1      -9.019  -0.451 123.499  0.00  0.00    +0.000 C 
ATOM     25  O   UNL     1     -10.186  -0.115 123.325  0.00  0.00    +0.000 OA
BRANCH  24  26
ATOM     26  S   UNL     1      -8.626  -1.933 122.489  0.00  0.00    +0.000 S 
BRANCH  26  27
ATOM     27  C   UNL     1      -9.579  -3.353 123.497  0.00  0.00    +0.000 C 
ATOM     28  F   UNL     1      -8.660  -4.116 124.186  0.00  0.00    +0.000 F 
ENDBRANCH  26  27
ENDBRANCH  24  26
ENDBRANCH   5  24
BRANCH   9  29
ATOM     29  O   UNL     1     -10.140   0.495 125.960  0.00  0.00    +0.000 OA
ATOM     30  H   UNL     1      -9.951   1.231 125.355  0.00  0.00    +0.000 HD
ENDBRANCH   9  29
BRANCH   5  31
ATOM     31  O   UNL     1      -7.315   1.357 123.283  0.00  0.00    +0.000 OA
BRANCH  31  32
ATOM     32  C   UNL     1      -7.790   2.567 122.735  0.00  0.00    +0.000 C 
ATOM     33  O   UNL     1      -8.955   2.923 122.713  0.00  0.00    +0.000 OA
BRANCH  32  34
ATOM     34  C   UNL     1      -6.844   3.546 122.252  0.00  0.00    +0.000 A 
ATOM     35  C   UNL     1      -5.682   4.009 122.840  0.00  0.00    +0.000 A 
ATOM     36  C   UNL     1      -4.817   4.444 121.799  0.00  0.00    +0.000 A 
ATOM     37  C   UNL     1      -5.469   4.180 120.618  0.00  0.00    +0.000 A 
ATOM     38  O   UNL     1      -6.681   3.624 120.874  0.00  0.00    +0.000 OA
ENDBRANCH  32  34
ENDBRANCH  31  32
ENDBRANCH   5  31
TORSDOF 7
ENDMDL
MODEL 2
REMARK VINA RESULT:     -10.7      2.888      6.308
REMARK  Name = Fluticasone furoate
REMARK  10 active torsions:
REMARK  status: ('A' for Active; 'I' for Inactive)
REMARK    1  A    between atoms: C_4  and  C_5
REMARK    2  A    between atoms: C_6  and  O_7
REMARK    3  A    between atoms: C_6  and  C_15
REMARK    4  A    between atoms: O_7  and  C_8
REMARK    5  A    between atoms: C_8  and  C_10
REMARK    6  A    between atoms: C_15  and  S_17
REMARK    7  A    between atoms: S_17  and  C_18
REMARK    8  A    between atoms: C_20  and  C_21
REMARK    9  A    between atoms: C_23  and  O_24
REMARK   10  A    between atoms: C_38  and  C_39
REMARK                            x       y       z     vdW  Elec       q    Type
REMARK                         _______ _______ _______ _____ _____    ______ ____
ROOT
ATOM      1  C   UNL     1      -7.923   2.692 127.471  0.00  0.00    +0.000 C 
ATOM      2  C   UNL     1      -8.606   2.046 128.553  0.00  0.00    +0.000 C 
ATOM      3  C   UNL     1      -7.150   1.643 128.555  0.00  0.00    +0.000 C 
ATOM      4  C   UNL     1      -6.856   0.015 129.407  0.00  0.00    +0.000 C 
ATOM      5  C   UNL     1      -6.032   2.801 127.223  0.00  0.00    +0.000 C 
ATOM      6  C   UNL     1      -6.409   3.110 128.464  0.00  0.00    +0.000 C 
ATOM      7  C   UNL     1      -6.496   4.397 129.188  0.00  0.00    +0.000 C 
ATOM      8  C   UNL     1      -5.113   1.786 128.689  0.00  0.00    +0.000 C 
ATOM      9  C   UNL     1      -5.207   0.587 127.275  0.00  0.00    +0.000 C 
ATOM     10  C   UNL     1      -6.749   0.219 126.465  0.00  0.00    +0.000 C 
ATOM     11  F   UNL     1      -7.674   0.079 127.485  0.00  0.00    +0.000 F 
ATOM     12  C   UNL     1      -7.611   1.496 126.061  0.00  0.00    +0.000 C 
ATOM     13  C   UNL     1      -9.044   1.054 125.703  0.00  0.00    +0.000 C 
ATOM     14  C   UNL     1      -9.064  -0.112 124.784  0.00  0.00    +0.000 C 
ATOM     15  F   UNL     1     -10.361  -0.307 124.442  0.00  0.00    +0.000 F 
ATOM     16  C   UNL     1      -8.608  -1.279 125.592  0.00  0.00    +0.000 C 
ATOM     17  C   UNL     1      -9.234  -2.479 125.609  0.00  0.00    +0.000 C 
ATOM     18  C   UNL     1      -8.976  -2.787 124.216  0.00  0.00    +0.000 C 
ATOM     19  O   UNL     1      -9.789  -2.688 123.325  0.00  0.00    +0.000 OA
ATOM     20  C   UNL     1      -7.514  -3.151 124.167  0.00  0.00    +0.000 C 
ATOM     21  C   UNL     1      -6.608  -2.384 124.905  0.00  0.00    +0.000 C 
ATOM     22  C   UNL     1      -7.149  -1.331 125.996  0.00  0.00    +0.000 C 
ATOM     23  C   UNL     1      -7.375  -2.026 127.439  0.00  0.00    +0.000 C 
ENDROOT
BRANCH   5  24
ATOM     24  C   UNL     1      -4.394   3.722 127.314  0.00  0.00    +0.000 C 
ATOM     25  O   UNL     1      -3.525   3.717 126.449  0.00  0.00    +0.000 OA
BRANCH  24  26
ATOM     26  S   UNL     1      -3.856   4.726 128.753  0.00  0.00    +0.000 S 
BRANCH  26  27
ATOM     27  C   UNL     1      -3.664   6.519 127.925  0.00  0.00    +0.000 C 
ATOM     28  F   UNL     1      -2.325   6.816 127.785  0.00  0.00    +0.000 F 
ENDBRANCH  26  27
ENDBRANCH  24  26
ENDBRANCH   5  24
BRANCH   9  29
ATOM     29  O   UNL     1      -4.232   1.040 126.317  0.00  0.00    +0.000 OA
ATOM     30  H   UNL     1      -3.538   1.583 126.726  0.00  0.00    +0.000 HD
ENDBRANCH   9  29
BRANCH   5  31
ATOM     31  O   UNL     1      -6.651   4.208 126.370  0.00  0.00    +0.000 OA
BRANCH  31  32
ATOM     32  C   UNL     1      -6.261   4.875 125.190  0.00  0.00    +0.000 C 
ATOM     33  O   UNL     1      -6.018   6.066 125.098  0.00  0.00    +0.000 OA
BRANCH  32  34
ATOM     34  C   UNL     1      -6.004   4.107 123.994  0.00  0.00    +0.000 A 
ATOM     35  C   UNL     1      -6.796   3.160 123.371  0.00  0.00    +0.000 A 
ATOM     36  C   UNL     1      -6.448   3.149 121.992  0.00  0.00    +0.000 A 
ATOM     37  C   UNL     1      -5.494   4.124 121.825  0.00  0.00    +0.000 A 
ATOM     38  O   UNL     1      -5.230   4.721 123.017  0.00  0.00    +0.000 OA
ENDBRANCH  32  34
ENDBRANCH  31  32
ENDBRANCH   5  31
TORSDOF 7
ENDMDL
MODEL 3
REMARK VINA RESULT:     -10.6      2.613      3.636
REMARK  Name = Fluticasone furoate
REMARK  10 active torsions:
REMARK  status: ('A' for Active; 'I' for Inactive)
REMARK    1  A    between atoms: C_4  and  C_5
REMARK    2  A    between atoms: C_6  and  O_7
REMARK    3  A    between atoms: C_6  and  C_15
REMARK    4  A    between atoms: O_7  and  C_8
REMARK    5  A    between atoms: C_8  and  C_10
REMARK    6  A    between atoms: C_15  and  S_17
REMARK    7  A    between atoms: S_17  and  C_18
REMARK    8  A    between atoms: C_20  and  C_21
REMARK    9  A    between atoms: C_23  and  O_24
REMARK   10  A    between atoms: C_38  and  C_39
REMARK                            x       y       z     vdW  Elec       q    Type
REMARK                         _______ _______ _______ _____ _____    ______ ____
ROOT
ATOM      1  C   UNL     1      -4.835   2.373 126.583  0.00  0.00    +0.000 C 
ATOM      2  C   UNL     1      -4.485   1.361 127.535  0.00  0.00    +0.000 C 
ATOM      3  C   UNL     1      -5.919   1.783 127.745  0.00  0.00    +0.000 C 
ATOM      4  C   UNL     1      -6.522   1.450 129.473  0.00  0.00    +0.000 C 
ATOM      5  C   UNL     1      -6.595   3.003 126.188  0.00  0.00    +0.000 C 
ATOM      6  C   UNL     1      -6.516   1.672 126.214  0.00  0.00    +0.000 C 
ATOM      7  C   UNL     1      -6.525   0.652 125.144  0.00  0.00    +0.000 C 
ATOM      8  C   UNL     1      -7.912   2.078 127.383  0.00  0.00    +0.000 C 
ATOM      9  C   UNL     1      -7.553   3.686 128.237  0.00  0.00    +0.000 C 
ATOM     10  C   UNL     1      -5.886   4.196 128.601  0.00  0.00    +0.000 C 
ATOM     11  F   UNL     1      -5.253   3.062 129.080  0.00  0.00    +0.000 F 
ATOM     12  C   UNL     1      -4.868   4.068 127.384  0.00  0.00    +0.000 C 
ATOM     13  C   UNL     1      -3.424   4.194 127.908  0.00  0.00    +0.000 C 
ATOM     14  C   UNL     1      -3.255   5.345 128.831  0.00  0.00    +0.000 C 
ATOM     15  F   UNL     1      -1.930   5.426 129.103  0.00  0.00    +0.000 F 
ATOM     16  C   UNL     1      -3.973   4.974 130.084  0.00  0.00    +0.000 C 
ATOM     17  C   UNL     1      -3.452   5.116 131.325  0.00  0.00    +0.000 C 
ATOM     18  C   UNL     1      -3.378   6.562 131.279  0.00  0.00    +0.000 C 
ATOM     19  O   UNL     1      -2.365   7.196 131.084  0.00  0.00    +0.000 OA
ATOM     20  C   UNL     1      -4.803   7.025 131.439  0.00  0.00    +0.000 C 
ATOM     21  C   UNL     1      -5.810   6.343 130.750  0.00  0.00    +0.000 C 
ATOM     22  C   UNL     1      -5.487   4.933 130.044  0.00  0.00    +0.000 C 
ATOM     23  C   UNL     1      -5.670   3.693 131.068  0.00  0.00    +0.000 C 
ENDROOT
BRANCH   5  24
ATOM     24  C   UNL     1      -8.139   3.056 125.115  0.00  0.00    +0.000 C 
ATOM     25  O   UNL     1      -8.978   3.950 125.116  0.00  0.00    +0.000 OA
BRANCH  24  26
ATOM     26  S   UNL     1      -8.624   1.729 123.943  0.00  0.00    +0.000 S 
BRANCH  26  27
ATOM     27  C   UNL     1     -10.188   0.940 124.876  0.00  0.00    +0.000 C 
ATOM     28  F   UNL     1      -9.763  -0.096 125.681  0.00  0.00    +0.000 F 
ENDBRANCH  26  27
ENDBRANCH  24  26
ENDBRANCH   5  24
BRANCH   9  29
ATOM     29  O   UNL     1      -8.228   4.695 127.463  0.00  0.00    +0.000 OA
ATOM     30  H   UNL     1      -9.187   4.544 127.417  0.00  0.00    +0.000 HD
ENDBRANCH   9  29
BRANCH   5  31
ATOM     31  O   UNL     1      -5.692   3.320 124.712  0.00  0.00    +0.000 OA
BRANCH  31  32
ATOM     32  C   UNL     1      -5.651   4.409 123.817  0.00  0.00    +0.000 C 
ATOM     33  O   UNL     1      -5.633   5.586 124.135  0.00  0.00    +0.000 OA
BRANCH  32  34
ATOM     34  C   UNL     1      -5.504   4.158 122.402  0.00  0.00    +0.000 A 
ATOM     35  C   UNL     1      -6.349   3.490 121.536  0.00  0.00    +0.000 A 
ATOM     36  C   UNL     1      -6.127   4.011 120.232  0.00  0.00    +0.000 A 
ATOM     37  C   UNL     1      -5.193   5.009 120.367  0.00  0.00    +0.000 A 
ATOM     38  O   UNL     1      -4.822   5.121 121.669  0.00  0.00    +0.000 OA
ENDBRANCH  32  34
ENDBRANCH  31  32
ENDBRANCH   5  31
TORSDOF 7
ENDMDL
MODEL 4
REMARK VINA RESULT:     -10.4      3.265      5.646
REMARK  Name = Fluticasone furoate
REMARK  10 active torsions:
REMARK  status: ('A' for Active; 'I' for Inactive)
REMARK    1  A    between atoms: C_4  and  C_5
REMARK    2  A    between atoms: C_6  and  O_7
REMARK    3  A    between atoms: C_6  and  C_15
REMARK    4  A    between atoms: O_7  and  C_8
REMARK    5  A    between atoms: C_8  and  C_10
REMARK    6  A    between atoms: C_15  and  S_17
REMARK    7  A    between atoms: S_17  and  C_18
REMARK    8  A    between atoms: C_20  and  C_21
REMARK    9  A    between atoms: C_23  and  O_24
REMARK   10  A    between atoms: C_38  and  C_39
REMARK                            x       y       z     vdW  Elec       q    Type
REMARK                         _______ _______ _______ _____ _____    ______ ____
ROOT
ATOM      1  C   UNL     1      -5.807  -1.005 125.655  0.00  0.00    +0.000 C 
ATOM      2  C   UNL     1      -6.191  -2.294 125.161  0.00  0.00    +0.000 C 
ATOM      3  C   UNL     1      -7.415  -1.542 125.627  0.00  0.00    +0.000 C 
ATOM      4  C   UNL     1      -8.825  -2.669 126.078  0.00  0.00    +0.000 C 
ATOM      5  C   UNL     1      -6.973   0.458 126.042  0.00  0.00    +0.000 C 
ATOM      6  C   UNL     1      -7.220  -0.100 124.855  0.00  0.00    +0.000 C 
ATOM      7  C   UNL     1      -6.950   0.342 123.471  0.00  0.00    +0.000 C 
ATOM      8  C   UNL     1      -8.871  -0.106 125.725  0.00  0.00    +0.000 C 
ATOM      9  C   UNL     1      -8.607  -0.348 127.547  0.00  0.00    +0.000 C 
ATOM     10  C   UNL     1      -7.248  -1.314 128.172  0.00  0.00    +0.000 C 
ATOM     11  F   UNL     1      -7.194  -2.436 127.363  0.00  0.00    +0.000 F 
ATOM     12  C   UNL     1      -5.833  -0.967 127.529  0.00  0.00    +0.000 C 
ATOM     13  C   UNL     1      -4.825  -2.081 127.878  0.00  0.00    +0.000 C 
ATOM     14  C   UNL     1      -4.860  -2.446 129.317  0.00  0.00    +0.000 C 
ATOM     15  F   UNL     1      -3.845  -3.322 129.514  0.00  0.00    +0.000 F 
ATOM     16  C   UNL     1      -6.151  -3.163 129.527  0.00  0.00    +0.000 C 
ATOM     17  C   UNL     1      -6.266  -4.333 130.198  0.00  0.00    +0.000 C 
ATOM     18  C   UNL     1      -5.853  -3.796 131.480  0.00  0.00    +0.000 C 
ATOM     19  O   UNL     1      -4.756  -3.945 131.969  0.00  0.00    +0.000 OA
ATOM     20  C   UNL     1      -7.036  -2.996 131.960  0.00  0.00    +0.000 C 
ATOM     21  C   UNL     1      -7.719  -2.194 131.041  0.00  0.00    +0.000 C 
ATOM     22  C   UNL     1      -7.428  -2.351 129.466  0.00  0.00    +0.000 C 
ATOM     23  C   UNL     1      -8.351  -3.499 128.796  0.00  0.00    +0.000 C 
ENDROOT
BRANCH   5  24
ATOM     24  C   UNL     1      -7.764   2.111 125.614  0.00  0.00    +0.000 C 
ATOM     25  O   UNL     1      -8.144   2.950 126.423  0.00  0.00    +0.000 OA
BRANCH  24  26
ATOM     26  S   UNL     1      -8.119   2.670 123.902  0.00  0.00    +0.000 S 
BRANCH  26  27
ATOM     27  C   UNL     1      -6.606   3.913 123.579  0.00  0.00    +0.000 C 
ATOM     28  F   UNL     1      -5.717   3.331 122.701  0.00  0.00    +0.000 F 
ENDBRANCH  26  27
ENDBRANCH  24  26
ENDBRANCH   5  24
BRANCH   9  29
ATOM     29  O   UNL     1      -8.585   0.975 128.113  0.00  0.00    +0.000 OA
ATOM     30  H   UNL     1      -8.640   0.962 129.083  0.00  0.00    +0.000 HD
ENDBRANCH   9  29
BRANCH   5  31
ATOM     31  O   UNL     1      -5.432   1.228 125.687  0.00  0.00    +0.000 OA
BRANCH  31  32
ATOM     32  C   UNL     1      -4.696   2.255 126.314  0.00  0.00    +0.000 C 
ATOM     33  O   UNL     1      -4.231   3.234 125.754  0.00  0.00    +0.000 OA
BRANCH  32  34
ATOM     34  C   UNL     1      -4.553   2.249 127.751  0.00  0.00    +0.000 A 
ATOM     35  C   UNL     1      -3.503   2.697 128.531  0.00  0.00    +0.000 A 
ATOM     36  C   UNL     1      -4.034   3.055 129.801  0.00  0.00    +0.000 A 
ATOM     37  C   UNL     1      -5.391   2.857 129.723  0.00  0.00    +0.000 A 
ATOM     38  O   UNL     1      -5.720   2.389 128.491  0.00  0.00    +0.000 OA
ENDBRANCH  32  34
ENDBRANCH  31  32
ENDBRANCH   5  31
TORSDOF 7
ENDMDL
MODEL 5
REMARK VINA RESULT:     -10.1      3.186      4.873
REMARK  Name = Fluticasone furoate
REMARK  10 active torsions:
REMARK  status: ('A' for Active; 'I' for Inactive)
REMARK    1  A    between atoms: C_4  and  C_5
REMARK    2  A    between atoms: C_6  and  O_7
REMARK    3  A    between atoms: C_6  and  C_15
REMARK    4  A    between atoms: O_7  and  C_8
REMARK    5  A    between atoms: C_8  and  C_10
REMARK    6  A    between atoms: C_15  and  S_17
REMARK    7  A    between atoms: S_17  and  C_18
REMARK    8  A    between atoms: C_20  and  C_21
REMARK    9  A    between atoms: C_23  and  O_24
REMARK   10  A    between atoms: C_38  and  C_39
REMARK                            x       y       z     vdW  Elec       q    Type
REMARK                         _______ _______ _______ _____ _____    ______ ____
ROOT
ATOM      1  C   UNL     1      -5.064   1.728 128.715  0.00  0.00    +0.000 C 
ATOM      2  C   UNL     1      -4.839   0.458 129.342  0.00  0.00    +0.000 C 
ATOM      3  C   UNL     1      -6.288   0.574 128.929  0.00  0.00    +0.000 C 
ATOM      4  C   UNL     1      -7.409  -0.530 129.921  0.00  0.00    +0.000 C 
ATOM      5  C   UNL     1      -6.608   2.246 127.716  0.00  0.00    +0.000 C 
ATOM      6  C   UNL     1      -6.139   1.049 127.359  0.00  0.00    +0.000 C 
ATOM      7  C   UNL     1      -5.393   0.585 126.170  0.00  0.00    +0.000 C 
ATOM      8  C   UNL     1      -7.942   0.749 127.736  0.00  0.00    +0.000 C 
ATOM      9  C   UNL     1      -8.480   1.875 129.110  0.00  0.00    +0.000 C 
ATOM     10  C   UNL     1      -7.356   2.382 130.394  0.00  0.00    +0.000 C 
ATOM     11  F   UNL     1      -6.658   1.238 130.742  0.00  0.00    +0.000 F 
ATOM     12  C   UNL     1      -5.944   2.907 129.877  0.00  0.00    +0.000 C 
ATOM     13  C   UNL     1      -4.958   2.974 131.060  0.00  0.00    +0.000 C 
ATOM     14  C   UNL     1      -5.547   3.637 132.251  0.00  0.00    +0.000 C 
ATOM     15  F   UNL     1      -4.546   3.756 133.157  0.00  0.00    +0.000 F 
ATOM     16  C   UNL     1      -6.562   2.686 132.790  0.00  0.00    +0.000 C 
ATOM     17  C   UNL     1      -6.666   2.352 134.097  0.00  0.00    +0.000 C 
ATOM     18  C   UNL     1      -7.031   3.679 134.549  0.00  0.00    +0.000 C 
ATOM     19  O   UNL     1      -6.277   4.454 135.095  0.00  0.00    +0.000 OA
ATOM     20  C   UNL     1      -8.463   3.854 134.114  0.00  0.00    +0.000 C 
ATOM     21  C   UNL     1      -8.835   3.409 132.842  0.00  0.00    +0.000 C 
ATOM     22  C   UNL     1      -7.832   2.481 131.991  0.00  0.00    +0.000 C 
ATOM     23  C   UNL     1      -8.025   0.913 132.338  0.00  0.00    +0.000 C 
ENDROOT
BRANCH   5  24
ATOM     24  C   UNL     1      -7.511   2.559 126.095  0.00  0.00    +0.000 C 
ATOM     25  O   UNL     1      -8.445   3.337 125.939  0.00  0.00    +0.000 OA
BRANCH  24  26
ATOM     26  S   UNL     1      -7.135   1.690 124.523  0.00  0.00    +0.000 S 
BRANCH  26  27
ATOM     27  C   UNL     1      -6.499   3.191 123.392  0.00  0.00    +0.000 C 
ATOM     28  F   UNL     1      -5.266   3.611 123.844  0.00  0.00    +0.000 F 
ENDBRANCH  26  27
ENDBRANCH  24  26
ENDBRANCH   5  24
BRANCH   9  29
ATOM     29  O   UNL     1      -9.055   3.026 128.464  0.00  0.00    +0.000 OA
ATOM     30  H   UNL     1      -8.382   3.673 128.194  0.00  0.00    +0.000 HD
ENDBRANCH   9  29
BRANCH   5  31
ATOM     31  O   UNL     1      -5.327   3.265 127.072  0.00  0.00    +0.000 OA
BRANCH  31  32
ATOM     32  C   UNL     1      -5.151   4.662 126.988  0.00  0.00    +0.000 C 
ATOM     33  O   UNL     1      -5.794   5.414 126.277  0.00  0.00    +0.000 OA
BRANCH  32  34
ATOM     34  C   UNL     1      -4.222   5.314 127.882  0.00  0.00    +0.000 A 
ATOM     35  C   UNL     1      -2.983   4.890 128.324  0.00  0.00    +0.000 A 
ATOM     36  C   UNL     1      -2.222   6.048 128.642  0.00  0.00    +0.000 A 
ATOM     37  C   UNL     1      -3.011   7.129 128.333  0.00  0.00    +0.000 A 
ATOM     38  O   UNL     1      -4.211   6.703 127.858  0.00  0.00    +0.000 OA
ENDBRANCH  32  34
ENDBRANCH  31  32
ENDBRANCH   5  31
TORSDOF 7
ENDMDL
MODEL 6
REMARK VINA RESULT:     -10.1      2.084      2.994
REMARK  Name = Fluticasone furoate
REMARK  10 active torsions:
REMARK  status: ('A' for Active; 'I' for Inactive)
REMARK    1  A    between atoms: C_4  and  C_5
REMARK    2  A    between atoms: C_6  and  O_7
REMARK    3  A    between atoms: C_6  and  C_15
REMARK    4  A    between atoms: O_7  and  C_8
REMARK    5  A    between atoms: C_8  and  C_10
REMARK    6  A    between atoms: C_15  and  S_17
REMARK    7  A    between atoms: S_17  and  C_18
REMARK    8  A    between atoms: C_20  and  C_21
REMARK    9  A    between atoms: C_23  and  O_24
REMARK   10  A    between atoms: C_38  and  C_39
REMARK                            x       y       z     vdW  Elec       q    Type
REMARK                         _______ _______ _______ _____ _____    ______ ____
ROOT
ATOM      1  C   UNL     1      -6.543   0.679 126.633  0.00  0.00    +0.000 C 
ATOM      2  C   UNL     1      -5.276   1.081 127.168  0.00  0.00    +0.000 C 
ATOM      3  C   UNL     1      -5.676  -0.254 127.752  0.00  0.00    +0.000 C 
ATOM      4  C   UNL     1      -4.861  -0.597 129.388  0.00  0.00    +0.000 C 
ATOM      5  C   UNL     1      -7.338  -1.053 126.767  0.00  0.00    +0.000 C 
ATOM      6  C   UNL     1      -6.058  -1.099 126.391  0.00  0.00    +0.000 C 
ATOM      7  C   UNL     1      -5.411  -1.379 125.091  0.00  0.00    +0.000 C 
ATOM      8  C   UNL     1      -6.151  -2.242 127.863  0.00  0.00    +0.000 C 
ATOM      9  C   UNL     1      -7.409  -1.596 129.066  0.00  0.00    +0.000 C 
ATOM     10  C   UNL     1      -7.713   0.149 129.250  0.00  0.00    +0.000 C 
ATOM     11  F   UNL     1      -6.461   0.740 129.255  0.00  0.00    +0.000 F 
ATOM     12  C   UNL     1      -7.916   0.938 127.883  0.00  0.00    +0.000 C 
ATOM     13  C   UNL     1      -7.816   2.454 128.147  0.00  0.00    +0.000 C 
ATOM     14  C   UNL     1      -8.625   2.880 129.317  0.00  0.00    +0.000 C 
ATOM     15  F   UNL     1      -8.563   4.233 129.353  0.00  0.00    +0.000 F 
ATOM     16  C   UNL     1      -7.923   2.342 130.518  0.00  0.00    +0.000 C 
ATOM     17  C   UNL     1      -7.660   3.069 131.629  0.00  0.00    +0.000 C 
ATOM     18  C   UNL     1      -9.048   3.272 131.991  0.00  0.00    +0.000 C 
ATOM     19  O   UNL     1      -9.667   4.296 131.806  0.00  0.00    +0.000 OA
ATOM     20  C   UNL     1      -9.502   1.943 132.537  0.00  0.00    +0.000 C 
ATOM     21  C   UNL     1      -9.103   0.777 131.877  0.00  0.00    +0.000 C 
ATOM     22  C   UNL     1      -7.960   0.845 130.746  0.00  0.00    +0.000 C 
ATOM     23  C   UNL     1      -6.478   0.712 131.382  0.00  0.00    +0.000 C 
ENDROOT
BRANCH   5  24
ATOM     24  C   UNL     1      -7.778  -2.739 126.058  0.00  0.00    +0.000 C 
ATOM     25  O   UNL     1      -8.388  -3.624 126.649  0.00  0.00    +0.000 OA
BRANCH  24  26
ATOM     26  S   UNL     1      -7.302  -3.305 124.378  0.00  0.00    +0.000 S 
BRANCH  26  27
ATOM     27  C   UNL     1      -9.011  -3.077 123.394  0.00  0.00    +0.000 C 
ATOM     28  F   UNL     1      -8.936  -1.948 122.606  0.00  0.00    +0.000 F 
ENDBRANCH  26  27
ENDBRANCH  24  26
ENDBRANCH   5  24
BRANCH   9  29
ATOM     29  O   UNL     1      -8.632  -2.288 128.756  0.00  0.00    +0.000 OA
ATOM     30  H   UNL     1      -9.419  -1.760 128.970  0.00  0.00    +0.000 HD
ENDBRANCH   9  29
BRANCH   5  31
ATOM     31  O   UNL     1      -8.047  -0.375 125.308  0.00  0.00    +0.000 OA
BRANCH  31  32
ATOM     32  C   UNL     1      -9.261   0.291 125.040  0.00  0.00    +0.000 C 
ATOM     33  O   UNL     1     -10.341   0.020 125.537  0.00  0.00    +0.000 OA
BRANCH  32  34
ATOM     34  C   UNL     1      -9.254   1.468 124.204  0.00  0.00    +0.000 A 
ATOM     35  C   UNL     1      -8.394   2.550 124.216  0.00  0.00    +0.000 A 
ATOM     36  C   UNL     1      -8.379   3.102 122.907  0.00  0.00    +0.000 A 
ATOM     37  C   UNL     1      -9.191   2.304 122.139  0.00  0.00    +0.000 A 
ATOM     38  O   UNL     1      -9.711   1.306 122.901  0.00  0.00    +0.000 OA
ENDBRANCH  32  34
ENDBRANCH  31  32
ENDBRANCH   5  31
TORSDOF 7
ENDMDL
MODEL 7
REMARK VINA RESULT:     -10.0      3.913      8.856
REMARK  Name = Fluticasone furoate
REMARK  10 active torsions:
REMARK  status: ('A' for Active; 'I' for Inactive)
REMARK    1  A    between atoms: C_4  and  C_5
REMARK    2  A    between atoms: C_6  and  O_7
REMARK    3  A    between atoms: C_6  and  C_15
REMARK    4  A    between atoms: O_7  and  C_8
REMARK    5  A    between atoms: C_8  and  C_10
REMARK    6  A    between atoms: C_15  and  S_17
REMARK    7  A    between atoms: S_17  and  C_18
REMARK    8  A    between atoms: C_20  and  C_21
REMARK    9  A    between atoms: C_23  and  O_24
REMARK   10  A    between atoms: C_38  and  C_39
REMARK                            x       y       z     vdW  Elec       q    Type
REMARK                         _______ _______ _______ _____ _____    ______ ____
ROOT
ATOM      1  C   UNL     1      -4.895   3.611 130.424  0.00  0.00    +0.000 C 
ATOM      2  C   UNL     1      -4.239   2.379 130.098  0.00  0.00    +0.000 C 
ATOM      3  C   UNL     1      -3.582   3.518 129.356  0.00  0.00    +0.000 C 
ATOM      4  C   UNL     1      -2.695   2.958 127.819  0.00  0.00    +0.000 C 
ATOM      5  C   UNL     1      -4.264   5.372 130.038  0.00  0.00    +0.000 C 
ATOM      6  C   UNL     1      -3.324   4.593 130.576  0.00  0.00    +0.000 C 
ATOM      7  C   UNL     1      -2.714   4.554 131.922  0.00  0.00    +0.000 C 
ATOM      8  C   UNL     1      -2.545   5.249 129.013  0.00  0.00    +0.000 C 
ATOM      9  C   UNL     1      -3.853   5.457 127.712  0.00  0.00    +0.000 C 
ATOM     10  C   UNL     1      -5.272   4.384 127.638  0.00  0.00    +0.000 C 
ATOM     11  F   UNL     1      -4.778   3.108 127.851  0.00  0.00    +0.000 F 
ATOM     12  C   UNL     1      -6.017   4.166 129.028  0.00  0.00    +0.000 C 
ATOM     13  C   UNL     1      -6.983   2.970 128.910  0.00  0.00    +0.000 C 
ATOM     14  C   UNL     1      -7.817   3.036 127.683  0.00  0.00    +0.000 C 
ATOM     15  F   UNL     1      -8.707   2.018 127.771  0.00  0.00    +0.000 F 
ATOM     16  C   UNL     1      -6.893   2.759 126.545  0.00  0.00    +0.000 C 
ATOM     17  C   UNL     1      -7.164   1.889 125.545  0.00  0.00    +0.000 C 
ATOM     18  C   UNL     1      -8.292   2.631 125.019  0.00  0.00    +0.000 C 
ATOM     19  O   UNL     1      -9.454   2.346 125.206  0.00  0.00    +0.000 OA
ATOM     20  C   UNL     1      -7.679   3.809 124.306  0.00  0.00    +0.000 C 
ATOM     21  C   UNL     1      -6.610   4.475 124.912  0.00  0.00    +0.000 C 
ATOM     22  C   UNL     1      -5.876   3.823 126.187  0.00  0.00    +0.000 C 
ATOM     23  C   UNL     1      -4.691   2.813 125.746  0.00  0.00    +0.000 C 
ENDROOT
BRANCH   5  24
ATOM     24  C   UNL     1      -3.442   6.989 130.536  0.00  0.00    +0.000 C 
ATOM     25  O   UNL     1      -3.748   8.102 130.120  0.00  0.00    +0.000 OA
BRANCH  24  26
ATOM     26  S   UNL     1      -2.022   7.109 131.692  0.00  0.00    +0.000 S 
BRANCH  26  27
ATOM     27  C   UNL     1      -2.881   7.934 133.279  0.00  0.00    +0.000 C 
ATOM     28  F   UNL     1      -3.812   7.059 133.800  0.00  0.00    +0.000 F 
ENDBRANCH  26  27
ENDBRANCH  24  26
ENDBRANCH   5  24
BRANCH   9  29
ATOM     29  O   UNL     1      -4.268   6.833 127.796  0.00  0.00    +0.000 OA
ATOM     30  H   UNL     1      -5.219   6.921 127.974  0.00  0.00    +0.000 HD
ENDBRANCH   9  29
BRANCH   5  31
ATOM     31  O   UNL     1      -5.300   5.593 131.442  0.00  0.00    +0.000 OA
BRANCH  31  32
ATOM     32  C   UNL     1      -6.549   6.219 131.635  0.00  0.00    +0.000 C 
ATOM     33  O   UNL     1      -6.950   7.198 131.030  0.00  0.00    +0.000 OA
BRANCH  32  34
ATOM     34  C   UNL     1      -7.511   5.620 132.530  0.00  0.00    +0.000 A 
ATOM     35  C   UNL     1      -8.270   4.476 132.367  0.00  0.00    +0.000 A 
ATOM     36  C   UNL     1      -8.563   3.967 133.661  0.00  0.00    +0.000 A 
ATOM     37  C   UNL     1      -7.929   4.794 134.557  0.00  0.00    +0.000 A 
ATOM     38  O   UNL     1      -7.278   5.782 133.890  0.00  0.00    +0.000 OA
ENDBRANCH  32  34
ENDBRANCH  31  32
ENDBRANCH   5  31
TORSDOF 7
ENDMDL
MODEL 8
REMARK VINA RESULT:     -10.0      5.986     10.107
REMARK  Name = Fluticasone furoate
REMARK  10 active torsions:
REMARK  status: ('A' for Active; 'I' for Inactive)
REMARK    1  A    between atoms: C_4  and  C_5
REMARK    2  A    between atoms: C_6  and  O_7
REMARK    3  A    between atoms: C_6  and  C_15
REMARK    4  A    between atoms: O_7  and  C_8
REMARK    5  A    between atoms: C_8  and  C_10
REMARK    6  A    between atoms: C_15  and  S_17
REMARK    7  A    between atoms: S_17  and  C_18
REMARK    8  A    between atoms: C_20  and  C_21
REMARK    9  A    between atoms: C_23  and  O_24
REMARK   10  A    between atoms: C_38  and  C_39
REMARK                            x       y       z     vdW  Elec       q    Type
REMARK                         _______ _______ _______ _____ _____    ______ ____
ROOT
ATOM      1  C   UNL     1      -5.932  -4.207 131.266  0.00  0.00    +0.000 C 
ATOM      2  C   UNL     1      -5.168  -5.022 130.368  0.00  0.00    +0.000 C 
ATOM      3  C   UNL     1      -4.530  -3.659 130.486  0.00  0.00    +0.000 C 
ATOM      4  C   UNL     1      -3.479  -3.226 129.013  0.00  0.00    +0.000 C 
ATOM      5  C   UNL     1      -5.392  -2.540 132.027  0.00  0.00    +0.000 C 
ATOM      6  C   UNL     1      -4.451  -3.480 132.122  0.00  0.00    +0.000 C 
ATOM      7  C   UNL     1      -3.955  -4.283 133.260  0.00  0.00    +0.000 C 
ATOM      8  C   UNL     1      -3.587  -2.039 131.309  0.00  0.00    +0.000 C 
ATOM      9  C   UNL     1      -4.791  -1.130 130.228  0.00  0.00    +0.000 C 
ATOM     10  C   UNL     1      -6.123  -1.974 129.401  0.00  0.00    +0.000 C 
ATOM     11  F   UNL     1      -5.563  -3.136 128.898  0.00  0.00    +0.000 F 
ATOM     12  C   UNL     1      -6.966  -2.957 130.326  0.00  0.00    +0.000 C 
ATOM     13  C   UNL     1      -7.836  -3.873 129.442  0.00  0.00    +0.000 C 
ATOM     14  C   UNL     1      -8.565  -3.120 128.390  0.00  0.00    +0.000 C 
ATOM     15  F   UNL     1      -9.388  -4.008 127.783  0.00  0.00    +0.000 F 
ATOM     16  C   UNL     1      -7.531  -2.684 127.407  0.00  0.00    +0.000 C 
ATOM     17  C   UNL     1      -7.656  -2.822 126.067  0.00  0.00    +0.000 C 
ATOM     18  C   UNL     1      -8.783  -1.920 125.941  0.00  0.00    +0.000 C 
ATOM     19  O   UNL     1      -9.935  -2.269 125.804  0.00  0.00    +0.000 OA
ATOM     20  C   UNL     1      -8.193  -0.543 126.100  0.00  0.00    +0.000 C 
ATOM     21  C   UNL     1      -7.227  -0.339 127.090  0.00  0.00    +0.000 C 
ATOM     22  C   UNL     1      -6.562  -1.602 127.834  0.00  0.00    +0.000 C 
ATOM     23  C   UNL     1      -5.278  -2.166 127.027  0.00  0.00    +0.000 C 
ENDROOT
BRANCH   5  24
ATOM     24  C   UNL     1      -4.727  -1.498 133.445  0.00  0.00    +0.000 C 
ATOM     25  O   UNL     1      -4.963  -0.309 133.627  0.00  0.00    +0.000 OA
BRANCH  24  26
ATOM     26  S   UNL     1      -3.582  -2.126 134.735  0.00  0.00    +0.000 S 
BRANCH  26  27
ATOM     27  C   UNL     1      -4.833  -2.447 136.242  0.00  0.00    +0.000 C 
ATOM     28  F   UNL     1      -4.128  -2.449 137.427  0.00  0.00    +0.000 F 
ENDBRANCH  26  27
ENDBRANCH  24  26
ENDBRANCH   5  24
BRANCH   9  29
ATOM     29  O   UNL     1      -5.304  -0.056 131.038  0.00  0.00    +0.000 OA
ATOM     30  H   UNL     1      -5.316   0.792 130.562  0.00  0.00    +0.000 HD
ENDBRANCH   9  29
BRANCH   5  31
ATOM     31  O   UNL     1      -6.556  -3.174 133.183  0.00  0.00    +0.000 OA
BRANCH  31  32
ATOM     32  C   UNL     1      -7.714  -2.638 133.784  0.00  0.00    +0.000 C 
ATOM     33  O   UNL     1      -8.328  -1.662 133.389  0.00  0.00    +0.000 OA
BRANCH  32  34
ATOM     34  C   UNL     1      -8.323  -3.335 134.893  0.00  0.00    +0.000 A 
ATOM     35  C   UNL     1      -8.356  -4.689 135.169  0.00  0.00    +0.000 A 
ATOM     36  C   UNL     1      -8.492  -4.837 136.576  0.00  0.00    +0.000 A 
ATOM     37  C   UNL     1      -8.486  -3.568 137.102  0.00  0.00    +0.000 A 
ATOM     38  O   UNL     1      -8.368  -2.655 136.104  0.00  0.00    +0.000 OA
ENDBRANCH  32  34
ENDBRANCH  31  32
ENDBRANCH   5  31
TORSDOF 7
ENDMDL
MODEL 9
REMARK VINA RESULT:     -10.0      3.091      6.383
REMARK  Name = Fluticasone furoate
REMARK  10 active torsions:
REMARK  status: ('A' for Active; 'I' for Inactive)
REMARK    1  A    between atoms: C_4  and  C_5
REMARK    2  A    between atoms: C_6  and  O_7
REMARK    3  A    between atoms: C_6  and  C_15
REMARK    4  A    between atoms: O_7  and  C_8
REMARK    5  A    between atoms: C_8  and  C_10
REMARK    6  A    between atoms: C_15  and  S_17
REMARK    7  A    between atoms: S_17  and  C_18
REMARK    8  A    between atoms: C_20  and  C_21
REMARK    9  A    between atoms: C_23  and  O_24
REMARK   10  A    between atoms: C_38  and  C_39
REMARK                            x       y       z     vdW  Elec       q    Type
REMARK                         _______ _______ _______ _____ _____    ______ ____
ROOT
ATOM      1  C   UNL     1      -8.184   1.079 128.880  0.00  0.00    +0.000 C 
ATOM      2  C   UNL     1      -7.852   1.586 130.179  0.00  0.00    +0.000 C 
ATOM      3  C   UNL     1      -6.700   1.821 129.231  0.00  0.00    +0.000 C 
ATOM      4  C   UNL     1      -5.070   1.998 130.110  0.00  0.00    +0.000 C 
ATOM      5  C   UNL     1      -7.240   1.415 127.253  0.00  0.00    +0.000 C 
ATOM      6  C   UNL     1      -7.469   2.525 127.957  0.00  0.00    +0.000 C 
ATOM      7  C   UNL     1      -8.412   3.649 127.767  0.00  0.00    +0.000 C 
ATOM      8  C   UNL     1      -5.630   2.544 127.643  0.00  0.00    +0.000 C 
ATOM      9  C   UNL     1      -4.989   0.802 127.629  0.00  0.00    +0.000 C 
ATOM     10  C   UNL     1      -5.726  -0.471 128.632  0.00  0.00    +0.000 C 
ATOM     11  F   UNL     1      -5.949   0.119 129.865  0.00  0.00    +0.000 F 
ATOM     12  C   UNL     1      -7.314  -0.549 128.550  0.00  0.00    +0.000 C 
ATOM     13  C   UNL     1      -7.844  -1.425 129.703  0.00  0.00    +0.000 C 
ATOM     14  C   UNL     1      -7.096  -2.701 129.835  0.00  0.00    +0.000 C 
ATOM     15  F   UNL     1      -7.743  -3.428 130.778  0.00  0.00    +0.000 F 
ATOM     16  C   UNL     1      -5.750  -2.334 130.362  0.00  0.00    +0.000 C 
ATOM     17  C   UNL     1      -5.143  -2.966 131.393  0.00  0.00    +0.000 C 
ATOM     18  C   UNL     1      -5.012  -4.240 130.715  0.00  0.00    +0.000 C 
ATOM     19  O   UNL     1      -5.722  -5.201 130.908  0.00  0.00    +0.000 OA
ATOM     20  C   UNL     1      -3.898  -4.034 129.722  0.00  0.00    +0.000 C 
ATOM     21  C   UNL     1      -3.857  -2.837 129.000  0.00  0.00    +0.000 C 
ATOM     22  C   UNL     1      -4.802  -1.607 129.431  0.00  0.00    +0.000 C 
ATOM     23  C   UNL     1      -4.103  -0.679 130.557  0.00  0.00    +0.000 C 
ENDROOT
BRANCH   5  24
ATOM     24  C   UNL     1      -7.028   2.304 125.608  0.00  0.00    +0.000 C 
ATOM     25  O   UNL     1      -6.327   1.921 124.677  0.00  0.00    +0.000 OA
BRANCH  24  26
ATOM     26  S   UNL     1      -7.817   3.908 125.196  0.00  0.00    +0.000 S 
BRANCH  26  27
ATOM     27  C   UNL     1      -6.236   5.106 125.105  0.00  0.00    +0.000 C 
ATOM     28  F   UNL     1      -5.569   4.890 123.918  0.00  0.00    +0.000 F 
ENDBRANCH  26  27
ENDBRANCH  24  26
ENDBRANCH   5  24
BRANCH   9  29
ATOM     29  O   UNL     1      -4.977   0.406 126.245  0.00  0.00    +0.000 OA
ATOM     30  H   UNL     1      -4.345  -0.312 126.072  0.00  0.00    +0.000 HD
ENDBRANCH   9  29
BRANCH   5  31
ATOM     31  O   UNL     1      -8.880   1.061 126.725  0.00  0.00    +0.000 OA
BRANCH  31  32
ATOM     32  C   UNL     1      -9.413   0.377 125.613  0.00  0.00    +0.000 C 
ATOM     33  O   UNL     1     -10.155   0.860 124.775  0.00  0.00    +0.000 OA
BRANCH  32  34
ATOM     34  C   UNL     1      -8.983  -0.975 125.340  0.00  0.00    +0.000 A 
ATOM     35  C   UNL     1      -7.707  -1.468 125.142  0.00  0.00    +0.000 A 
ATOM     36  C   UNL     1      -7.712  -2.838 125.521  0.00  0.00    +0.000 A 
ATOM     37  C   UNL     1      -8.978  -3.109 125.980  0.00  0.00    +0.000 A 
ATOM     38  O   UNL     1      -9.749  -1.993 125.894  0.00  0.00    +0.000 OA
ENDBRANCH  32  34
ENDBRANCH  31  32
ENDBRANCH   5  31
TORSDOF 7
ENDMDL
