MODEL 1
REMARK VINA RESULT:      -7.3      0.000      0.000
REMARK  Name = Flutamide
REMARK  6 active torsions:
REMARK  status: ('A' for Active; 'I' for Inactive)
REMARK    1  A    between atoms: C_1  and  C_2
REMARK    2  A    between atoms: C_2  and  C_3
REMARK    3  A    between atoms: C_2  and  C_4
REMARK    4  A    between atoms: N_6  and  C_7
REMARK    5  A    between atoms: C_9  and  C_16
REMARK    6  A    between atoms: C_10  and  N_13
REMARK                            x       y       z     vdW  Elec       q    Type
REMARK                         _______ _______ _______ _____ _____    ______ ____
ROOT
ATOM      1  C   UNL     1     -11.188   5.871 131.122  0.00  0.00    +0.000 A 
ATOM      2  C   UNL     1     -10.805   6.022 129.784  0.00  0.00    +0.000 A 
ATOM      3  C   UNL     1     -11.359   7.058 128.962  0.00  0.00    +0.000 A 
ATOM      4  C   UNL     1     -12.386   7.859 129.497  0.00  0.00    +0.000 A 
ATOM      5  C   UNL     1     -12.709   7.746 130.859  0.00  0.00    +0.000 A 
ATOM      6  C   UNL     1     -12.104   6.776 131.653  0.00  0.00    +0.000 A 
ENDROOT
BRANCH   1   9
ATOM      7  C   UNL     1      -9.659   5.156 132.892  0.00  0.00    +0.000 C 
ATOM      8  O   UNL     1      -9.238   6.300 133.071  0.00  0.00    +0.000 OA
ATOM      9  N   UNL     1     -10.654   4.858 131.961  0.00  0.00    +0.000 N 
ATOM     10  H   UNL     1     -11.116   3.957 131.992  0.00  0.00    +0.000 HD
BRANCH   7  12
ATOM     11  C   UNL     1      -8.925   2.768 132.793  0.00  0.00    +0.000 C 
ATOM     12  C   UNL     1      -9.096   3.991 133.713  0.00  0.00    +0.000 C 
ATOM     13  C   UNL     1      -7.749   4.325 134.339  0.00  0.00    +0.000 C 
ENDBRANCH   7  12
ENDBRANCH   1   9
BRANCH   3  14
ATOM     14  C   UNL     1     -10.712   7.282 127.613  0.00  0.00    +0.000 C 
ATOM     15  F   UNL     1     -11.584   6.937 126.616  0.00  0.00    +0.000 F 
ATOM     16  F   UNL     1     -10.398   8.584 127.384  0.00  0.00    +0.000 F 
ATOM     17  F   UNL     1      -9.608   6.546 127.332  0.00  0.00    +0.000 F 
ENDBRANCH   3  14
BRANCH   4  18
ATOM     18  N   UNL     1     -13.235   8.771 128.703  0.00  0.00    +0.000 N 
ATOM     19  O   UNL     1     -13.184   9.984 128.951  0.00  0.00    +0.000 OA
ATOM     20  O   UNL     1     -13.887   8.284 127.774  0.00  0.00    +0.000 OA
ENDBRANCH   4  18
TORSDOF 4
ENDMDL
MODEL 2
REMARK VINA RESULT:      -6.9      2.346      3.049
REMARK  Name = Flutamide
REMARK  6 active torsions:
REMARK  status: ('A' for Active; 'I' for Inactive)
REMARK    1  A    between atoms: C_1  and  C_2
REMARK    2  A    between atoms: C_2  and  C_3
REMARK    3  A    between atoms: C_2  and  C_4
REMARK    4  A    between atoms: N_6  and  C_7
REMARK    5  A    between atoms: C_9  and  C_16
REMARK    6  A    between atoms: C_10  and  N_13
REMARK                            x       y       z     vdW  Elec       q    Type
REMARK                         _______ _______ _______ _____ _____    ______ ____
ROOT
ATOM      1  C   UNL     1     -10.051   5.533 131.863  0.00  0.00    +0.000 A 
ATOM      2  C   UNL     1     -11.093   6.462 131.767  0.00  0.00    +0.000 A 
ATOM      3  C   UNL     1     -11.511   6.987 130.500  0.00  0.00    +0.000 A 
ATOM      4  C   UNL     1     -10.774   6.633 129.354  0.00  0.00    +0.000 A 
ATOM      5  C   UNL     1      -9.780   5.646 129.452  0.00  0.00    +0.000 A 
ATOM      6  C   UNL     1      -9.442   5.101 130.687  0.00  0.00    +0.000 A 
ENDROOT
BRANCH   1   9
ATOM      7  C   UNL     1      -8.367   5.318 133.623  0.00  0.00    +0.000 C 
ATOM      8  O   UNL     1      -7.606   6.118 133.075  0.00  0.00    +0.000 OA
ATOM      9  N   UNL     1      -9.619   4.993 133.102  0.00  0.00    +0.000 N 
ATOM     10  H   UNL     1     -10.291   4.503 133.681  0.00  0.00    +0.000 HD
BRANCH   7  12
ATOM     11  C   UNL     1      -6.816   3.647 134.650  0.00  0.00    +0.000 C 
ATOM     12  C   UNL     1      -7.956   4.641 134.936  0.00  0.00    +0.000 C 
ATOM     13  C   UNL     1      -7.481   5.646 135.977  0.00  0.00    +0.000 C 
ENDBRANCH   7  12
ENDBRANCH   1   9
BRANCH   3  14
ATOM     14  C   UNL     1     -12.788   7.798 130.482  0.00  0.00    +0.000 C 
ATOM     15  F   UNL     1     -13.678   7.246 129.600  0.00  0.00    +0.000 F 
ATOM     16  F   UNL     1     -13.428   7.807 131.681  0.00  0.00    +0.000 F 
ATOM     17  F   UNL     1     -12.692   9.085 130.068  0.00  0.00    +0.000 F 
ENDBRANCH   3  14
BRANCH   4  18
ATOM     18  N   UNL     1     -10.904   7.293 128.039  0.00  0.00    +0.000 N 
ATOM     19  O   UNL     1     -11.546   6.713 127.153  0.00  0.00    +0.000 OA
ATOM     20  O   UNL     1     -10.439   8.432 127.920  0.00  0.00    +0.000 OA
ENDBRANCH   4  18
TORSDOF 4
ENDMDL
MODEL 3
REMARK VINA RESULT:      -6.6      3.979      6.908
REMARK  Name = Flutamide
REMARK  6 active torsions:
REMARK  status: ('A' for Active; 'I' for Inactive)
REMARK    1  A    between atoms: C_1  and  C_2
REMARK    2  A    between atoms: C_2  and  C_3
REMARK    3  A    between atoms: C_2  and  C_4
REMARK    4  A    between atoms: N_6  and  C_7
REMARK    5  A    between atoms: C_9  and  C_16
REMARK    6  A    between atoms: C_10  and  N_13
REMARK                            x       y       z     vdW  Elec       q    Type
REMARK                         _______ _______ _______ _____ _____    ______ ____
ROOT
ATOM      1  C   UNL     1      -9.824   6.454 131.383  0.00  0.00    +0.000 A 
ATOM      2  C   UNL     1      -9.802   5.418 132.324  0.00  0.00    +0.000 A 
ATOM      3  C   UNL     1      -8.569   4.828 132.756  0.00  0.00    +0.000 A 
ATOM      4  C   UNL     1      -7.377   5.238 132.129  0.00  0.00    +0.000 A 
ATOM      5  C   UNL     1      -7.403   6.325 131.242  0.00  0.00    +0.000 A 
ATOM      6  C   UNL     1      -8.609   6.927 130.894  0.00  0.00    +0.000 A 
ENDROOT
BRANCH   1   9
ATOM      7  C   UNL     1     -11.786   6.479 129.924  0.00  0.00    +0.000 C 
ATOM      8  O   UNL     1     -11.487   5.402 129.405  0.00  0.00    +0.000 OA
ATOM      9  N   UNL     1     -11.028   7.060 130.940  0.00  0.00    +0.000 N 
ATOM     10  H   UNL     1     -11.416   7.826 131.479  0.00  0.00    +0.000 HD
BRANCH   7  12
ATOM     11  C   UNL     1     -12.779   8.747 129.571  0.00  0.00    +0.000 C 
ATOM     12  C   UNL     1     -13.040   7.233 129.466  0.00  0.00    +0.000 C 
ATOM     13  C   UNL     1     -13.420   6.899 128.030  0.00  0.00    +0.000 C 
ENDBRANCH   7  12
ENDBRANCH   1   9
BRANCH   3  14
ATOM     14  C   UNL     1      -8.637   3.887 133.938  0.00  0.00    +0.000 C 
ATOM     15  F   UNL     1      -9.943   3.684 134.297  0.00  0.00    +0.000 F 
ATOM     16  F   UNL     1      -8.144   2.651 133.661  0.00  0.00    +0.000 F 
ATOM     17  F   UNL     1      -8.055   4.303 135.090  0.00  0.00    +0.000 F 
ENDBRANCH   3  14
BRANCH   4  18
ATOM     18  N   UNL     1      -6.080   4.543 132.264  0.00  0.00    +0.000 N 
ATOM     19  O   UNL     1      -5.300   4.923 133.149  0.00  0.00    +0.000 OA
ATOM     20  O   UNL     1      -5.877   3.560 131.542  0.00  0.00    +0.000 OA
ENDBRANCH   4  18
TORSDOF 4
ENDMDL
MODEL 4
REMARK VINA RESULT:      -6.5      9.442     10.455
REMARK  Name = Flutamide
REMARK  6 active torsions:
REMARK  status: ('A' for Active; 'I' for Inactive)
REMARK    1  A    between atoms: C_1  and  C_2
REMARK    2  A    between atoms: C_2  and  C_3
REMARK    3  A    between atoms: C_2  and  C_4
REMARK    4  A    between atoms: N_6  and  C_7
REMARK    5  A    between atoms: C_9  and  C_16
REMARK    6  A    between atoms: C_10  and  N_13
REMARK                            x       y       z     vdW  Elec       q    Type
REMARK                         _______ _______ _______ _____ _____    ______ ____
ROOT
ATOM      1  C   UNL     1      -5.648   0.441 126.289  0.00  0.00    +0.000 A 
ATOM      2  C   UNL     1      -5.406  -0.666 125.468  0.00  0.00    +0.000 A 
ATOM      3  C   UNL     1      -6.466  -1.303 124.742  0.00  0.00    +0.000 A 
ATOM      4  C   UNL     1      -7.785  -0.861 124.960  0.00  0.00    +0.000 A 
ATOM      5  C   UNL     1      -8.007   0.294 125.727  0.00  0.00    +0.000 A 
ATOM      6  C   UNL     1      -6.948   0.936 126.364  0.00  0.00    +0.000 A 
ENDROOT
BRANCH   1   9
ATOM      7  C   UNL     1      -4.153   2.348 126.618  0.00  0.00    +0.000 C 
ATOM      8  O   UNL     1      -4.637   2.967 125.668  0.00  0.00    +0.000 OA
ATOM      9  N   UNL     1      -4.619   1.095 127.015  0.00  0.00    +0.000 N 
ATOM     10  H   UNL     1      -4.343   0.720 127.915  0.00  0.00    +0.000 HD
BRANCH   7  12
ATOM     11  C   UNL     1      -1.741   3.002 126.534  0.00  0.00    +0.000 C 
ATOM     12  C   UNL     1      -2.997   2.954 127.422  0.00  0.00    +0.000 C 
ATOM     13  C   UNL     1      -3.310   4.363 127.907  0.00  0.00    +0.000 C 
ENDBRANCH   7  12
ENDBRANCH   1   9
BRANCH   3  14
ATOM     14  C   UNL     1      -6.066  -2.335 123.710  0.00  0.00    +0.000 C 
ATOM     15  F   UNL     1      -4.709  -2.515 123.734  0.00  0.00    +0.000 F 
ATOM     16  F   UNL     1      -6.597  -3.562 123.953  0.00  0.00    +0.000 F 
ATOM     17  F   UNL     1      -6.321  -2.035 122.413  0.00  0.00    +0.000 F 
ENDBRANCH   3  14
BRANCH   4  18
ATOM     18  N   UNL     1      -8.993  -1.580 124.508  0.00  0.00    +0.000 N 
ATOM     19  O   UNL     1      -9.528  -2.377 125.291  0.00  0.00    +0.000 OA
ATOM     20  O   UNL     1      -9.458  -1.284 123.402  0.00  0.00    +0.000 OA
ENDBRANCH   4  18
TORSDOF 4
ENDMDL
MODEL 5
REMARK VINA RESULT:      -6.5      3.817      4.383
REMARK  Name = Flutamide
REMARK  6 active torsions:
REMARK  status: ('A' for Active; 'I' for Inactive)
REMARK    1  A    between atoms: C_1  and  C_2
REMARK    2  A    between atoms: C_2  and  C_3
REMARK    3  A    between atoms: C_2  and  C_4
REMARK    4  A    between atoms: N_6  and  C_7
REMARK    5  A    between atoms: C_9  and  C_16
REMARK    6  A    between atoms: C_10  and  N_13
REMARK                            x       y       z     vdW  Elec       q    Type
REMARK                         _______ _______ _______ _____ _____    ______ ____
ROOT
ATOM      1  C   UNL     1      -7.529   6.834 131.197  0.00  0.00    +0.000 A 
ATOM      2  C   UNL     1      -8.286   7.392 130.160  0.00  0.00    +0.000 A 
ATOM      3  C   UNL     1      -9.703   7.191 130.079  0.00  0.00    +0.000 A 
ATOM      4  C   UNL     1     -10.309   6.323 131.007  0.00  0.00    +0.000 A 
ATOM      5  C   UNL     1      -9.555   5.829 132.083  0.00  0.00    +0.000 A 
ATOM      6  C   UNL     1      -8.193   6.099 132.176  0.00  0.00    +0.000 A 
ENDROOT
BRANCH   1   9
ATOM      7  C   UNL     1      -5.249   6.317 130.482  0.00  0.00    +0.000 C 
ATOM      8  O   UNL     1      -5.638   5.555 129.594  0.00  0.00    +0.000 OA
ATOM      9  N   UNL     1      -6.127   7.020 131.307  0.00  0.00    +0.000 N 
ATOM     10  H   UNL     1      -5.778   7.785 131.872  0.00  0.00    +0.000 HD
BRANCH   7  12
ATOM     11  C   UNL     1      -2.992   6.183 129.414  0.00  0.00    +0.000 C 
ATOM     12  C   UNL     1      -3.748   6.533 130.709  0.00  0.00    +0.000 C 
ATOM     13  C   UNL     1      -3.425   7.970 131.093  0.00  0.00    +0.000 C 
ENDBRANCH   7  12
ENDBRANCH   1   9
BRANCH   3  14
ATOM     14  C   UNL     1     -10.455   8.022 129.063  0.00  0.00    +0.000 C 
ATOM     15  F   UNL     1     -10.922   7.219 128.058  0.00  0.00    +0.000 F 
ATOM     16  F   UNL     1     -11.557   8.626 129.582  0.00  0.00    +0.000 F 
ATOM     17  F   UNL     1      -9.749   8.973 128.403  0.00  0.00    +0.000 F 
ENDBRANCH   3  14
BRANCH   4  18
ATOM     18  N   UNL     1     -11.688   5.805 130.890  0.00  0.00    +0.000 N 
ATOM     19  O   UNL     1     -12.574   6.339 131.572  0.00  0.00    +0.000 OA
ATOM     20  O   UNL     1     -11.900   4.922 130.052  0.00  0.00    +0.000 OA
ENDBRANCH   4  18
TORSDOF 4
ENDMDL
MODEL 6
REMARK VINA RESULT:      -6.4      3.545      6.647
REMARK  Name = Flutamide
REMARK  6 active torsions:
REMARK  status: ('A' for Active; 'I' for Inactive)
REMARK    1  A    between atoms: C_1  and  C_2
REMARK    2  A    between atoms: C_2  and  C_3
REMARK    3  A    between atoms: C_2  and  C_4
REMARK    4  A    between atoms: N_6  and  C_7
REMARK    5  A    between atoms: C_9  and  C_16
REMARK    6  A    between atoms: C_10  and  N_13
REMARK                            x       y       z     vdW  Elec       q    Type
REMARK                         _______ _______ _______ _____ _____    ______ ____
ROOT
ATOM      1  C   UNL     1      -9.666   6.752 130.942  0.00  0.00    +0.000 A 
ATOM      2  C   UNL     1      -8.290   6.886 131.159  0.00  0.00    +0.000 A 
ATOM      3  C   UNL     1      -7.604   6.079 132.126  0.00  0.00    +0.000 A 
ATOM      4  C   UNL     1      -8.367   5.219 132.939  0.00  0.00    +0.000 A 
ATOM      5  C   UNL     1      -9.731   5.040 132.663  0.00  0.00    +0.000 A 
ATOM      6  C   UNL     1     -10.358   5.786 131.670  0.00  0.00    +0.000 A 
ENDROOT
BRANCH   1   9
ATOM      7  C   UNL     1     -10.318   7.217 128.632  0.00  0.00    +0.000 C 
ATOM      8  O   UNL     1      -9.716   6.232 128.201  0.00  0.00    +0.000 OA
ATOM      9  N   UNL     1     -10.370   7.533 129.989  0.00  0.00    +0.000 N 
ATOM     10  H   UNL     1     -11.040   8.218 130.319  0.00  0.00    +0.000 HD
BRANCH   7  12
ATOM     11  C   UNL     1     -11.387   7.376 126.377  0.00  0.00    +0.000 C 
ATOM     12  C   UNL     1     -11.059   8.150 127.666  0.00  0.00    +0.000 C 
ATOM     13  C   UNL     1     -12.354   8.684 128.262  0.00  0.00    +0.000 C 
ENDBRANCH   7  12
ENDBRANCH   1   9
BRANCH   3  14
ATOM     14  C   UNL     1      -6.093   6.137 132.117  0.00  0.00    +0.000 C 
ATOM     15  F   UNL     1      -5.583   4.921 131.749  0.00  0.00    +0.000 F 
ATOM     16  F   UNL     1      -5.600   7.023 131.213  0.00  0.00    +0.000 F 
ATOM     17  F   UNL     1      -5.481   6.388 133.301  0.00  0.00    +0.000 F 
ENDBRANCH   3  14
BRANCH   4  18
ATOM     18  N   UNL     1      -7.854   4.538 134.146  0.00  0.00    +0.000 N 
ATOM     19  O   UNL     1      -7.358   3.410 134.016  0.00  0.00    +0.000 OA
ATOM     20  O   UNL     1      -7.869   5.167 135.210  0.00  0.00    +0.000 OA
ENDBRANCH   4  18
TORSDOF 4
ENDMDL
MODEL 7
REMARK VINA RESULT:      -6.4      9.387     10.260
REMARK  Name = Flutamide
REMARK  6 active torsions:
REMARK  status: ('A' for Active; 'I' for Inactive)
REMARK    1  A    between atoms: C_1  and  C_2
REMARK    2  A    between atoms: C_2  and  C_3
REMARK    3  A    between atoms: C_2  and  C_4
REMARK    4  A    between atoms: N_6  and  C_7
REMARK    5  A    between atoms: C_9  and  C_16
REMARK    6  A    between atoms: C_10  and  N_13
REMARK                            x       y       z     vdW  Elec       q    Type
REMARK                         _______ _______ _______ _____ _____    ______ ____
ROOT
ATOM      1  C   UNL     1      -7.715  -1.981 127.861  0.00  0.00    +0.000 A 
ATOM      2  C   UNL     1      -8.104  -2.815 126.807  0.00  0.00    +0.000 A 
ATOM      3  C   UNL     1      -8.427  -2.285 125.515  0.00  0.00    +0.000 A 
ATOM      4  C   UNL     1      -8.455  -0.886 125.355  0.00  0.00    +0.000 A 
ATOM      5  C   UNL     1      -7.994  -0.064 126.395  0.00  0.00    +0.000 A 
ATOM      6  C   UNL     1      -7.618  -0.613 127.618  0.00  0.00    +0.000 A 
ENDROOT
BRANCH   1   9
ATOM      7  C   UNL     1      -6.090  -2.913 129.433  0.00  0.00    +0.000 C 
ATOM      8  O   UNL     1      -5.170  -2.840 128.617  0.00  0.00    +0.000 OA
ATOM      9  N   UNL     1      -7.384  -2.477 129.149  0.00  0.00    +0.000 N 
ATOM     10  H   UNL     1      -8.051  -2.359 129.903  0.00  0.00    +0.000 HD
BRANCH   7  12
ATOM     11  C   UNL     1      -7.063  -3.208 131.718  0.00  0.00    +0.000 C 
ATOM     12  C   UNL     1      -5.837  -3.491 130.830  0.00  0.00    +0.000 C 
ATOM     13  C   UNL     1      -5.592  -4.993 130.796  0.00  0.00    +0.000 C 
ENDBRANCH   7  12
ENDBRANCH   1   9
BRANCH   3  14
ATOM     14  C   UNL     1      -8.605  -3.281 124.390  0.00  0.00    +0.000 C 
ATOM     15  F   UNL     1      -7.732  -2.998 123.375  0.00  0.00    +0.000 F 
ATOM     16  F   UNL     1      -8.323  -4.557 124.763  0.00  0.00    +0.000 F 
ATOM     17  F   UNL     1      -9.812  -3.300 123.772  0.00  0.00    +0.000 F 
ENDBRANCH   3  14
BRANCH   4  18
ATOM     18  N   UNL     1      -9.026  -0.190 124.183  0.00  0.00    +0.000 N 
ATOM     19  O   UNL     1     -10.193   0.221 124.258  0.00  0.00    +0.000 OA
ATOM     20  O   UNL     1      -8.280   0.022 123.221  0.00  0.00    +0.000 OA
ENDBRANCH   4  18
TORSDOF 4
ENDMDL
MODEL 8
REMARK VINA RESULT:      -6.3      3.521      6.622
REMARK  Name = Flutamide
REMARK  6 active torsions:
REMARK  status: ('A' for Active; 'I' for Inactive)
REMARK    1  A    between atoms: C_1  and  C_2
REMARK    2  A    between atoms: C_2  and  C_3
REMARK    3  A    between atoms: C_2  and  C_4
REMARK    4  A    between atoms: N_6  and  C_7
REMARK    5  A    between atoms: C_9  and  C_16
REMARK    6  A    between atoms: C_10  and  N_13
REMARK                            x       y       z     vdW  Elec       q    Type
REMARK                         _______ _______ _______ _____ _____    ______ ____
ROOT
ATOM      1  C   UNL     1     -10.204   6.249 130.627  0.00  0.00    +0.000 A 
ATOM      2  C   UNL     1     -10.329   4.873 130.852  0.00  0.00    +0.000 A 
ATOM      3  C   UNL     1      -9.257   4.109 131.419  0.00  0.00    +0.000 A 
ATOM      4  C   UNL     1      -8.025   4.752 131.646  0.00  0.00    +0.000 A 
ATOM      5  C   UNL     1      -7.935   6.144 131.485  0.00  0.00    +0.000 A 
ATOM      6  C   UNL     1      -9.016   6.873 130.999  0.00  0.00    +0.000 A 
ENDROOT
BRANCH   1   9
ATOM      7  C   UNL     1     -11.365   7.189 128.691  0.00  0.00    +0.000 C 
ATOM      8  O   UNL     1     -10.615   6.624 127.893  0.00  0.00    +0.000 OA
ATOM      9  N   UNL     1     -11.250   7.031 130.072  0.00  0.00    +0.000 N 
ATOM     10  H   UNL     1     -12.004   7.337 130.675  0.00  0.00    +0.000 HD
BRANCH   7  12
ATOM     11  C   UNL     1     -13.751   7.254 127.948  0.00  0.00    +0.000 C 
ATOM     12  C   UNL     1     -12.487   8.100 128.180  0.00  0.00    +0.000 C 
ATOM     13  C   UNL     1     -12.816   9.214 129.165  0.00  0.00    +0.000 C 
ENDBRANCH   7  12
ENDBRANCH   1   9
BRANCH   3  14
ATOM     14  C   UNL     1      -9.573   2.689 131.836  0.00  0.00    +0.000 C 
ATOM     15  F   UNL     1      -9.551   2.589 133.201  0.00  0.00    +0.000 F 
ATOM     16  F   UNL     1     -10.818   2.292 131.465  0.00  0.00    +0.000 F 
ATOM     17  F   UNL     1      -8.707   1.725 131.436  0.00  0.00    +0.000 F 
ENDBRANCH   3  14
BRANCH   4  18
ATOM     18  N   UNL     1      -6.763   4.053 131.962  0.00  0.00    +0.000 N 
ATOM     19  O   UNL     1      -6.034   3.705 131.022  0.00  0.00    +0.000 OA
ATOM     20  O   UNL     1      -6.457   3.930 133.152  0.00  0.00    +0.000 OA
ENDBRANCH   4  18
TORSDOF 4
ENDMDL
MODEL 9
REMARK VINA RESULT:      -6.1      9.497     10.371
REMARK  Name = Flutamide
REMARK  6 active torsions:
REMARK  status: ('A' for Active; 'I' for Inactive)
REMARK    1  A    between atoms: C_1  and  C_2
REMARK    2  A    between atoms: C_2  and  C_3
REMARK    3  A    between atoms: C_2  and  C_4
REMARK    4  A    between atoms: N_6  and  C_7
REMARK    5  A    between atoms: C_9  and  C_16
REMARK    6  A    between atoms: C_10  and  N_13
REMARK                            x       y       z     vdW  Elec       q    Type
REMARK                         _______ _______ _______ _____ _____    ______ ____
ROOT
ATOM      1  C   UNL     1      -7.191  -2.004 126.617  0.00  0.00    +0.000 A 
ATOM      2  C   UNL     1      -6.746  -2.236 125.311  0.00  0.00    +0.000 A 
ATOM      3  C   UNL     1      -7.335  -1.563 124.191  0.00  0.00    +0.000 A 
ATOM      4  C   UNL     1      -8.455  -0.741 124.419  0.00  0.00    +0.000 A 
ATOM      5  C   UNL     1      -8.846  -0.459 125.737  0.00  0.00    +0.000 A 
ATOM      6  C   UNL     1      -8.209  -1.073 126.812  0.00  0.00    +0.000 A 
ENDROOT
BRANCH   1   9
ATOM      7  C   UNL     1      -5.540  -2.089 128.419  0.00  0.00    +0.000 C 
ATOM      8  O   UNL     1      -5.061  -0.996 128.111  0.00  0.00    +0.000 OA
ATOM      9  N   UNL     1      -6.624  -2.651 127.746  0.00  0.00    +0.000 N 
ATOM     10  H   UNL     1      -7.115  -3.437 128.156  0.00  0.00    +0.000 HD
BRANCH   7  12
ATOM     11  C   UNL     1      -5.995  -3.910 130.070  0.00  0.00    +0.000 C 
ATOM     12  C   UNL     1      -4.951  -2.886 129.589  0.00  0.00    +0.000 C 
ATOM     13  C   UNL     1      -3.680  -3.627 129.199  0.00  0.00    +0.000 C 
ENDBRANCH   7  12
ENDBRANCH   1   9
BRANCH   3  14
ATOM     14  C   UNL     1      -6.631  -1.705 122.859  0.00  0.00    +0.000 C 
ATOM     15  F   UNL     1      -6.262  -0.471 122.394  0.00  0.00    +0.000 F 
ATOM     16  F   UNL     1      -5.478  -2.419 122.941  0.00  0.00    +0.000 F 
ATOM     17  F   UNL     1      -7.354  -2.223 121.835  0.00  0.00    +0.000 F 
ENDBRANCH   3  14
BRANCH   4  18
ATOM     18  N   UNL     1      -9.330  -0.206 123.355  0.00  0.00    +0.000 N 
ATOM     19  O   UNL     1      -9.188   0.979 123.021  0.00  0.00    +0.000 OA
ATOM     20  O   UNL     1     -10.098  -0.993 122.794  0.00  0.00    +0.000 OA
ENDBRANCH   4  18
TORSDOF 4
ENDMDL
