MODEL 1
REMARK VINA RESULT:      -9.7      0.000      0.000
REMARK  Name = Fluticasone propionate
REMARK  11 active torsions:
REMARK  status: ('A' for Active; 'I' for Inactive)
REMARK    1  A    between atoms: C_4  and  C_5
REMARK    2  A    between atoms: C_6  and  O_7
REMARK    3  A    between atoms: C_6  and  C_12
REMARK    4  A    between atoms: O_7  and  C_8
REMARK    5  A    between atoms: C_8  and  C_10
REMARK    6  A    between atoms: C_10  and  C_11
REMARK    7  A    between atoms: C_12  and  S_14
REMARK    8  A    between atoms: S_14  and  C_15
REMARK    9  A    between atoms: C_17  and  C_18
REMARK   10  A    between atoms: C_20  and  O_21
REMARK   11  A    between atoms: C_35  and  C_36
REMARK                            x       y       z     vdW  Elec       q    Type
REMARK                         _______ _______ _______ _____ _____    ______ ____
ROOT
ATOM      1  C   UNL     1      -5.654  -0.719 125.997  0.00  0.00    +0.000 C 
ATOM      2  C   UNL     1      -6.185  -1.903 125.389  0.00  0.00    +0.000 C 
ATOM      3  C   UNL     1      -7.305  -1.084 125.988  0.00  0.00    +0.000 C 
ATOM      4  C   UNL     1      -8.807  -2.109 126.397  0.00  0.00    +0.000 C 
ATOM      5  C   UNL     1      -6.643   0.809 126.574  0.00  0.00    +0.000 C 
ATOM      6  C   UNL     1      -6.997   0.399 125.357  0.00  0.00    +0.000 C 
ATOM      7  C   UNL     1      -6.736   0.953 124.010  0.00  0.00    +0.000 C 
ATOM      8  C   UNL     1      -8.602   0.467 126.305  0.00  0.00    +0.000 C 
ATOM      9  C   UNL     1      -8.290   0.010 128.078  0.00  0.00    +0.000 C 
ATOM     10  C   UNL     1      -7.025  -1.156 128.530  0.00  0.00    +0.000 C 
ATOM     11  F   UNL     1      -7.115  -2.185 127.609  0.00  0.00    +0.000 F 
ATOM     12  C   UNL     1      -5.619  -0.885 127.863  0.00  0.00    +0.000 C 
ATOM     13  C   UNL     1      -4.701  -2.113 128.042  0.00  0.00    +0.000 C 
ATOM     14  C   UNL     1      -4.711  -2.622 129.436  0.00  0.00    +0.000 C 
ATOM     15  F   UNL     1      -3.784  -3.610 129.490  0.00  0.00    +0.000 F 
ATOM     16  C   UNL     1      -6.059  -3.226 129.639  0.00  0.00    +0.000 C 
ATOM     17  C   UNL     1      -6.268  -4.443 130.196  0.00  0.00    +0.000 C 
ATOM     18  C   UNL     1      -5.749  -4.085 131.501  0.00  0.00    +0.000 C 
ATOM     19  O   UNL     1      -4.653  -4.393 131.915  0.00  0.00    +0.000 OA
ATOM     20  C   UNL     1      -6.820  -3.225 132.119  0.00  0.00    +0.000 C 
ATOM     21  C   UNL     1      -7.455  -2.268 131.319  0.00  0.00    +0.000 C 
ATOM     22  C   UNL     1      -7.249  -2.292 129.723  0.00  0.00    +0.000 C 
ATOM     23  C   UNL     1      -8.312  -3.265 128.993  0.00  0.00    +0.000 C 
ENDROOT
BRANCH   5  24
ATOM     24  C   UNL     1      -7.276   2.566 126.358  0.00  0.00    +0.000 C 
ATOM     25  O   UNL     1      -7.490   3.362 127.267  0.00  0.00    +0.000 OA
BRANCH  24  26
ATOM     26  S   UNL     1      -7.717   3.310 124.739  0.00  0.00    +0.000 S 
BRANCH  26  27
ATOM     27  C   UNL     1      -6.210   4.565 124.466  0.00  0.00    +0.000 C 
ATOM     28  F   UNL     1      -5.244   3.960 123.691  0.00  0.00    +0.000 F 
ENDBRANCH  26  27
ENDBRANCH  24  26
ENDBRANCH   5  24
BRANCH   9  29
ATOM     29  O   UNL     1      -8.102   1.256 128.773  0.00  0.00    +0.000 OA
ATOM     30  H   UNL     1      -7.784   1.128 129.682  0.00  0.00    +0.000 HD
ENDBRANCH   9  29
BRANCH   5  31
ATOM     31  O   UNL     1      -5.054   1.458 126.190  0.00  0.00    +0.000 OA
BRANCH  31  32
ATOM     32  C   UNL     1      -4.217   2.285 126.910  0.00  0.00    +0.000 C 
ATOM     33  O   UNL     1      -4.059   2.199 128.122  0.00  0.00    +0.000 OA
BRANCH  32  34
ATOM     34  C   UNL     1      -3.299   3.303 126.285  0.00  0.00    +0.000 C 
ATOM     35  C   UNL     1      -1.894   3.055 126.941  0.00  0.00    +0.000 C 
ENDBRANCH  32  34
ENDBRANCH  31  32
ENDBRANCH   5  31
TORSDOF 7
ENDMDL
MODEL 2
REMARK VINA RESULT:      -9.4      3.765      7.360
REMARK  Name = Fluticasone propionate
REMARK  11 active torsions:
REMARK  status: ('A' for Active; 'I' for Inactive)
REMARK    1  A    between atoms: C_4  and  C_5
REMARK    2  A    between atoms: C_6  and  O_7
REMARK    3  A    between atoms: C_6  and  C_12
REMARK    4  A    between atoms: O_7  and  C_8
REMARK    5  A    between atoms: C_8  and  C_10
REMARK    6  A    between atoms: C_10  and  C_11
REMARK    7  A    between atoms: C_12  and  S_14
REMARK    8  A    between atoms: S_14  and  C_15
REMARK    9  A    between atoms: C_17  and  C_18
REMARK   10  A    between atoms: C_20  and  O_21
REMARK   11  A    between atoms: C_35  and  C_36
REMARK                            x       y       z     vdW  Elec       q    Type
REMARK                         _______ _______ _______ _____ _____    ______ ____
ROOT
ATOM      1  C   UNL     1      -5.918  -4.116 131.246  0.00  0.00    +0.000 C 
ATOM      2  C   UNL     1      -5.138  -4.935 130.367  0.00  0.00    +0.000 C 
ATOM      3  C   UNL     1      -4.538  -3.550 130.448  0.00  0.00    +0.000 C 
ATOM      4  C   UNL     1      -3.514  -3.121 128.952  0.00  0.00    +0.000 C 
ATOM      5  C   UNL     1      -5.415  -2.422 131.973  0.00  0.00    +0.000 C 
ATOM      6  C   UNL     1      -4.445  -3.331 132.072  0.00  0.00    +0.000 C 
ATOM      7  C   UNL     1      -3.917  -4.094 133.224  0.00  0.00    +0.000 C 
ATOM      8  C   UNL     1      -3.636  -1.883 131.219  0.00  0.00    +0.000 C 
ATOM      9  C   UNL     1      -4.878  -1.038 130.128  0.00  0.00    +0.000 C 
ATOM     10  C   UNL     1      -6.180  -1.943 129.324  0.00  0.00    +0.000 C 
ATOM     11  F   UNL     1      -5.594  -3.103 128.848  0.00  0.00    +0.000 F 
ATOM     12  C   UNL     1      -6.981  -2.917 130.274  0.00  0.00    +0.000 C 
ATOM     13  C   UNL     1      -7.844  -3.886 129.438  0.00  0.00    +0.000 C 
ATOM     14  C   UNL     1      -8.607  -3.182 128.377  0.00  0.00    +0.000 C 
ATOM     15  F   UNL     1      -9.408  -4.112 127.801  0.00  0.00    +0.000 F 
ATOM     16  C   UNL     1      -7.597  -2.740 127.373  0.00  0.00    +0.000 C 
ATOM     17  C   UNL     1      -7.732  -2.913 126.037  0.00  0.00    +0.000 C 
ATOM     18  C   UNL     1      -8.887  -2.048 125.903  0.00  0.00    +0.000 C 
ATOM     19  O   UNL     1     -10.029  -2.437 125.787  0.00  0.00    +0.000 OA
ATOM     20  C   UNL     1      -8.338  -0.651 126.026  0.00  0.00    +0.000 C 
ATOM     21  C   UNL     1      -7.368  -0.396 127.000  0.00  0.00    +0.000 C 
ATOM     22  C   UNL     1      -6.654  -1.621 127.763  0.00  0.00    +0.000 C 
ATOM     23  C   UNL     1      -5.364  -2.163 126.956  0.00  0.00    +0.000 C 
ENDROOT
BRANCH   5  24
ATOM     24  C   UNL     1      -4.770  -1.325 133.356  0.00  0.00    +0.000 C 
ATOM     25  O   UNL     1      -4.927  -0.111 133.433  0.00  0.00    +0.000 OA
BRANCH  24  26
ATOM     26  S   UNL     1      -3.757  -1.931 134.762  0.00  0.00    +0.000 S 
BRANCH  26  27
ATOM     27  C   UNL     1      -2.053  -0.969 134.456  0.00  0.00    +0.000 C 
ATOM     28  F   UNL     1      -1.333  -1.615 133.474  0.00  0.00    +0.000 F 
ENDBRANCH  26  27
ENDBRANCH  24  26
ENDBRANCH   5  24
BRANCH   9  29
ATOM     29  O   UNL     1      -5.420   0.037 130.917  0.00  0.00    +0.000 OA
ATOM     30  H   UNL     1      -5.949  -0.285 131.666  0.00  0.00    +0.000 HD
ENDBRANCH   9  29
BRANCH   5  31
ATOM     31  O   UNL     1      -6.525  -3.079 133.168  0.00  0.00    +0.000 OA
BRANCH  31  32
ATOM     32  C   UNL     1      -7.720  -2.592 133.656  0.00  0.00    +0.000 C 
ATOM     33  O   UNL     1      -8.229  -1.544 133.279  0.00  0.00    +0.000 OA
BRANCH  32  34
ATOM     34  C   UNL     1      -8.609  -3.346 134.612  0.00  0.00    +0.000 C 
ATOM     35  C   UNL     1      -7.757  -4.575 135.092  0.00  0.00    +0.000 C 
ENDBRANCH  32  34
ENDBRANCH  31  32
ENDBRANCH   5  31
TORSDOF 7
ENDMDL
MODEL 3
REMARK VINA RESULT:      -9.3      3.159      5.358
REMARK  Name = Fluticasone propionate
REMARK  11 active torsions:
REMARK  status: ('A' for Active; 'I' for Inactive)
REMARK    1  A    between atoms: C_4  and  C_5
REMARK    2  A    between atoms: C_6  and  O_7
REMARK    3  A    between atoms: C_6  and  C_12
REMARK    4  A    between atoms: O_7  and  C_8
REMARK    5  A    between atoms: C_8  and  C_10
REMARK    6  A    between atoms: C_10  and  C_11
REMARK    7  A    between atoms: C_12  and  S_14
REMARK    8  A    between atoms: S_14  and  C_15
REMARK    9  A    between atoms: C_17  and  C_18
REMARK   10  A    between atoms: C_20  and  O_21
REMARK   11  A    between atoms: C_35  and  C_36
REMARK                            x       y       z     vdW  Elec       q    Type
REMARK                         _______ _______ _______ _____ _____    ______ ____
ROOT
ATOM      1  C   UNL     1      -7.804   3.114 127.727  0.00  0.00    +0.000 C 
ATOM      2  C   UNL     1      -8.640   2.543 128.740  0.00  0.00    +0.000 C 
ATOM      3  C   UNL     1      -7.225   2.039 128.898  0.00  0.00    +0.000 C 
ATOM      4  C   UNL     1      -7.137   0.405 129.789  0.00  0.00    +0.000 C 
ATOM      5  C   UNL     1      -5.894   3.097 127.683  0.00  0.00    +0.000 C 
ATOM      6  C   UNL     1      -6.376   3.444 128.876  0.00  0.00    +0.000 C 
ATOM      7  C   UNL     1      -6.447   4.746 129.575  0.00  0.00    +0.000 C 
ATOM      8  C   UNL     1      -5.208   2.036 129.241  0.00  0.00    +0.000 C 
ATOM      9  C   UNL     1      -5.243   0.824 127.835  0.00  0.00    +0.000 C 
ATOM     10  C   UNL     1      -6.720   0.545 126.884  0.00  0.00    +0.000 C 
ATOM     11  F   UNL     1      -7.754   0.492 127.802  0.00  0.00    +0.000 F 
ATOM     12  C   UNL     1      -7.433   1.862 126.384  0.00  0.00    +0.000 C 
ATOM     13  C   UNL     1      -8.852   1.536 125.872  0.00  0.00    +0.000 C 
ATOM     14  C   UNL     1      -8.865   0.362 124.964  0.00  0.00    +0.000 C 
ATOM     15  F   UNL     1     -10.132   0.256 124.492  0.00  0.00    +0.000 F 
ATOM     16  C   UNL     1      -8.579  -0.822 125.824  0.00  0.00    +0.000 C 
ATOM     17  C   UNL     1      -9.287  -1.975 125.784  0.00  0.00    +0.000 C 
ATOM     18  C   UNL     1      -8.910  -2.320 124.428  0.00  0.00    +0.000 C 
ATOM     19  O   UNL     1      -9.621  -2.177 123.457  0.00  0.00    +0.000 OA
ATOM     20  C   UNL     1      -7.481  -2.786 124.532  0.00  0.00    +0.000 C 
ATOM     21  C   UNL     1      -6.603  -2.073 125.355  0.00  0.00    +0.000 C 
ATOM     22  C   UNL     1      -7.178  -0.972 126.379  0.00  0.00    +0.000 C 
ATOM     23  C   UNL     1      -7.599  -1.627 127.795  0.00  0.00    +0.000 C 
ENDROOT
BRANCH   5  24
ATOM     24  C   UNL     1      -4.212   3.898 127.933  0.00  0.00    +0.000 C 
ATOM     25  O   UNL     1      -3.201   3.649 127.283  0.00  0.00    +0.000 OA
BRANCH  24  26
ATOM     26  S   UNL     1      -3.845   5.133 129.240  0.00  0.00    +0.000 S 
BRANCH  26  27
ATOM     27  C   UNL     1      -3.540   6.764 128.158  0.00  0.00    +0.000 C 
ATOM     28  F   UNL     1      -2.187   6.937 127.963  0.00  0.00    +0.000 F 
ENDBRANCH  26  27
ENDBRANCH  24  26
ENDBRANCH   5  24
BRANCH   9  29
ATOM     29  O   UNL     1      -4.149   1.195 126.976  0.00  0.00    +0.000 OA
ATOM     30  H   UNL     1      -3.587   0.436 126.746  0.00  0.00    +0.000 HD
ENDBRANCH   9  29
BRANCH   5  31
ATOM     31  O   UNL     1      -6.322   4.547 126.786  0.00  0.00    +0.000 OA
BRANCH  31  32
ATOM     32  C   UNL     1      -6.038   4.926 125.490  0.00  0.00    +0.000 C 
ATOM     33  O   UNL     1      -6.265   6.045 125.046  0.00  0.00    +0.000 OA
BRANCH  32  34
ATOM     34  C   UNL     1      -5.297   4.060 124.503  0.00  0.00    +0.000 C 
ATOM     35  C   UNL     1      -6.332   3.747 123.364  0.00  0.00    +0.000 C 
ENDBRANCH  32  34
ENDBRANCH  31  32
ENDBRANCH   5  31
TORSDOF 7
ENDMDL
MODEL 4
REMARK VINA RESULT:      -9.2      3.482      5.646
REMARK  Name = Fluticasone propionate
REMARK  11 active torsions:
REMARK  status: ('A' for Active; 'I' for Inactive)
REMARK    1  A    between atoms: C_4  and  C_5
REMARK    2  A    between atoms: C_6  and  O_7
REMARK    3  A    between atoms: C_6  and  C_12
REMARK    4  A    between atoms: O_7  and  C_8
REMARK    5  A    between atoms: C_8  and  C_10
REMARK    6  A    between atoms: C_10  and  C_11
REMARK    7  A    between atoms: C_12  and  S_14
REMARK    8  A    between atoms: S_14  and  C_15
REMARK    9  A    between atoms: C_17  and  C_18
REMARK   10  A    between atoms: C_20  and  O_21
REMARK   11  A    between atoms: C_35  and  C_36
REMARK                            x       y       z     vdW  Elec       q    Type
REMARK                         _______ _______ _______ _____ _____    ______ ____
ROOT
ATOM      1  C   UNL     1      -5.953   0.809 125.304  0.00  0.00    +0.000 C 
ATOM      2  C   UNL     1      -5.154   0.119 126.273  0.00  0.00    +0.000 C 
ATOM      3  C   UNL     1      -6.581  -0.374 126.338  0.00  0.00    +0.000 C 
ATOM      4  C   UNL     1      -7.016  -1.102 127.996  0.00  0.00    +0.000 C 
ATOM      5  C   UNL     1      -7.710   0.332 124.727  0.00  0.00    +0.000 C 
ATOM      6  C   UNL     1      -6.881  -0.711 124.760  0.00  0.00    +0.000 C 
ATOM      7  C   UNL     1      -6.212  -1.479 123.687  0.00  0.00    +0.000 C 
ATOM      8  C   UNL     1      -8.343  -1.253 125.783  0.00  0.00    +0.000 C 
ATOM      9  C   UNL     1      -9.045   0.213 126.680  0.00  0.00    +0.000 C 
ATOM     10  C   UNL     1      -8.010   1.553 127.227  0.00  0.00    +0.000 C 
ATOM     11  F   UNL     1      -6.876   0.961 127.754  0.00  0.00    +0.000 F 
ATOM     12  C   UNL     1      -7.025   2.108 126.125  0.00  0.00    +0.000 C 
ATOM     13  C   UNL     1      -5.959   3.015 126.775  0.00  0.00    +0.000 C 
ATOM     14  C   UNL     1      -6.555   3.995 127.717  0.00  0.00    +0.000 C 
ATOM     15  F   UNL     1      -5.543   4.802 128.122  0.00  0.00    +0.000 F 
ATOM     16  C   UNL     1      -7.024   3.200 128.888  0.00  0.00    +0.000 C 
ATOM     17  C   UNL     1      -6.781   3.536 130.178  0.00  0.00    +0.000 C 
ATOM     18  C   UNL     1      -7.551   4.763 130.146  0.00  0.00    +0.000 C 
ATOM     19  O   UNL     1      -7.076   5.874 130.059  0.00  0.00    +0.000 OA
ATOM     20  C   UNL     1      -8.990   4.315 130.163  0.00  0.00    +0.000 C 
ATOM     21  C   UNL     1      -9.359   3.222 129.371  0.00  0.00    +0.000 C 
ATOM     22  C   UNL     1      -8.226   2.299 128.697  0.00  0.00    +0.000 C 
ATOM     23  C   UNL     1      -7.744   1.117 129.688  0.00  0.00    +0.000 C 
ENDROOT
BRANCH   5  24
ATOM     24  C   UNL     1      -8.913  -0.441 123.506  0.00  0.00    +0.000 C 
ATOM     25  O   UNL     1     -10.051  -0.042 123.280  0.00  0.00    +0.000 OA
BRANCH  24  26
ATOM     26  S   UNL     1      -8.556  -1.948 122.522  0.00  0.00    +0.000 S 
BRANCH  26  27
ATOM     27  C   UNL     1      -9.572  -3.318 123.529  0.00  0.00    +0.000 C 
ATOM     28  F   UNL     1      -8.696  -4.102 124.248  0.00  0.00    +0.000 F 
ENDBRANCH  26  27
ENDBRANCH  24  26
ENDBRANCH   5  24
BRANCH   9  29
ATOM     29  O   UNL     1     -10.112   0.704 125.847  0.00  0.00    +0.000 OA
ATOM     30  H   UNL     1     -10.148   1.675 125.826  0.00  0.00    +0.000 HD
ENDBRANCH   9  29
BRANCH   5  31
ATOM     31  O   UNL     1      -7.028   1.176 123.343  0.00  0.00    +0.000 OA
BRANCH  31  32
ATOM     32  C   UNL     1      -7.279   2.436 122.840  0.00  0.00    +0.000 C 
ATOM     33  O   UNL     1      -8.400   2.844 122.562  0.00  0.00    +0.000 OA
BRANCH  32  34
ATOM     34  C   UNL     1      -6.229   3.509 122.695  0.00  0.00    +0.000 C 
ATOM     35  C   UNL     1      -5.669   3.349 121.237  0.00  0.00    +0.000 C 
ENDBRANCH  32  34
ENDBRANCH  31  32
ENDBRANCH   5  31
TORSDOF 7
ENDMDL
MODEL 5
REMARK VINA RESULT:      -9.2      5.894      7.746
REMARK  Name = Fluticasone propionate
REMARK  11 active torsions:
REMARK  status: ('A' for Active; 'I' for Inactive)
REMARK    1  A    between atoms: C_4  and  C_5
REMARK    2  A    between atoms: C_6  and  O_7
REMARK    3  A    between atoms: C_6  and  C_12
REMARK    4  A    between atoms: O_7  and  C_8
REMARK    5  A    between atoms: C_8  and  C_10
REMARK    6  A    between atoms: C_10  and  C_11
REMARK    7  A    between atoms: C_12  and  S_14
REMARK    8  A    between atoms: S_14  and  C_15
REMARK    9  A    between atoms: C_17  and  C_18
REMARK   10  A    between atoms: C_20  and  O_21
REMARK   11  A    between atoms: C_35  and  C_36
REMARK                            x       y       z     vdW  Elec       q    Type
REMARK                         _______ _______ _______ _____ _____    ______ ____
ROOT
ATOM      1  C   UNL     1      -8.282   3.356 130.830  0.00  0.00    +0.000 C 
ATOM      2  C   UNL     1      -8.499   2.876 132.163  0.00  0.00    +0.000 C 
ATOM      3  C   UNL     1      -8.778   4.360 132.098  0.00  0.00    +0.000 C 
ATOM      4  C   UNL     1      -8.597   5.199 133.751  0.00  0.00    +0.000 C 
ATOM      5  C   UNL     1      -8.822   5.047 130.125  0.00  0.00    +0.000 C 
ATOM      6  C   UNL     1      -9.793   4.445 130.811  0.00  0.00    +0.000 C 
ATOM      7  C   UNL     1     -11.031   3.758 130.381  0.00  0.00    +0.000 C 
ATOM      8  C   UNL     1      -9.659   6.135 131.588  0.00  0.00    +0.000 C 
ATOM      9  C   UNL     1      -7.888   6.693 131.549  0.00  0.00    +0.000 C 
ATOM     10  C   UNL     1      -6.544   5.535 131.676  0.00  0.00    +0.000 C 
ATOM     11  F   UNL     1      -6.912   4.638 132.663  0.00  0.00    +0.000 F 
ATOM     12  C   UNL     1      -6.662   4.290 130.712  0.00  0.00    +0.000 C 
ATOM     13  C   UNL     1      -5.651   3.200 131.126  0.00  0.00    +0.000 C 
ATOM     14  C   UNL     1      -4.296   3.754 131.367  0.00  0.00    +0.000 C 
ATOM     15  F   UNL     1      -3.484   2.693 131.600  0.00  0.00    +0.000 F 
ATOM     16  C   UNL     1      -4.400   4.555 132.620  0.00  0.00    +0.000 C 
ATOM     17  C   UNL     1      -3.518   4.477 133.644  0.00  0.00    +0.000 C 
ATOM     18  C   UNL     1      -2.390   4.988 132.892  0.00  0.00    +0.000 C 
ATOM     19  O   UNL     1      -1.497   4.305 132.439  0.00  0.00    +0.000 OA
ATOM     20  C   UNL     1      -2.651   6.466 132.763  0.00  0.00    +0.000 C 
ATOM     21  C   UNL     1      -3.951   6.893 132.473  0.00  0.00    +0.000 C 
ATOM     22  C   UNL     1      -5.177   5.854 132.567  0.00  0.00    +0.000 C 
ATOM     23  C   UNL     1      -5.788   5.777 134.061  0.00  0.00    +0.000 C 
ENDROOT
BRANCH   5  24
ATOM     24  C   UNL     1      -9.972   6.147 129.124  0.00  0.00    +0.000 C 
ATOM     25  O   UNL     1      -9.633   6.866 128.189  0.00  0.00    +0.000 OA
BRANCH  24  26
ATOM     26  S   UNL     1     -11.766   6.335 129.459  0.00  0.00    +0.000 S 
BRANCH  26  27
ATOM     27  C   UNL     1     -11.928   8.304 129.612  0.00  0.00    +0.000 C 
ATOM     28  F   UNL     1     -12.113   8.846 128.359  0.00  0.00    +0.000 F 
ENDBRANCH  26  27
ENDBRANCH  24  26
ENDBRANCH   5  24
BRANCH   9  29
ATOM     29  O   UNL     1      -7.759   7.492 130.359  0.00  0.00    +0.000 OA
ATOM     30  H   UNL     1      -7.558   8.422 130.559  0.00  0.00    +0.000 HD
ENDBRANCH   9  29
BRANCH   5  31
ATOM     31  O   UNL     1      -8.792   3.994 128.716  0.00  0.00    +0.000 OA
BRANCH  31  32
ATOM     32  C   UNL     1      -7.834   3.818 127.740  0.00  0.00    +0.000 C 
ATOM     33  O   UNL     1      -7.337   4.739 127.104  0.00  0.00    +0.000 OA
BRANCH  32  34
ATOM     34  C   UNL     1      -7.187   2.493 127.425  0.00  0.00    +0.000 C 
ATOM     35  C   UNL     1      -8.312   1.419 127.636  0.00  0.00    +0.000 C 
ENDBRANCH  32  34
ENDBRANCH  31  32
ENDBRANCH   5  31
TORSDOF 7
ENDMDL
MODEL 6
REMARK VINA RESULT:      -9.2      3.702      6.755
REMARK  Name = Fluticasone propionate
REMARK  11 active torsions:
REMARK  status: ('A' for Active; 'I' for Inactive)
REMARK    1  A    between atoms: C_4  and  C_5
REMARK    2  A    between atoms: C_6  and  O_7
REMARK    3  A    between atoms: C_6  and  C_12
REMARK    4  A    between atoms: O_7  and  C_8
REMARK    5  A    between atoms: C_8  and  C_10
REMARK    6  A    between atoms: C_10  and  C_11
REMARK    7  A    between atoms: C_12  and  S_14
REMARK    8  A    between atoms: S_14  and  C_15
REMARK    9  A    between atoms: C_17  and  C_18
REMARK   10  A    between atoms: C_20  and  O_21
REMARK   11  A    between atoms: C_35  and  C_36
REMARK                            x       y       z     vdW  Elec       q    Type
REMARK                         _______ _______ _______ _____ _____    ______ ____
ROOT
ATOM      1  C   UNL     1      -6.700   1.558 128.931  0.00  0.00    +0.000 C 
ATOM      2  C   UNL     1      -5.466   1.064 128.397  0.00  0.00    +0.000 C 
ATOM      3  C   UNL     1      -5.661   2.506 127.991  0.00  0.00    +0.000 C 
ATOM      4  C   UNL     1      -4.724   2.950 126.442  0.00  0.00    +0.000 C 
ATOM      5  C   UNL     1      -7.253   3.385 129.020  0.00  0.00    +0.000 C 
ATOM      6  C   UNL     1      -5.999   3.208 129.435  0.00  0.00    +0.000 C 
ATOM      7  C   UNL     1      -5.390   3.223 130.784  0.00  0.00    +0.000 C 
ATOM      8  C   UNL     1      -5.871   4.536 128.132  0.00  0.00    +0.000 C 
ATOM      9  C   UNL     1      -7.136   4.226 126.809  0.00  0.00    +0.000 C 
ATOM     10  C   UNL     1      -7.637   2.578 126.368  0.00  0.00    +0.000 C 
ATOM     11  F   UNL     1      -6.475   1.828 126.331  0.00  0.00    +0.000 F 
ATOM     12  C   UNL     1      -8.011   1.659 127.596  0.00  0.00    +0.000 C 
ATOM     13  C   UNL     1      -8.103   0.185 127.148  0.00  0.00    +0.000 C 
ATOM     14  C   UNL     1      -8.898   0.025 125.906  0.00  0.00    +0.000 C 
ATOM     15  F   UNL     1      -9.006  -1.309 125.688  0.00  0.00    +0.000 F 
ATOM     16  C   UNL     1      -8.073   0.617 124.814  0.00  0.00    +0.000 C 
ATOM     17  C   UNL     1      -7.847   0.015 123.623  0.00  0.00    +0.000 C 
ATOM     18  C   UNL     1      -9.230   0.048 123.190  0.00  0.00    +0.000 C 
ATOM     19  O   UNL     1      -9.983  -0.902 123.212  0.00  0.00    +0.000 OA
ATOM     20  C   UNL     1      -9.483   1.485 122.817  0.00  0.00    +0.000 C 
ATOM     21  C   UNL     1      -8.972   2.491 123.645  0.00  0.00    +0.000 C 
ATOM     22  C   UNL     1      -7.904   2.122 124.791  0.00  0.00    +0.000 C 
ATOM     23  C   UNL     1      -6.388   2.140 124.231  0.00  0.00    +0.000 C 
ENDROOT
BRANCH   5  24
ATOM     24  C   UNL     1      -7.513   5.006 129.935  0.00  0.00    +0.000 C 
ATOM     25  O   UNL     1      -8.333   5.869 129.635  0.00  0.00    +0.000 OA
BRANCH  24  26
ATOM     26  S   UNL     1      -6.520   5.543 131.382  0.00  0.00    +0.000 S 
BRANCH  26  27
ATOM     27  C   UNL     1      -7.764   5.151 132.873  0.00  0.00    +0.000 C 
ATOM     28  F   UNL     1      -7.605   3.840 133.268  0.00  0.00    +0.000 F 
ENDBRANCH  26  27
ENDBRANCH  24  26
ENDBRANCH   5  24
BRANCH   9  29
ATOM     29  O   UNL     1      -8.278   5.024 127.170  0.00  0.00    +0.000 OA
ATOM     30  H   UNL     1      -8.035   5.940 127.387  0.00  0.00    +0.000 HD
ENDBRANCH   9  29
BRANCH   5  31
ATOM     31  O   UNL     1      -8.093   2.625 130.365  0.00  0.00    +0.000 OA
BRANCH  31  32
ATOM     32  C   UNL     1      -9.433   2.591 130.691  0.00  0.00    +0.000 C 
ATOM     33  O   UNL     1     -10.303   3.157 130.040  0.00  0.00    +0.000 OA
BRANCH  32  34
ATOM     34  C   UNL     1     -10.009   1.752 131.803  0.00  0.00    +0.000 C 
ATOM     35  C   UNL     1      -9.164   0.429 131.806  0.00  0.00    +0.000 C 
ENDBRANCH  32  34
ENDBRANCH  31  32
ENDBRANCH   5  31
TORSDOF 7
ENDMDL
MODEL 7
REMARK VINA RESULT:      -9.2      2.302      4.249
REMARK  Name = Fluticasone propionate
REMARK  11 active torsions:
REMARK  status: ('A' for Active; 'I' for Inactive)
REMARK    1  A    between atoms: C_4  and  C_5
REMARK    2  A    between atoms: C_6  and  O_7
REMARK    3  A    between atoms: C_6  and  C_12
REMARK    4  A    between atoms: O_7  and  C_8
REMARK    5  A    between atoms: C_8  and  C_10
REMARK    6  A    between atoms: C_10  and  C_11
REMARK    7  A    between atoms: C_12  and  S_14
REMARK    8  A    between atoms: S_14  and  C_15
REMARK    9  A    between atoms: C_17  and  C_18
REMARK   10  A    between atoms: C_20  and  O_21
REMARK   11  A    between atoms: C_35  and  C_36
REMARK                            x       y       z     vdW  Elec       q    Type
REMARK                         _______ _______ _______ _____ _____    ______ ____
ROOT
ATOM      1  C   UNL     1      -8.499   0.044 127.233  0.00  0.00    +0.000 C 
ATOM      2  C   UNL     1      -8.328   0.974 128.310  0.00  0.00    +0.000 C 
ATOM      3  C   UNL     1      -7.131   1.027 127.390  0.00  0.00    +0.000 C 
ATOM      4  C   UNL     1      -5.597   1.656 128.239  0.00  0.00    +0.000 C 
ATOM      5  C   UNL     1      -7.473  -0.038 125.624  0.00  0.00    +0.000 C 
ATOM      6  C   UNL     1      -7.854   1.203 125.927  0.00  0.00    +0.000 C 
ATOM      7  C   UNL     1      -8.881   2.094 125.344  0.00  0.00    +0.000 C 
ATOM      8  C   UNL     1      -6.006   1.328 125.708  0.00  0.00    +0.000 C 
ATOM      9  C   UNL     1      -5.208  -0.245 126.287  0.00  0.00    +0.000 C 
ATOM     10  C   UNL     1      -5.894  -1.200 127.621  0.00  0.00    +0.000 C 
ATOM     11  F   UNL     1      -6.274  -0.283 128.584  0.00  0.00    +0.000 F 
ATOM     12  C   UNL     1      -7.442  -1.481 127.494  0.00  0.00    +0.000 C 
ATOM     13  C   UNL     1      -7.998  -2.011 128.833  0.00  0.00    +0.000 C 
ATOM     14  C   UNL     1      -7.151  -3.087 129.405  0.00  0.00    +0.000 C 
ATOM     15  F   UNL     1      -7.803  -3.546 130.502  0.00  0.00    +0.000 F 
ATOM     16  C   UNL     1      -5.891  -2.422 129.847  0.00  0.00    +0.000 C 
ATOM     17  C   UNL     1      -5.311  -2.624 131.054  0.00  0.00    +0.000 C 
ATOM     18  C   UNL     1      -5.011  -4.024 130.828  0.00  0.00    +0.000 C 
ATOM     19  O   UNL     1      -5.643  -4.948 131.290  0.00  0.00    +0.000 OA
ATOM     20  C   UNL     1      -3.845  -4.018 129.873  0.00  0.00    +0.000 C 
ATOM     21  C   UNL     1      -3.858  -3.112 128.807  0.00  0.00    +0.000 C 
ATOM     22  C   UNL     1      -4.942  -1.922 128.778  0.00  0.00    +0.000 C 
ATOM     23  C   UNL     1      -4.423  -0.615 129.574  0.00  0.00    +0.000 C 
ENDROOT
BRANCH   5  24
ATOM     24  C   UNL     1      -7.210   0.301 123.794  0.00  0.00    +0.000 C 
ATOM     25  O   UNL     1      -6.490  -0.352 123.046  0.00  0.00    +0.000 OA
BRANCH  24  26
ATOM     26  S   UNL     1      -7.964   1.709 122.889  0.00  0.00    +0.000 S 
BRANCH  26  27
ATOM     27  C   UNL     1      -6.384   2.862 122.580  0.00  0.00    +0.000 C 
ATOM     28  F   UNL     1      -5.814   2.542 121.366  0.00  0.00    +0.000 F 
ENDBRANCH  26  27
ENDBRANCH  24  26
ENDBRANCH   5  24
BRANCH   9  29
ATOM     29  O   UNL     1      -5.053  -1.058 125.109  0.00  0.00    +0.000 OA
ATOM     30  H   UNL     1      -4.423  -1.786 125.242  0.00  0.00    +0.000 HD
ENDBRANCH   9  29
BRANCH   5  31
ATOM     31  O   UNL     1      -9.036  -0.695 125.160  0.00  0.00    +0.000 OA
BRANCH  31  32
ATOM     32  C   UNL     1      -9.363  -1.815 124.424  0.00  0.00    +0.000 C 
ATOM     33  O   UNL     1      -9.797  -1.769 123.279  0.00  0.00    +0.000 OA
BRANCH  32  34
ATOM     34  C   UNL     1      -9.106  -3.228 124.881  0.00  0.00    +0.000 C 
ATOM     35  C   UNL     1      -7.660  -3.572 124.376  0.00  0.00    +0.000 C 
ENDBRANCH  32  34
ENDBRANCH  31  32
ENDBRANCH   5  31
TORSDOF 7
ENDMDL
MODEL 8
REMARK VINA RESULT:      -9.0      3.376      5.612
REMARK  Name = Fluticasone propionate
REMARK  11 active torsions:
REMARK  status: ('A' for Active; 'I' for Inactive)
REMARK    1  A    between atoms: C_4  and  C_5
REMARK    2  A    between atoms: C_6  and  O_7
REMARK    3  A    between atoms: C_6  and  C_12
REMARK    4  A    between atoms: O_7  and  C_8
REMARK    5  A    between atoms: C_8  and  C_10
REMARK    6  A    between atoms: C_10  and  C_11
REMARK    7  A    between atoms: C_12  and  S_14
REMARK    8  A    between atoms: S_14  and  C_15
REMARK    9  A    between atoms: C_17  and  C_18
REMARK   10  A    between atoms: C_20  and  O_21
REMARK   11  A    between atoms: C_35  and  C_36
REMARK                            x       y       z     vdW  Elec       q    Type
REMARK                         _______ _______ _______ _____ _____    ______ ____
ROOT
ATOM      1  C   UNL     1      -6.514   0.724 126.638  0.00  0.00    +0.000 C 
ATOM      2  C   UNL     1      -5.260   1.128 127.202  0.00  0.00    +0.000 C 
ATOM      3  C   UNL     1      -5.667  -0.216 127.761  0.00  0.00    +0.000 C 
ATOM      4  C   UNL     1      -4.893  -0.570 129.418  0.00  0.00    +0.000 C 
ATOM      5  C   UNL     1      -7.296  -1.017 126.725  0.00  0.00    +0.000 C 
ATOM      6  C   UNL     1      -6.007  -1.050 126.389  0.00  0.00    +0.000 C 
ATOM      7  C   UNL     1      -5.325  -1.312 125.102  0.00  0.00    +0.000 C 
ATOM      8  C   UNL     1      -6.133  -2.206 127.847  0.00  0.00    +0.000 C 
ATOM      9  C   UNL     1      -7.425  -1.577 129.023  0.00  0.00    +0.000 C 
ATOM     10  C   UNL     1      -7.731   0.164 129.225  0.00  0.00    +0.000 C 
ATOM     11  F   UNL     1      -6.485   0.763 129.261  0.00  0.00    +0.000 F 
ATOM     12  C   UNL     1      -7.906   0.957 127.871  0.00  0.00    +0.000 C 
ATOM     13  C   UNL     1      -7.830   2.476 128.132  0.00  0.00    +0.000 C 
ATOM     14  C   UNL     1      -8.671   2.890 129.282  0.00  0.00    +0.000 C 
ATOM     15  F   UNL     1      -8.616   4.244 129.330  0.00  0.00    +0.000 F 
ATOM     16  C   UNL     1      -7.998   2.345 130.496  0.00  0.00    +0.000 C 
ATOM     17  C   UNL     1      -7.768   3.063 131.621  0.00  0.00    +0.000 C 
ATOM     18  C   UNL     1      -9.167   3.256 131.948  0.00  0.00    +0.000 C 
ATOM     19  O   UNL     1      -9.786   4.280 131.755  0.00  0.00    +0.000 OA
ATOM     20  C   UNL     1      -9.629   1.919 132.469  0.00  0.00    +0.000 C 
ATOM     21  C   UNL     1      -9.205   0.761 131.809  0.00  0.00    +0.000 C 
ATOM     22  C   UNL     1      -8.030   0.847 130.712  0.00  0.00    +0.000 C 
ATOM     23  C   UNL     1      -6.567   0.715 131.384  0.00  0.00    +0.000 C 
ENDROOT
BRANCH   5  24
ATOM     24  C   UNL     1      -7.711  -2.698 125.993  0.00  0.00    +0.000 C 
ATOM     25  O   UNL     1      -8.291  -3.606 126.580  0.00  0.00    +0.000 OA
BRANCH  24  26
ATOM     26  S   UNL     1      -7.243  -3.227 124.299  0.00  0.00    +0.000 S 
BRANCH  26  27
ATOM     27  C   UNL     1      -8.976  -3.073 123.352  0.00  0.00    +0.000 C 
ATOM     28  F   UNL     1      -8.907  -2.048 122.435  0.00  0.00    +0.000 F 
ENDBRANCH  26  27
ENDBRANCH  24  26
ENDBRANCH   5  24
BRANCH   9  29
ATOM     29  O   UNL     1      -8.638  -2.268 128.673  0.00  0.00    +0.000 OA
ATOM     30  H   UNL     1      -9.327  -2.172 129.352  0.00  0.00    +0.000 HD
ENDBRANCH   9  29
BRANCH   5  31
ATOM     31  O   UNL     1      -7.946  -0.338 125.239  0.00  0.00    +0.000 OA
BRANCH  31  32
ATOM     32  C   UNL     1      -9.208   0.127 124.934  0.00  0.00    +0.000 C 
ATOM     33  O   UNL     1     -10.214  -0.184 125.560  0.00  0.00    +0.000 OA
BRANCH  32  34
ATOM     34  C   UNL     1      -9.490   1.170 123.883  0.00  0.00    +0.000 C 
ATOM     35  C   UNL     1      -8.974   2.523 124.490  0.00  0.00    +0.000 C 
ENDBRANCH  32  34
ENDBRANCH  31  32
ENDBRANCH   5  31
TORSDOF 7
ENDMDL
MODEL 9
REMARK VINA RESULT:      -8.9      4.814      7.830
REMARK  Name = Fluticasone propionate
REMARK  11 active torsions:
REMARK  status: ('A' for Active; 'I' for Inactive)
REMARK    1  A    between atoms: C_4  and  C_5
REMARK    2  A    between atoms: C_6  and  O_7
REMARK    3  A    between atoms: C_6  and  C_12
REMARK    4  A    between atoms: O_7  and  C_8
REMARK    5  A    between atoms: C_8  and  C_10
REMARK    6  A    between atoms: C_10  and  C_11
REMARK    7  A    between atoms: C_12  and  S_14
REMARK    8  A    between atoms: S_14  and  C_15
REMARK    9  A    between atoms: C_17  and  C_18
REMARK   10  A    between atoms: C_20  and  O_21
REMARK   11  A    between atoms: C_35  and  C_36
REMARK                            x       y       z     vdW  Elec       q    Type
REMARK                         _______ _______ _______ _____ _____    ______ ____
ROOT
ATOM      1  C   UNL     1      -4.909   3.395 130.530  0.00  0.00    +0.000 C 
ATOM      2  C   UNL     1      -4.204   2.226 130.094  0.00  0.00    +0.000 C 
ATOM      3  C   UNL     1      -3.574   3.461 129.493  0.00  0.00    +0.000 C 
ATOM      4  C   UNL     1      -2.644   3.102 127.919  0.00  0.00    +0.000 C 
ATOM      5  C   UNL     1      -4.326   5.206 130.362  0.00  0.00    +0.000 C 
ATOM      6  C   UNL     1      -3.369   4.401 130.823  0.00  0.00    +0.000 C 
ATOM      7  C   UNL     1      -2.780   4.232 132.170  0.00  0.00    +0.000 C 
ATOM      8  C   UNL     1      -2.590   5.250 129.357  0.00  0.00    +0.000 C 
ATOM      9  C   UNL     1      -3.885   5.555 128.061  0.00  0.00    +0.000 C 
ATOM     10  C   UNL     1      -5.256   4.445 127.835  0.00  0.00    +0.000 C 
ATOM     11  F   UNL     1      -4.725   3.170 127.923  0.00  0.00    +0.000 F 
ATOM     12  C   UNL     1      -6.010   4.059 129.167  0.00  0.00    +0.000 C 
ATOM     13  C   UNL     1      -6.946   2.857 128.919  0.00  0.00    +0.000 C 
ATOM     14  C   UNL     1      -7.764   3.027 127.693  0.00  0.00    +0.000 C 
ATOM     15  F   UNL     1      -8.619   1.975 127.655  0.00  0.00    +0.000 F 
ATOM     16  C   UNL     1      -6.814   2.907 126.550  0.00  0.00    +0.000 C 
ATOM     17  C   UNL     1      -7.040   2.143 125.455  0.00  0.00    +0.000 C 
ATOM     18  C   UNL     1      -8.185   2.903 124.993  0.00  0.00    +0.000 C 
ATOM     19  O   UNL     1      -9.340   2.560 125.127  0.00  0.00    +0.000 OA
ATOM     20  C   UNL     1      -7.602   4.171 124.426  0.00  0.00    +0.000 C 
ATOM     21  C   UNL     1      -6.564   4.800 125.121  0.00  0.00    +0.000 C 
ATOM     22  C   UNL     1      -5.826   4.033 126.328  0.00  0.00    +0.000 C 
ATOM     23  C   UNL     1      -4.603   3.118 125.802  0.00  0.00    +0.000 C 
ENDROOT
BRANCH   5  24
ATOM     24  C   UNL     1      -3.569   6.786 131.046  0.00  0.00    +0.000 C 
ATOM     25  O   UNL     1      -3.394   7.823 130.413  0.00  0.00    +0.000 OA
BRANCH  24  26
ATOM     26  S   UNL     1      -2.930   6.965 132.757  0.00  0.00    +0.000 S 
BRANCH  26  27
ATOM     27  C   UNL     1      -1.046   7.474 132.417  0.00  0.00    +0.000 C 
ATOM     28  F   UNL     1      -0.432   6.486 131.679  0.00  0.00    +0.000 F 
ENDBRANCH  26  27
ENDBRANCH  24  26
ENDBRANCH   5  24
BRANCH   9  29
ATOM     29  O   UNL     1      -4.352   6.898 128.289  0.00  0.00    +0.000 OA
ATOM     30  H   UNL     1      -4.068   7.511 127.590  0.00  0.00    +0.000 HD
ENDBRANCH   9  29
BRANCH   5  31
ATOM     31  O   UNL     1      -5.366   5.230 131.780  0.00  0.00    +0.000 OA
BRANCH  31  32
ATOM     32  C   UNL     1      -6.611   5.791 131.979  0.00  0.00    +0.000 C 
ATOM     33  O   UNL     1      -7.347   5.493 132.911  0.00  0.00    +0.000 OA
BRANCH  32  34
ATOM     34  C   UNL     1      -7.162   6.929 131.158  0.00  0.00    +0.000 C 
ATOM     35  C   UNL     1      -8.715   6.699 131.117  0.00  0.00    +0.000 C 
ENDBRANCH  32  34
ENDBRANCH  31  32
ENDBRANCH   5  31
TORSDOF 7
ENDMDL
