MODEL 1
REMARK VINA RESULT:      -7.3      0.000      0.000
REMARK  Name = Flutemetamol (18F)
REMARK  4 active torsions:
REMARK  status: ('A' for Active; 'I' for Inactive)
REMARK    1  A    between atoms: C_1  and  N_2
REMARK    2  A    between atoms: N_2  and  C_3
REMARK    3  A    between atoms: C_7  and  C_10
REMARK    4  A    between atoms: C_15  and  O_16
REMARK                            x       y       z     vdW  Elec       q    Type
REMARK                         _______ _______ _______ _____ _____    ______ ____
ROOT
ATOM      1  C   UNL     1     -10.378   4.936 130.250  0.00  0.00    +0.000 A 
ATOM      2  N   UNL     1     -11.050   3.798 130.274  0.00  0.00    +0.000 NA
ATOM      3  C   UNL     1     -10.156   2.836 130.652  0.00  0.00    +0.000 A 
ATOM      4  C   UNL     1     -10.121   2.112 131.855  0.00  0.00    +0.000 A 
ATOM      5  C   UNL     1      -8.984   1.351 132.166  0.00  0.00    +0.000 A 
ATOM      6  C   UNL     1      -8.054   1.074 131.174  0.00  0.00    +0.000 A 
ATOM      7  C   UNL     1      -8.095   1.749 129.953  0.00  0.00    +0.000 A 
ATOM      8  C   UNL     1      -8.980   2.854 129.901  0.00  0.00    +0.000 A 
ATOM      9  S   UNL     1      -8.643   4.672 130.263  0.00  0.00    +0.000 S 
ENDROOT
BRANCH   1  14
ATOM     10  C   UNL     1     -12.301   8.767 129.377  0.00  0.00    +0.000 A 
ATOM     11  C   UNL     1     -11.217   8.238 128.685  0.00  0.00    +0.000 A 
ATOM     12  F   UNL     1     -10.702   8.908 127.631  0.00  0.00    +0.000 F 
ATOM     13  C   UNL     1     -10.587   7.051 129.047  0.00  0.00    +0.000 A 
ATOM     14  C   UNL     1     -11.056   6.252 130.105  0.00  0.00    +0.000 A 
ATOM     15  C   UNL     1     -12.165   6.746 130.809  0.00  0.00    +0.000 A 
ATOM     16  C   UNL     1     -12.754   8.008 130.478  0.00  0.00    +0.000 A 
BRANCH  10  18
ATOM     17  C   UNL     1     -13.456  10.855 129.987  0.00  0.00    +0.000 C 
ATOM     18  N   UNL     1     -12.953   9.934 128.973  0.00  0.00    +0.000 N 
ATOM     19  H   UNL     1     -12.749  10.326 128.065  0.00  0.00    +0.000 HD
ENDBRANCH  10  18
ENDBRANCH   1  14
BRANCH   6  20
ATOM     20  O   UNL     1      -7.106   0.105 131.346  0.00  0.00    +0.000 OA
ATOM     21  H   UNL     1      -6.229   0.523 131.400  0.00  0.00    +0.000 HD
ENDBRANCH   6  20
TORSDOF 3
ENDMDL
MODEL 2
REMARK VINA RESULT:      -6.9      3.929      7.545
REMARK  Name = Flutemetamol (18F)
REMARK  4 active torsions:
REMARK  status: ('A' for Active; 'I' for Inactive)
REMARK    1  A    between atoms: C_1  and  N_2
REMARK    2  A    between atoms: N_2  and  C_3
REMARK    3  A    between atoms: C_7  and  C_10
REMARK    4  A    between atoms: C_15  and  O_16
REMARK                            x       y       z     vdW  Elec       q    Type
REMARK                         _______ _______ _______ _____ _____    ______ ____
ROOT
ATOM      1  C   UNL     1     -10.584   5.475 129.947  0.00  0.00    +0.000 A 
ATOM      2  N   UNL     1     -11.886   5.300 129.795  0.00  0.00    +0.000 NA
ATOM      3  C   UNL     1     -12.384   6.496 129.361  0.00  0.00    +0.000 A 
ATOM      4  C   UNL     1     -12.915   6.805 128.098  0.00  0.00    +0.000 A 
ATOM      5  C   UNL     1     -13.141   8.147 127.757  0.00  0.00    +0.000 A 
ATOM      6  C   UNL     1     -13.130   9.117 128.751  0.00  0.00    +0.000 A 
ATOM      7  C   UNL     1     -12.647   8.821 130.027  0.00  0.00    +0.000 A 
ATOM      8  C   UNL     1     -11.983   7.576 130.150  0.00  0.00    +0.000 A 
ATOM      9  S   UNL     1     -10.151   7.175 129.968  0.00  0.00    +0.000 S 
ENDROOT
BRANCH   1  14
ATOM     10  C   UNL     1      -8.225   1.865 130.678  0.00  0.00    +0.000 A 
ATOM     11  C   UNL     1      -9.483   2.122 131.210  0.00  0.00    +0.000 A 
ATOM     12  F   UNL     1     -10.081   1.199 131.996  0.00  0.00    +0.000 F 
ATOM     13  C   UNL     1     -10.165   3.319 131.013  0.00  0.00    +0.000 A 
ATOM     14  C   UNL     1      -9.656   4.338 130.188  0.00  0.00    +0.000 A 
ATOM     15  C   UNL     1      -8.398   4.099 129.614  0.00  0.00    +0.000 A 
ATOM     16  C   UNL     1      -7.671   2.898 129.891  0.00  0.00    +0.000 A 
BRANCH  10  18
ATOM     17  C   UNL     1      -7.806  -0.425 129.874  0.00  0.00    +0.000 C 
ATOM     18  N   UNL     1      -7.575   0.640 130.845  0.00  0.00    +0.000 N 
ATOM     19  H   UNL     1      -6.705   0.607 131.356  0.00  0.00    +0.000 HD
ENDBRANCH  10  18
ENDBRANCH   1  14
BRANCH   6  20
ATOM     20  O   UNL     1     -13.633  10.366 128.523  0.00  0.00    +0.000 OA
ATOM     21  H   UNL     1     -12.973  10.892 128.037  0.00  0.00    +0.000 HD
ENDBRANCH   6  20
TORSDOF 3
ENDMDL
MODEL 3
REMARK VINA RESULT:      -6.7      3.848      7.482
REMARK  Name = Flutemetamol (18F)
REMARK  4 active torsions:
REMARK  status: ('A' for Active; 'I' for Inactive)
REMARK    1  A    between atoms: C_1  and  N_2
REMARK    2  A    between atoms: N_2  and  C_3
REMARK    3  A    between atoms: C_7  and  C_10
REMARK    4  A    between atoms: C_15  and  O_16
REMARK                            x       y       z     vdW  Elec       q    Type
REMARK                         _______ _______ _______ _____ _____    ______ ____
ROOT
ATOM      1  C   UNL     1     -10.495   5.013 130.872  0.00  0.00    +0.000 A 
ATOM      2  N   UNL     1     -10.818   4.999 129.590  0.00  0.00    +0.000 NA
ATOM      3  C   UNL     1     -11.241   6.264 129.290  0.00  0.00    +0.000 A 
ATOM      4  C   UNL     1     -10.609   7.216 128.473  0.00  0.00    +0.000 A 
ATOM      5  C   UNL     1     -11.064   8.543 128.487  0.00  0.00    +0.000 A 
ATOM      6  C   UNL     1     -12.296   8.838 129.056  0.00  0.00    +0.000 A 
ATOM      7  C   UNL     1     -12.964   7.893 129.835  0.00  0.00    +0.000 A 
ATOM      8  C   UNL     1     -12.207   6.744 130.175  0.00  0.00    +0.000 A 
ATOM      9  S   UNL     1     -11.137   6.426 131.693  0.00  0.00    +0.000 S 
ENDROOT
BRANCH   1  14
ATOM     10  C   UNL     1      -8.208   1.595 132.362  0.00  0.00    +0.000 A 
ATOM     11  C   UNL     1      -8.797   1.680 131.105  0.00  0.00    +0.000 A 
ATOM     12  F   UNL     1      -8.653   0.663 130.226  0.00  0.00    +0.000 F 
ATOM     13  C   UNL     1      -9.582   2.755 130.702  0.00  0.00    +0.000 A 
ATOM     14  C   UNL     1      -9.775   3.884 131.518  0.00  0.00    +0.000 A 
ATOM     15  C   UNL     1      -9.172   3.841 132.785  0.00  0.00    +0.000 A 
ATOM     16  C   UNL     1      -8.434   2.694 133.219  0.00  0.00    +0.000 A 
BRANCH  10  18
ATOM     17  C   UNL     1      -5.988   0.530 132.305  0.00  0.00    +0.000 C 
ATOM     18  N   UNL     1      -7.383   0.532 132.734  0.00  0.00    +0.000 N 
ATOM     19  H   UNL     1      -7.602   0.003 133.566  0.00  0.00    +0.000 HD
ENDBRANCH  10  18
ENDBRANCH   1  14
BRANCH   6  20
ATOM     20  O   UNL     1     -12.908  10.038 128.830  0.00  0.00    +0.000 OA
ATOM     21  H   UNL     1     -13.758  10.057 129.303  0.00  0.00    +0.000 HD
ENDBRANCH   6  20
TORSDOF 3
ENDMDL
MODEL 4
REMARK VINA RESULT:      -6.6      2.625      2.672
REMARK  Name = Flutemetamol (18F)
REMARK  4 active torsions:
REMARK  status: ('A' for Active; 'I' for Inactive)
REMARK    1  A    between atoms: C_1  and  N_2
REMARK    2  A    between atoms: N_2  and  C_3
REMARK    3  A    between atoms: C_7  and  C_10
REMARK    4  A    between atoms: C_15  and  O_16
REMARK                            x       y       z     vdW  Elec       q    Type
REMARK                         _______ _______ _______ _____ _____    ______ ____
ROOT
ATOM      1  C   UNL     1      -9.381   5.877 131.654  0.00  0.00    +0.000 A 
ATOM      2  N   UNL     1      -9.624   4.685 132.171  0.00  0.00    +0.000 NA
ATOM      3  C   UNL     1      -8.503   4.338 132.872  0.00  0.00    +0.000 A 
ATOM      4  C   UNL     1      -8.357   4.217 134.264  0.00  0.00    +0.000 A 
ATOM      5  C   UNL     1      -7.070   4.100 134.811  0.00  0.00    +0.000 A 
ATOM      6  C   UNL     1      -5.998   3.802 133.981  0.00  0.00    +0.000 A 
ATOM      7  C   UNL     1      -6.132   3.873 132.594  0.00  0.00    +0.000 A 
ATOM      8  C   UNL     1      -7.329   4.473 132.130  0.00  0.00    +0.000 A 
ATOM      9  S   UNL     1      -7.672   6.275 131.701  0.00  0.00    +0.000 S 
ENDROOT
BRANCH   1  14
ATOM     10  C   UNL     1     -12.305   8.192 129.369  0.00  0.00    +0.000 A 
ATOM     11  C   UNL     1     -10.950   8.097 129.073  0.00  0.00    +0.000 A 
ATOM     12  F   UNL     1     -10.455   8.727 127.984  0.00  0.00    +0.000 F 
ATOM     13  C   UNL     1     -10.041   7.412 129.873  0.00  0.00    +0.000 A 
ATOM     14  C   UNL     1     -10.446   6.692 131.011  0.00  0.00    +0.000 A 
ATOM     15  C   UNL     1     -11.814   6.747 131.323  0.00  0.00    +0.000 A 
ATOM     16  C   UNL     1     -12.725   7.523 130.538  0.00  0.00    +0.000 A 
BRANCH  10  18
ATOM     17  C   UNL     1     -13.605  10.216 128.835  0.00  0.00    +0.000 C 
ATOM     18  N   UNL     1     -13.213   8.843 128.530  0.00  0.00    +0.000 N 
ATOM     19  H   UNL     1     -13.294   8.552 127.567  0.00  0.00    +0.000 HD
ENDBRANCH  10  18
ENDBRANCH   1  14
BRANCH   6  20
ATOM     20  O   UNL     1      -4.802   3.387 134.495  0.00  0.00    +0.000 OA
ATOM     21  H   UNL     1      -4.319   2.885 133.815  0.00  0.00    +0.000 HD
ENDBRANCH   6  20
TORSDOF 3
ENDMDL
MODEL 5
REMARK VINA RESULT:      -6.3      9.161     11.282
REMARK  Name = Flutemetamol (18F)
REMARK  4 active torsions:
REMARK  status: ('A' for Active; 'I' for Inactive)
REMARK    1  A    between atoms: C_1  and  N_2
REMARK    2  A    between atoms: N_2  and  C_3
REMARK    3  A    between atoms: C_7  and  C_10
REMARK    4  A    between atoms: C_15  and  O_16
REMARK                            x       y       z     vdW  Elec       q    Type
REMARK                         _______ _______ _______ _____ _____    ______ ____
ROOT
ATOM      1  C   UNL     1      -6.930  -2.593 127.822  0.00  0.00    +0.000 A 
ATOM      2  N   UNL     1      -8.164  -3.043 127.666  0.00  0.00    +0.000 NA
ATOM      3  C   UNL     1      -8.575  -2.609 126.437  0.00  0.00    +0.000 A 
ATOM      4  C   UNL     1      -8.823  -3.376 125.287  0.00  0.00    +0.000 A 
ATOM      5  C   UNL     1      -8.992  -2.729 124.053  0.00  0.00    +0.000 A 
ATOM      6  C   UNL     1      -9.216  -1.360 124.024  0.00  0.00    +0.000 A 
ATOM      7  C   UNL     1      -9.019  -0.583 125.166  0.00  0.00    +0.000 A 
ATOM      8  C   UNL     1      -8.377  -1.241 126.244  0.00  0.00    +0.000 A 
ATOM      9  S   UNL     1      -6.543  -1.332 126.664  0.00  0.00    +0.000 S 
ENDROOT
BRANCH   1  14
ATOM     10  C   UNL     1      -4.112  -3.561 131.024  0.00  0.00    +0.000 A 
ATOM     11  C   UNL     1      -3.782  -2.934 129.828  0.00  0.00    +0.000 A 
ATOM     12  F   UNL     1      -2.508  -2.544 129.603  0.00  0.00    +0.000 F 
ATOM     13  C   UNL     1      -4.698  -2.716 128.803  0.00  0.00    +0.000 A 
ATOM     14  C   UNL     1      -6.058  -3.049 128.937  0.00  0.00    +0.000 A 
ATOM     15  C   UNL     1      -6.429  -3.661 130.144  0.00  0.00    +0.000 A 
ATOM     16  C   UNL     1      -5.462  -3.954 131.157  0.00  0.00    +0.000 A 
BRANCH  10  18
ATOM     17  C   UNL     1      -3.553  -4.569 133.201  0.00  0.00    +0.000 C 
ATOM     18  N   UNL     1      -3.193  -3.729 132.062  0.00  0.00    +0.000 N 
ATOM     19  H   UNL     1      -2.208  -3.619 131.874  0.00  0.00    +0.000 HD
ENDBRANCH  10  18
ENDBRANCH   1  14
BRANCH   6  20
ATOM     20  O   UNL     1      -9.679  -0.745 122.895  0.00  0.00    +0.000 OA
ATOM     21  H   UNL     1     -10.280  -1.349 122.425  0.00  0.00    +0.000 HD
ENDBRANCH   6  20
TORSDOF 3
ENDMDL
MODEL 6
REMARK VINA RESULT:      -6.2      8.460      9.497
REMARK  Name = Flutemetamol (18F)
REMARK  4 active torsions:
REMARK  status: ('A' for Active; 'I' for Inactive)
REMARK    1  A    between atoms: C_1  and  N_2
REMARK    2  A    between atoms: N_2  and  C_3
REMARK    3  A    between atoms: C_7  and  C_10
REMARK    4  A    between atoms: C_15  and  O_16
REMARK                            x       y       z     vdW  Elec       q    Type
REMARK                         _______ _______ _______ _____ _____    ______ ____
ROOT
ATOM      1  C   UNL     1      -6.464   3.041 122.879  0.00  0.00    +0.000 A 
ATOM      2  N   UNL     1      -6.950   1.812 122.856  0.00  0.00    +0.000 NA
ATOM      3  C   UNL     1      -7.387   1.551 124.125  0.00  0.00    +0.000 A 
ATOM      4  C   UNL     1      -8.710   1.392 124.568  0.00  0.00    +0.000 A 
ATOM      5  C   UNL     1      -8.977   1.382 125.946  0.00  0.00    +0.000 A 
ATOM      6  C   UNL     1      -7.930   1.224 126.844  0.00  0.00    +0.000 A 
ATOM      7  C   UNL     1      -6.605   1.334 126.418  0.00  0.00    +0.000 A 
ATOM      8  C   UNL     1      -6.431   1.830 125.103  0.00  0.00    +0.000 A 
ATOM      9  S   UNL     1      -6.185   3.604 124.518  0.00  0.00    +0.000 S 
ENDROOT
BRANCH   1  14
ATOM     10  C   UNL     1      -5.840   5.257 119.160  0.00  0.00    +0.000 A 
ATOM     11  C   UNL     1      -6.923   4.427 119.427  0.00  0.00    +0.000 A 
ATOM     12  F   UNL     1      -7.904   4.287 118.508  0.00  0.00    +0.000 F 
ATOM     13  C   UNL     1      -7.042   3.680 120.594  0.00  0.00    +0.000 A 
ATOM     14  C   UNL     1      -6.100   3.771 121.635  0.00  0.00    +0.000 A 
ATOM     15  C   UNL     1      -5.006   4.620 121.407  0.00  0.00    +0.000 A 
ATOM     16  C   UNL     1      -4.854   5.321 120.168  0.00  0.00    +0.000 A 
BRANCH  10  18
ATOM     17  C   UNL     1      -6.098   7.456 118.079  0.00  0.00    +0.000 C 
ATOM     18  N   UNL     1      -5.759   6.038 118.005  0.00  0.00    +0.000 N 
ATOM     19  H   UNL     1      -5.136   5.759 117.261  0.00  0.00    +0.000 HD
ENDBRANCH  10  18
ENDBRANCH   1  14
BRANCH   6  20
ATOM     20  O   UNL     1      -8.164   0.910 128.152  0.00  0.00    +0.000 OA
ATOM     21  H   UNL     1      -9.118   0.764 128.280  0.00  0.00    +0.000 HD
ENDBRANCH   6  20
TORSDOF 3
ENDMDL
MODEL 7
REMARK VINA RESULT:      -6.2      7.494      8.773
REMARK  Name = Flutemetamol (18F)
REMARK  4 active torsions:
REMARK  status: ('A' for Active; 'I' for Inactive)
REMARK    1  A    between atoms: C_1  and  N_2
REMARK    2  A    between atoms: N_2  and  C_3
REMARK    3  A    between atoms: C_7  and  C_10
REMARK    4  A    between atoms: C_15  and  O_16
REMARK                            x       y       z     vdW  Elec       q    Type
REMARK                         _______ _______ _______ _____ _____    ______ ____
ROOT
ATOM      1  C   UNL     1      -7.027   2.326 123.954  0.00  0.00    +0.000 A 
ATOM      2  N   UNL     1      -6.183   2.670 124.911  0.00  0.00    +0.000 NA
ATOM      3  C   UNL     1      -6.433   1.830 125.960  0.00  0.00    +0.000 A 
ATOM      4  C   UNL     1      -5.609   0.811 126.467  0.00  0.00    +0.000 A 
ATOM      5  C   UNL     1      -6.141  -0.111 127.382  0.00  0.00    +0.000 A 
ATOM      6  C   UNL     1      -7.353   0.163 128.002  0.00  0.00    +0.000 A 
ATOM      7  C   UNL     1      -8.169   1.199 127.543  0.00  0.00    +0.000 A 
ATOM      8  C   UNL     1      -7.784   1.770 126.305  0.00  0.00    +0.000 A 
ATOM      9  S   UNL     1      -8.327   1.314 124.560  0.00  0.00    +0.000 S 
ENDROOT
BRANCH   1  14
ATOM     10  C   UNL     1      -7.070   4.126 119.967  0.00  0.00    +0.000 A 
ATOM     11  C   UNL     1      -8.197   3.773 120.700  0.00  0.00    +0.000 A 
ATOM     12  F   UNL     1      -9.428   4.015 120.196  0.00  0.00    +0.000 F 
ATOM     13  C   UNL     1      -8.136   3.130 121.932  0.00  0.00    +0.000 A 
ATOM     14  C   UNL     1      -6.912   2.858 122.570  0.00  0.00    +0.000 A 
ATOM     15  C   UNL     1      -5.754   3.225 121.867  0.00  0.00    +0.000 A 
ATOM     16  C   UNL     1      -5.829   3.811 120.564  0.00  0.00    +0.000 A 
BRANCH  10  18
ATOM     17  C   UNL     1      -6.045   5.687 118.360  0.00  0.00    +0.000 C 
ATOM     18  N   UNL     1      -7.147   4.813 118.754  0.00  0.00    +0.000 N 
ATOM     19  H   UNL     1      -7.719   4.443 118.010  0.00  0.00    +0.000 HD
ENDBRANCH  10  18
ENDBRANCH   1  14
BRANCH   6  20
ATOM     20  O   UNL     1      -7.757  -0.540 129.101  0.00  0.00    +0.000 OA
ATOM     21  H   UNL     1      -7.344  -0.157 129.895  0.00  0.00    +0.000 HD
ENDBRANCH   6  20
TORSDOF 3
ENDMDL
MODEL 8
REMARK VINA RESULT:      -6.2      9.320     10.940
REMARK  Name = Flutemetamol (18F)
REMARK  4 active torsions:
REMARK  status: ('A' for Active; 'I' for Inactive)
REMARK    1  A    between atoms: C_1  and  N_2
REMARK    2  A    between atoms: N_2  and  C_3
REMARK    3  A    between atoms: C_7  and  C_10
REMARK    4  A    between atoms: C_15  and  O_16
REMARK                            x       y       z     vdW  Elec       q    Type
REMARK                         _______ _______ _______ _____ _____    ______ ____
ROOT
ATOM      1  C   UNL     1      -7.834  -2.676 128.270  0.00  0.00    +0.000 A 
ATOM      2  N   UNL     1      -8.768  -3.403 127.682  0.00  0.00    +0.000 NA
ATOM      3  C   UNL     1      -8.718  -3.087 126.354  0.00  0.00    +0.000 A 
ATOM      4  C   UNL     1      -8.301  -3.900 125.286  0.00  0.00    +0.000 A 
ATOM      5  C   UNL     1      -8.078  -3.320 124.028  0.00  0.00    +0.000 A 
ATOM      6  C   UNL     1      -8.553  -2.041 123.770  0.00  0.00    +0.000 A 
ATOM      7  C   UNL     1      -9.013  -1.230 124.809  0.00  0.00    +0.000 A 
ATOM      8  C   UNL     1      -8.749  -1.712 126.115  0.00  0.00    +0.000 A 
ATOM      9  S   UNL     1      -7.278  -1.368 127.240  0.00  0.00    +0.000 S 
ENDROOT
BRANCH   1  14
ATOM     10  C   UNL     1      -6.237  -3.513 132.255  0.00  0.00    +0.000 A 
ATOM     11  C   UNL     1      -5.986  -4.269 131.116  0.00  0.00    +0.000 A 
ATOM     12  F   UNL     1      -5.163  -5.338 131.188  0.00  0.00    +0.000 F 
ATOM     13  C   UNL     1      -6.578  -4.011 129.884  0.00  0.00    +0.000 A 
ATOM     14  C   UNL     1      -7.425  -2.906 129.681  0.00  0.00    +0.000 A 
ATOM     15  C   UNL     1      -7.679  -2.107 130.807  0.00  0.00    +0.000 A 
ATOM     16  C   UNL     1      -7.128  -2.430 132.088  0.00  0.00    +0.000 A 
BRANCH  10  18
ATOM     17  C   UNL     1      -4.771  -2.706 134.063  0.00  0.00    +0.000 C 
ATOM     18  N   UNL     1      -5.598  -3.755 133.473  0.00  0.00    +0.000 N 
ATOM     19  H   UNL     1      -5.984  -4.438 134.108  0.00  0.00    +0.000 HD
ENDBRANCH  10  18
ENDBRANCH   1  14
BRANCH   6  20
ATOM     20  O   UNL     1      -8.627  -1.560 122.494  0.00  0.00    +0.000 OA
ATOM     21  H   UNL     1      -9.016  -2.241 121.918  0.00  0.00    +0.000 HD
ENDBRANCH   6  20
TORSDOF 3
ENDMDL
MODEL 9
REMARK VINA RESULT:      -6.1      7.319      8.428
REMARK  Name = Flutemetamol (18F)
REMARK  4 active torsions:
REMARK  status: ('A' for Active; 'I' for Inactive)
REMARK    1  A    between atoms: C_1  and  N_2
REMARK    2  A    between atoms: N_2  and  C_3
REMARK    3  A    between atoms: C_7  and  C_10
REMARK    4  A    between atoms: C_15  and  O_16
REMARK                            x       y       z     vdW  Elec       q    Type
REMARK                         _______ _______ _______ _____ _____    ______ ____
ROOT
ATOM      1  C   UNL     1      -6.704   2.655 125.882  0.00  0.00    +0.000 A 
ATOM      2  N   UNL     1      -7.153   1.477 126.281  0.00  0.00    +0.000 NA
ATOM      3  C   UNL     1      -7.974   1.025 125.286  0.00  0.00    +0.000 A 
ATOM      4  C   UNL     1      -7.762  -0.055 124.414  0.00  0.00    +0.000 A 
ATOM      5  C   UNL     1      -8.596  -0.209 123.296  0.00  0.00    +0.000 A 
ATOM      6  C   UNL     1      -9.785   0.504 123.227  0.00  0.00    +0.000 A 
ATOM      7  C   UNL     1     -10.038   1.554 124.112  0.00  0.00    +0.000 A 
ATOM      8  C   UNL     1      -8.932   1.962 124.897  0.00  0.00    +0.000 A 
ATOM      9  S   UNL     1      -7.649   3.298 124.550  0.00  0.00    +0.000 S 
ENDROOT
BRANCH   1  14
ATOM     10  C   UNL     1      -3.256   4.758 127.561  0.00  0.00    +0.000 A 
ATOM     11  C   UNL     1      -3.204   3.833 126.524  0.00  0.00    +0.000 A 
ATOM     12  F   UNL     1      -2.021   3.552 125.934  0.00  0.00    +0.000 F 
ATOM     13  C   UNL     1      -4.316   3.129 126.074  0.00  0.00    +0.000 A 
ATOM     14  C   UNL     1      -5.604   3.363 126.590  0.00  0.00    +0.000 A 
ATOM     15  C   UNL     1      -5.695   4.311 127.621  0.00  0.00    +0.000 A 
ATOM     16  C   UNL     1      -4.530   4.968 128.131  0.00  0.00    +0.000 A 
BRANCH  10  18
ATOM     17  C   UNL     1      -2.305   6.896 128.331  0.00  0.00    +0.000 C 
ATOM     18  N   UNL     1      -2.140   5.492 127.969  0.00  0.00    +0.000 N 
ATOM     19  H   UNL     1      -1.351   5.009 128.374  0.00  0.00    +0.000 HD
ENDBRANCH  10  18
ENDBRANCH   1  14
BRANCH   6  20
ATOM     20  O   UNL     1     -10.757   0.170 122.326  0.00  0.00    +0.000 OA
ATOM     21  H   UNL     1     -11.630   0.306 122.734  0.00  0.00    +0.000 HD
ENDBRANCH   6  20
TORSDOF 3
ENDMDL
