MODEL 1
REMARK VINA RESULT:      -6.4      0.000      0.000
REMARK  Name = Fluvoxamine
REMARK  12 active torsions:
REMARK  status: ('A' for Active; 'I' for Inactive)
REMARK    1  A    between atoms: C_1  and  O_2
REMARK    2  A    between atoms: O_2  and  C_3
REMARK    3  A    between atoms: C_3  and  C_4
REMARK    4  A    between atoms: C_4  and  C_5
REMARK    5  A    between atoms: C_5  and  C_6
REMARK    6  A    between atoms: C_6  and  C_7
REMARK    7  A    between atoms: C_7  and  C_13
REMARK    8  A    between atoms: N_8  and  O_9
REMARK    9  A    between atoms: O_9  and  C_10
REMARK   10  A    between atoms: C_10  and  C_11
REMARK   11  A    between atoms: C_11  and  N_12
REMARK   12  A    between atoms: C_16  and  C_19
REMARK                            x       y       z     vdW  Elec       q    Type
REMARK                         _______ _______ _______ _____ _____    ______ ____
ROOT
ATOM      1  C   UNL     1      -9.011  -1.583 124.684  0.00  0.00    +0.000 C 
ATOM      2  N   UNL     1      -9.683  -0.463 124.597  0.00  0.00    +0.000 NA
ENDROOT
BRANCH   1   3
ATOM      3  C   UNL     1      -8.585  -2.022 126.052  0.00  0.00    +0.000 A 
ATOM      4  C   UNL     1      -7.638  -1.258 126.740  0.00  0.00    +0.000 A 
ATOM      5  C   UNL     1      -7.113  -1.719 127.951  0.00  0.00    +0.000 A 
ATOM      6  C   UNL     1      -7.576  -2.916 128.521  0.00  0.00    +0.000 A 
ATOM      7  C   UNL     1      -8.540  -3.666 127.833  0.00  0.00    +0.000 A 
ATOM      8  C   UNL     1      -9.044  -3.221 126.606  0.00  0.00    +0.000 A 
BRANCH   6   9
ATOM      9  C   UNL     1      -7.066  -3.347 129.874  0.00  0.00    +0.000 C 
ATOM     10  F   UNL     1      -6.048  -2.569 130.333  0.00  0.00    +0.000 F 
ATOM     11  F   UNL     1      -8.040  -3.289 130.825  0.00  0.00    +0.000 F 
ATOM     12  F   UNL     1      -6.601  -4.627 129.900  0.00  0.00    +0.000 F 
ENDBRANCH   6   9
ENDBRANCH   1   3
BRANCH   1  13
ATOM     13  C   UNL     1      -8.596  -2.529 123.528  0.00  0.00    +0.000 C 
BRANCH  13  14
ATOM     14  C   UNL     1      -7.386  -2.082 122.734  0.00  0.00    +0.000 C 
BRANCH  14  15
ATOM     15  C   UNL     1      -6.045  -2.160 123.415  0.00  0.00    +0.000 C 
BRANCH  15  16
ATOM     16  C   UNL     1      -5.970  -3.528 124.086  0.00  0.00    +0.000 C 
BRANCH  16  18
ATOM     17  C   UNL     1      -4.230  -4.924 123.409  0.00  0.00    +0.000 C 
ATOM     18  O   UNL     1      -4.606  -3.866 124.276  0.00  0.00    +0.000 OA
ENDBRANCH  16  18
ENDBRANCH  15  16
ENDBRANCH  14  15
ENDBRANCH  13  14
ENDBRANCH   1  13
BRANCH   2  19
ATOM     19  O   UNL     1      -9.978  -0.140 123.277  0.00  0.00    +0.000 OA
BRANCH  19  20
ATOM     20  C   UNL     1     -10.293   1.219 123.046  0.00  0.00    +0.000 C 
BRANCH  20  21
ATOM     21  C   UNL     1      -9.095   2.042 123.565  0.00  0.00    +0.000 C 
BRANCH  21  22
ATOM     22  N   UNL     1      -9.364   2.676 124.854  0.00  0.00    +0.000 NA
ATOM     23  H   UNL     1     -10.276   3.128 124.822  0.00  0.00    +0.000 HD
ATOM     24  H   UNL     1      -8.683   3.416 125.023  0.00  0.00    +0.000 HD
ENDBRANCH  21  22
ENDBRANCH  20  21
ENDBRANCH  19  20
ENDBRANCH   2  19
TORSDOF 11
ENDMDL
MODEL 2
REMARK VINA RESULT:      -6.3      1.320      1.944
REMARK  Name = Fluvoxamine
REMARK  12 active torsions:
REMARK  status: ('A' for Active; 'I' for Inactive)
REMARK    1  A    between atoms: C_1  and  O_2
REMARK    2  A    between atoms: O_2  and  C_3
REMARK    3  A    between atoms: C_3  and  C_4
REMARK    4  A    between atoms: C_4  and  C_5
REMARK    5  A    between atoms: C_5  and  C_6
REMARK    6  A    between atoms: C_6  and  C_7
REMARK    7  A    between atoms: C_7  and  C_13
REMARK    8  A    between atoms: N_8  and  O_9
REMARK    9  A    between atoms: O_9  and  C_10
REMARK   10  A    between atoms: C_10  and  C_11
REMARK   11  A    between atoms: C_11  and  N_12
REMARK   12  A    between atoms: C_16  and  C_19
REMARK                            x       y       z     vdW  Elec       q    Type
REMARK                         _______ _______ _______ _____ _____    ______ ____
ROOT
ATOM      1  C   UNL     1      -8.800  -1.845 125.907  0.00  0.00    +0.000 C 
ATOM      2  N   UNL     1      -9.114  -0.577 125.992  0.00  0.00    +0.000 NA
ENDROOT
BRANCH   1   3
ATOM      3  C   UNL     1      -7.992  -2.425 127.027  0.00  0.00    +0.000 A 
ATOM      4  C   UNL     1      -8.603  -3.329 127.902  0.00  0.00    +0.000 A 
ATOM      5  C   UNL     1      -7.922  -3.772 129.039  0.00  0.00    +0.000 A 
ATOM      6  C   UNL     1      -6.599  -3.370 129.281  0.00  0.00    +0.000 A 
ATOM      7  C   UNL     1      -5.986  -2.479 128.389  0.00  0.00    +0.000 A 
ATOM      8  C   UNL     1      -6.678  -2.010 127.267  0.00  0.00    +0.000 A 
BRANCH   6   9
ATOM      9  C   UNL     1      -5.848  -3.936 130.463  0.00  0.00    +0.000 C 
ATOM     10  F   UNL     1      -6.321  -3.490 131.658  0.00  0.00    +0.000 F 
ATOM     11  F   UNL     1      -5.929  -5.295 130.511  0.00  0.00    +0.000 F 
ATOM     12  F   UNL     1      -4.517  -3.645 130.454  0.00  0.00    +0.000 F 
ENDBRANCH   6   9
ENDBRANCH   1   3
BRANCH   1  13
ATOM     13  C   UNL     1      -9.168  -2.837 124.775  0.00  0.00    +0.000 C 
BRANCH  13  14
ATOM     14  C   UNL     1      -8.034  -3.192 123.836  0.00  0.00    +0.000 C 
BRANCH  14  15
ATOM     15  C   UNL     1      -7.194  -2.059 123.308  0.00  0.00    +0.000 C 
BRANCH  15  16
ATOM     16  C   UNL     1      -5.755  -2.564 123.256  0.00  0.00    +0.000 C 
BRANCH  16  18
ATOM     17  C   UNL     1      -4.508  -4.468 123.764  0.00  0.00    +0.000 C 
ATOM     18  O   UNL     1      -5.635  -3.683 124.120  0.00  0.00    +0.000 OA
ENDBRANCH  16  18
ENDBRANCH  15  16
ENDBRANCH  14  15
ENDBRANCH  13  14
ENDBRANCH   1  13
BRANCH   2  19
ATOM     19  O   UNL     1      -9.820  -0.146 124.873  0.00  0.00    +0.000 OA
BRANCH  19  20
ATOM     20  C   UNL     1      -9.688   1.230 124.571  0.00  0.00    +0.000 C 
BRANCH  20  21
ATOM     21  C   UNL     1      -9.704   1.345 123.032  0.00  0.00    +0.000 C 
BRANCH  21  22
ATOM     22  N   UNL     1     -10.605   0.381 122.405  0.00  0.00    +0.000 NA
ATOM     23  H   UNL     1     -11.527   0.801 122.303  0.00  0.00    +0.000 HD
ATOM     24  H   UNL     1     -10.724  -0.427 123.016  0.00  0.00    +0.000 HD
ENDBRANCH  21  22
ENDBRANCH  20  21
ENDBRANCH  19  20
ENDBRANCH   2  19
TORSDOF 11
ENDMDL
MODEL 3
REMARK VINA RESULT:      -6.2      1.914      2.445
REMARK  Name = Fluvoxamine
REMARK  12 active torsions:
REMARK  status: ('A' for Active; 'I' for Inactive)
REMARK    1  A    between atoms: C_1  and  O_2
REMARK    2  A    between atoms: O_2  and  C_3
REMARK    3  A    between atoms: C_3  and  C_4
REMARK    4  A    between atoms: C_4  and  C_5
REMARK    5  A    between atoms: C_5  and  C_6
REMARK    6  A    between atoms: C_6  and  C_7
REMARK    7  A    between atoms: C_7  and  C_13
REMARK    8  A    between atoms: N_8  and  O_9
REMARK    9  A    between atoms: O_9  and  C_10
REMARK   10  A    between atoms: C_10  and  C_11
REMARK   11  A    between atoms: C_11  and  N_12
REMARK   12  A    between atoms: C_16  and  C_19
REMARK                            x       y       z     vdW  Elec       q    Type
REMARK                         _______ _______ _______ _____ _____    ______ ____
ROOT
ATOM      1  C   UNL     1      -8.760  -1.762 126.335  0.00  0.00    +0.000 C 
ATOM      2  N   UNL     1      -8.859  -0.470 126.154  0.00  0.00    +0.000 NA
ENDROOT
BRANCH   1   3
ATOM      3  C   UNL     1      -7.859  -2.231 127.437  0.00  0.00    +0.000 A 
ATOM      4  C   UNL     1      -6.503  -1.893 127.388  0.00  0.00    +0.000 A 
ATOM      5  C   UNL     1      -5.613  -2.437 128.319  0.00  0.00    +0.000 A 
ATOM      6  C   UNL     1      -6.076  -3.272 129.348  0.00  0.00    +0.000 A 
ATOM      7  C   UNL     1      -7.441  -3.590 129.401  0.00  0.00    +0.000 A 
ATOM      8  C   UNL     1      -8.328  -3.071 128.452  0.00  0.00    +0.000 A 
BRANCH   6   9
ATOM      9  C   UNL     1      -5.114  -3.771 130.398  0.00  0.00    +0.000 C 
ATOM     10  F   UNL     1      -3.834  -3.862 129.947  0.00  0.00    +0.000 F 
ATOM     11  F   UNL     1      -5.073  -2.946 131.482  0.00  0.00    +0.000 F 
ATOM     12  F   UNL     1      -5.428  -5.004 130.885  0.00  0.00    +0.000 F 
ENDBRANCH   6   9
ENDBRANCH   1   3
BRANCH   1  13
ATOM     13  C   UNL     1      -9.473  -2.887 125.541  0.00  0.00    +0.000 C 
BRANCH  13  14
ATOM     14  C   UNL     1      -8.551  -3.859 124.835  0.00  0.00    +0.000 C 
BRANCH  14  15
ATOM     15  C   UNL     1      -7.516  -3.280 123.907  0.00  0.00    +0.000 C 
BRANCH  15  16
ATOM     16  C   UNL     1      -8.273  -2.536 122.811  0.00  0.00    +0.000 C 
BRANCH  16  18
ATOM     17  C   UNL     1      -6.523  -1.121 123.421  0.00  0.00    +0.000 C 
ATOM     18  O   UNL     1      -7.744  -1.224 122.705  0.00  0.00    +0.000 OA
ENDBRANCH  16  18
ENDBRANCH  15  16
ENDBRANCH  14  15
ENDBRANCH  13  14
ENDBRANCH   1  13
BRANCH   2  19
ATOM     19  O   UNL     1      -9.684  -0.163 125.075  0.00  0.00    +0.000 OA
BRANCH  19  20
ATOM     20  C   UNL     1      -9.815   1.216 124.792  0.00  0.00    +0.000 C 
BRANCH  20  21
ATOM     21  C   UNL     1      -9.865   1.346 123.255  0.00  0.00    +0.000 C 
BRANCH  21  22
ATOM     22  N   UNL     1     -10.595   0.250 122.621  0.00  0.00    +0.000 NA
ATOM     23  H   UNL     1     -10.462  -0.601 123.166  0.00  0.00    +0.000 HD
ATOM     24  H   UNL     1     -10.202   0.063 121.699  0.00  0.00    +0.000 HD
ENDBRANCH  21  22
ENDBRANCH  20  21
ENDBRANCH  19  20
ENDBRANCH   2  19
TORSDOF 11
ENDMDL
MODEL 4
REMARK VINA RESULT:      -5.9      4.589      5.846
REMARK  Name = Fluvoxamine
REMARK  12 active torsions:
REMARK  status: ('A' for Active; 'I' for Inactive)
REMARK    1  A    between atoms: C_1  and  O_2
REMARK    2  A    between atoms: O_2  and  C_3
REMARK    3  A    between atoms: C_3  and  C_4
REMARK    4  A    between atoms: C_4  and  C_5
REMARK    5  A    between atoms: C_5  and  C_6
REMARK    6  A    between atoms: C_6  and  C_7
REMARK    7  A    between atoms: C_7  and  C_13
REMARK    8  A    between atoms: N_8  and  O_9
REMARK    9  A    between atoms: O_9  and  C_10
REMARK   10  A    between atoms: C_10  and  C_11
REMARK   11  A    between atoms: C_11  and  N_12
REMARK   12  A    between atoms: C_16  and  C_19
REMARK                            x       y       z     vdW  Elec       q    Type
REMARK                         _______ _______ _______ _____ _____    ______ ____
ROOT
ATOM      1  C   UNL     1      -7.000   2.145 123.499  0.00  0.00    +0.000 C 
ATOM      2  N   UNL     1      -6.701   2.504 122.277  0.00  0.00    +0.000 NA
ENDROOT
BRANCH   1   3
ATOM      3  C   UNL     1      -7.559   0.768 123.690  0.00  0.00    +0.000 A 
ATOM      4  C   UNL     1      -8.645   0.596 124.555  0.00  0.00    +0.000 A 
ATOM      5  C   UNL     1      -9.093  -0.691 124.867  0.00  0.00    +0.000 A 
ATOM      6  C   UNL     1      -8.506  -1.817 124.268  0.00  0.00    +0.000 A 
ATOM      7  C   UNL     1      -7.430  -1.634 123.387  0.00  0.00    +0.000 A 
ATOM      8  C   UNL     1      -6.961  -0.348 123.098  0.00  0.00    +0.000 A 
BRANCH   6   9
ATOM      9  C   UNL     1      -9.067  -3.191 124.545  0.00  0.00    +0.000 C 
ATOM     10  F   UNL     1      -9.898  -3.634 123.563  0.00  0.00    +0.000 F 
ATOM     11  F   UNL     1      -8.084  -4.128 124.655  0.00  0.00    +0.000 F 
ATOM     12  F   UNL     1      -9.781  -3.267 125.703  0.00  0.00    +0.000 F 
ENDBRANCH   6   9
ENDBRANCH   1   3
BRANCH   1  13
ATOM     13  C   UNL     1      -6.844   2.980 124.796  0.00  0.00    +0.000 C 
BRANCH  13  14
ATOM     14  C   UNL     1      -5.459   2.968 125.407  0.00  0.00    +0.000 C 
BRANCH  14  15
ATOM     15  C   UNL     1      -5.149   1.873 126.393  0.00  0.00    +0.000 C 
BRANCH  15  16
ATOM     16  C   UNL     1      -3.942   2.338 127.204  0.00  0.00    +0.000 C 
BRANCH  16  18
ATOM     17  C   UNL     1      -1.809   3.125 126.689  0.00  0.00    +0.000 C 
ATOM     18  O   UNL     1      -3.196   3.255 126.420  0.00  0.00    +0.000 OA
ENDBRANCH  16  18
ENDBRANCH  15  16
ENDBRANCH  14  15
ENDBRANCH  13  14
ENDBRANCH   1  13
BRANCH   2  19
ATOM     19  O   UNL     1      -6.238   3.815 122.224  0.00  0.00    +0.000 OA
BRANCH  19  20
ATOM     20  C   UNL     1      -5.074   4.011 121.444  0.00  0.00    +0.000 C 
BRANCH  20  21
ATOM     21  C   UNL     1      -5.519   4.764 120.173  0.00  0.00    +0.000 C 
BRANCH  21  22
ATOM     22  N   UNL     1      -4.920   6.093 120.067  0.00  0.00    +0.000 NA
ATOM     23  H   UNL     1      -5.481   6.757 120.597  0.00  0.00    +0.000 HD
ATOM     24  H   UNL     1      -4.946   6.406 119.097  0.00  0.00    +0.000 HD
ENDBRANCH  21  22
ENDBRANCH  20  21
ENDBRANCH  19  20
ENDBRANCH   2  19
TORSDOF 11
ENDMDL
MODEL 5
REMARK VINA RESULT:      -5.8      9.469     11.490
REMARK  Name = Fluvoxamine
REMARK  12 active torsions:
REMARK  status: ('A' for Active; 'I' for Inactive)
REMARK    1  A    between atoms: C_1  and  O_2
REMARK    2  A    between atoms: O_2  and  C_3
REMARK    3  A    between atoms: C_3  and  C_4
REMARK    4  A    between atoms: C_4  and  C_5
REMARK    5  A    between atoms: C_5  and  C_6
REMARK    6  A    between atoms: C_6  and  C_7
REMARK    7  A    between atoms: C_7  and  C_13
REMARK    8  A    between atoms: N_8  and  O_9
REMARK    9  A    between atoms: O_9  and  C_10
REMARK   10  A    between atoms: C_10  and  C_11
REMARK   11  A    between atoms: C_11  and  N_12
REMARK   12  A    between atoms: C_16  and  C_19
REMARK                            x       y       z     vdW  Elec       q    Type
REMARK                         _______ _______ _______ _____ _____    ______ ____
ROOT
ATOM      1  C   UNL     1      -8.734   5.482 132.481  0.00  0.00    +0.000 C 
ATOM      2  N   UNL     1      -7.517   5.935 132.644  0.00  0.00    +0.000 NA
ENDROOT
BRANCH   1   3
ATOM      3  C   UNL     1      -9.664   6.306 131.643  0.00  0.00    +0.000 A 
ATOM      4  C   UNL     1     -11.024   6.327 131.967  0.00  0.00    +0.000 A 
ATOM      5  C   UNL     1     -11.935   6.965 131.120  0.00  0.00    +0.000 A 
ATOM      6  C   UNL     1     -11.491   7.644 129.975  0.00  0.00    +0.000 A 
ATOM      7  C   UNL     1     -10.123   7.634 129.667  0.00  0.00    +0.000 A 
ATOM      8  C   UNL     1      -9.214   6.971 130.497  0.00  0.00    +0.000 A 
BRANCH   6   9
ATOM      9  C   UNL     1     -12.479   8.407 129.126  0.00  0.00    +0.000 C 
ATOM     10  F   UNL     1     -13.594   7.686 128.828  0.00  0.00    +0.000 F 
ATOM     11  F   UNL     1     -12.918   9.536 129.750  0.00  0.00    +0.000 F 
ATOM     12  F   UNL     1     -11.970   8.819 127.932  0.00  0.00    +0.000 F 
ENDBRANCH   6   9
ENDBRANCH   1   3
BRANCH   1  13
ATOM     13  C   UNL     1      -9.344   4.178 133.057  0.00  0.00    +0.000 C 
BRANCH  13  14
ATOM     14  C   UNL     1      -9.483   3.041 132.067  0.00  0.00    +0.000 C 
BRANCH  14  15
ATOM     15  C   UNL     1      -8.363   2.844 131.080  0.00  0.00    +0.000 C 
BRANCH  15  16
ATOM     16  C   UNL     1      -9.011   2.572 129.726  0.00  0.00    +0.000 C 
BRANCH  16  18
ATOM     17  C   UNL     1      -7.847   4.191 128.518  0.00  0.00    +0.000 C 
ATOM     18  O   UNL     1      -9.115   3.797 129.018  0.00  0.00    +0.000 OA
ENDBRANCH  16  18
ENDBRANCH  15  16
ENDBRANCH  14  15
ENDBRANCH  13  14
ENDBRANCH   1  13
BRANCH   2  19
ATOM     19  O   UNL     1      -6.768   5.110 133.478  0.00  0.00    +0.000 OA
BRANCH  19  20
ATOM     20  C   UNL     1      -6.154   5.760 134.573  0.00  0.00    +0.000 C 
BRANCH  20  21
ATOM     21  C   UNL     1      -6.997   5.414 135.819  0.00  0.00    +0.000 C 
BRANCH  21  22
ATOM     22  N   UNL     1      -8.220   6.209 135.909  0.00  0.00    +0.000 NA
ATOM     23  H   UNL     1      -7.989   7.195 135.793  0.00  0.00    +0.000 HD
ATOM     24  H   UNL     1      -8.623   6.117 136.841  0.00  0.00    +0.000 HD
ENDBRANCH  21  22
ENDBRANCH  20  21
ENDBRANCH  19  20
ENDBRANCH   2  19
TORSDOF 11
ENDMDL
MODEL 6
REMARK VINA RESULT:      -5.8     10.646     12.028
REMARK  Name = Fluvoxamine
REMARK  12 active torsions:
REMARK  status: ('A' for Active; 'I' for Inactive)
REMARK    1  A    between atoms: C_1  and  O_2
REMARK    2  A    between atoms: O_2  and  C_3
REMARK    3  A    between atoms: C_3  and  C_4
REMARK    4  A    between atoms: C_4  and  C_5
REMARK    5  A    between atoms: C_5  and  C_6
REMARK    6  A    between atoms: C_6  and  C_7
REMARK    7  A    between atoms: C_7  and  C_13
REMARK    8  A    between atoms: N_8  and  O_9
REMARK    9  A    between atoms: O_9  and  C_10
REMARK   10  A    between atoms: C_10  and  C_11
REMARK   11  A    between atoms: C_11  and  N_12
REMARK   12  A    between atoms: C_16  and  C_19
REMARK                            x       y       z     vdW  Elec       q    Type
REMARK                         _______ _______ _______ _____ _____    ______ ____
ROOT
ATOM      1  C   UNL     1      -8.335   6.053 132.282  0.00  0.00    +0.000 C 
ATOM      2  N   UNL     1      -8.545   6.019 133.573  0.00  0.00    +0.000 NA
ENDROOT
BRANCH   1   3
ATOM      3  C   UNL     1      -9.467   6.517 131.417  0.00  0.00    +0.000 A 
ATOM      4  C   UNL     1      -9.173   7.187 130.225  0.00  0.00    +0.000 A 
ATOM      5  C   UNL     1     -10.202   7.761 129.473  0.00  0.00    +0.000 A 
ATOM      6  C   UNL     1     -11.542   7.616 129.867  0.00  0.00    +0.000 A 
ATOM      7  C   UNL     1     -11.829   6.926 131.053  0.00  0.00    +0.000 A 
ATOM      8  C   UNL     1     -10.798   6.378 131.823  0.00  0.00    +0.000 A 
BRANCH   6   9
ATOM      9  C   UNL     1     -12.644   8.160 128.990  0.00  0.00    +0.000 C 
ATOM     10  F   UNL     1     -12.232   8.426 127.721  0.00  0.00    +0.000 F 
ATOM     11  F   UNL     1     -13.679   7.281 128.873  0.00  0.00    +0.000 F 
ATOM     12  F   UNL     1     -13.192   9.316 129.457  0.00  0.00    +0.000 F 
ENDBRANCH   6   9
ENDBRANCH   1   3
BRANCH   1  13
ATOM     13  C   UNL     1      -7.040   5.666 131.524  0.00  0.00    +0.000 C 
BRANCH  13  14
ATOM     14  C   UNL     1      -5.865   6.596 131.740  0.00  0.00    +0.000 C 
BRANCH  14  15
ATOM     15  C   UNL     1      -5.339   7.337 130.539  0.00  0.00    +0.000 C 
BRANCH  15  16
ATOM     16  C   UNL     1      -4.446   6.362 129.777  0.00  0.00    +0.000 C 
BRANCH  16  18
ATOM     17  C   UNL     1      -2.768   6.873 128.241  0.00  0.00    +0.000 C 
ATOM     18  O   UNL     1      -4.163   6.910 128.500  0.00  0.00    +0.000 OA
ENDBRANCH  16  18
ENDBRANCH  15  16
ENDBRANCH  14  15
ENDBRANCH  13  14
ENDBRANCH   1  13
BRANCH   2  19
ATOM     19  O   UNL     1      -7.441   5.527 134.262  0.00  0.00    +0.000 OA
BRANCH  19  20
ATOM     20  C   UNL     1      -7.685   5.159 135.606  0.00  0.00    +0.000 C 
BRANCH  20  21
ATOM     21  C   UNL     1      -7.508   6.439 136.450  0.00  0.00    +0.000 C 
BRANCH  21  22
ATOM     22  N   UNL     1      -8.770   7.138 136.683  0.00  0.00    +0.000 NA
ATOM     23  H   UNL     1      -8.898   7.274 137.685  0.00  0.00    +0.000 HD
ATOM     24  H   UNL     1      -9.548   6.557 136.372  0.00  0.00    +0.000 HD
ENDBRANCH  21  22
ENDBRANCH  20  21
ENDBRANCH  19  20
ENDBRANCH   2  19
TORSDOF 11
ENDMDL
MODEL 7
REMARK VINA RESULT:      -5.7      2.608      4.714
REMARK  Name = Fluvoxamine
REMARK  12 active torsions:
REMARK  status: ('A' for Active; 'I' for Inactive)
REMARK    1  A    between atoms: C_1  and  O_2
REMARK    2  A    between atoms: O_2  and  C_3
REMARK    3  A    between atoms: C_3  and  C_4
REMARK    4  A    between atoms: C_4  and  C_5
REMARK    5  A    between atoms: C_5  and  C_6
REMARK    6  A    between atoms: C_6  and  C_7
REMARK    7  A    between atoms: C_7  and  C_13
REMARK    8  A    between atoms: N_8  and  O_9
REMARK    9  A    between atoms: O_9  and  C_10
REMARK   10  A    between atoms: C_10  and  C_11
REMARK   11  A    between atoms: C_11  and  N_12
REMARK   12  A    between atoms: C_16  and  C_19
REMARK                            x       y       z     vdW  Elec       q    Type
REMARK                         _______ _______ _______ _____ _____    ______ ____
ROOT
ATOM      1  C   UNL     1      -7.993  -1.206 126.638  0.00  0.00    +0.000 C 
ATOM      2  N   UNL     1      -8.742  -1.785 125.735  0.00  0.00    +0.000 NA
ENDROOT
BRANCH   1   3
ATOM      3  C   UNL     1      -7.357  -2.089 127.668  0.00  0.00    +0.000 A 
ATOM      4  C   UNL     1      -8.177  -2.899 128.460  0.00  0.00    +0.000 A 
ATOM      5  C   UNL     1      -7.629  -3.621 129.524  0.00  0.00    +0.000 A 
ATOM      6  C   UNL     1      -6.247  -3.594 129.770  0.00  0.00    +0.000 A 
ATOM      7  C   UNL     1      -5.429  -2.794 128.959  0.00  0.00    +0.000 A 
ATOM      8  C   UNL     1      -5.980  -2.047 127.912  0.00  0.00    +0.000 A 
BRANCH   6   9
ATOM      9  C   UNL     1      -5.663  -4.455 130.864  0.00  0.00    +0.000 C 
ATOM     10  F   UNL     1      -5.781  -5.787 130.612  0.00  0.00    +0.000 F 
ATOM     11  F   UNL     1      -4.332  -4.222 131.037  0.00  0.00    +0.000 F 
ATOM     12  F   UNL     1      -6.235  -4.252 132.083  0.00  0.00    +0.000 F 
ENDBRANCH   6   9
ENDBRANCH   1   3
BRANCH   1  13
ATOM     13  C   UNL     1      -7.675   0.305 126.777  0.00  0.00    +0.000 C 
BRANCH  13  14
ATOM     14  C   UNL     1      -8.341   0.999 127.946  0.00  0.00    +0.000 C 
BRANCH  14  15
ATOM     15  C   UNL     1      -7.503   1.246 129.173  0.00  0.00    +0.000 C 
BRANCH  15  16
ATOM     16  C   UNL     1      -8.118   0.422 130.300  0.00  0.00    +0.000 C 
BRANCH  16  18
ATOM     17  C   UNL     1      -7.566  -0.930 132.117  0.00  0.00    +0.000 C 
ATOM     18  O   UNL     1      -7.093  -0.340 130.916  0.00  0.00    +0.000 OA
ENDBRANCH  16  18
ENDBRANCH  15  16
ENDBRANCH  14  15
ENDBRANCH  13  14
ENDBRANCH   1  13
BRANCH   2  19
ATOM     19  O   UNL     1      -9.312  -0.858 124.868  0.00  0.00    +0.000 OA
BRANCH  19  20
ATOM     20  C   UNL     1      -9.133  -1.131 123.492  0.00  0.00    +0.000 C 
BRANCH  20  21
ATOM     21  C   UNL     1      -8.845  -2.643 123.379  0.00  0.00    +0.000 C 
BRANCH  21  22
ATOM     22  N   UNL     1     -10.063  -3.451 123.393  0.00  0.00    +0.000 NA
ATOM     23  H   UNL     1      -9.906  -4.303 122.858  0.00  0.00    +0.000 HD
ATOM     24  H   UNL     1     -10.814  -2.949 122.919  0.00  0.00    +0.000 HD
ENDBRANCH  21  22
ENDBRANCH  20  21
ENDBRANCH  19  20
ENDBRANCH   2  19
TORSDOF 11
ENDMDL
MODEL 8
REMARK VINA RESULT:      -5.7      4.423      6.349
REMARK  Name = Fluvoxamine
REMARK  12 active torsions:
REMARK  status: ('A' for Active; 'I' for Inactive)
REMARK    1  A    between atoms: C_1  and  O_2
REMARK    2  A    between atoms: O_2  and  C_3
REMARK    3  A    between atoms: C_3  and  C_4
REMARK    4  A    between atoms: C_4  and  C_5
REMARK    5  A    between atoms: C_5  and  C_6
REMARK    6  A    between atoms: C_6  and  C_7
REMARK    7  A    between atoms: C_7  and  C_13
REMARK    8  A    between atoms: N_8  and  O_9
REMARK    9  A    between atoms: O_9  and  C_10
REMARK   10  A    between atoms: C_10  and  C_11
REMARK   11  A    between atoms: C_11  and  N_12
REMARK   12  A    between atoms: C_16  and  C_19
REMARK                            x       y       z     vdW  Elec       q    Type
REMARK                         _______ _______ _______ _____ _____    ______ ____
ROOT
ATOM      1  C   UNL     1      -7.581  -1.965 128.930  0.00  0.00    +0.000 C 
ATOM      2  N   UNL     1      -7.157  -0.771 129.258  0.00  0.00    +0.000 NA
ENDROOT
BRANCH   1   3
ATOM      3  C   UNL     1      -7.947  -2.190 127.495  0.00  0.00    +0.000 A 
ATOM      4  C   UNL     1      -7.502  -1.276 126.534  0.00  0.00    +0.000 A 
ATOM      5  C   UNL     1      -7.948  -1.378 125.213  0.00  0.00    +0.000 A 
ATOM      6  C   UNL     1      -8.790  -2.431 124.821  0.00  0.00    +0.000 A 
ATOM      7  C   UNL     1      -9.216  -3.354 125.787  0.00  0.00    +0.000 A 
ATOM      8  C   UNL     1      -8.795  -3.236 127.116  0.00  0.00    +0.000 A 
BRANCH   6   9
ATOM      9  C   UNL     1      -9.182  -2.577 123.371  0.00  0.00    +0.000 C 
ATOM     10  F   UNL     1      -8.118  -2.786 122.550  0.00  0.00    +0.000 F 
ATOM     11  F   UNL     1     -10.020  -3.634 123.176  0.00  0.00    +0.000 F 
ATOM     12  F   UNL     1      -9.835  -1.491 122.870  0.00  0.00    +0.000 F 
ENDBRANCH   6   9
ENDBRANCH   1   3
BRANCH   1  13
ATOM     13  C   UNL     1      -7.755  -3.195 129.857  0.00  0.00    +0.000 C 
BRANCH  13  14
ATOM     14  C   UNL     1      -6.529  -4.071 130.000  0.00  0.00    +0.000 C 
BRANCH  14  15
ATOM     15  C   UNL     1      -5.778  -4.001 131.304  0.00  0.00    +0.000 C 
BRANCH  15  16
ATOM     16  C   UNL     1      -4.305  -3.816 130.955  0.00  0.00    +0.000 C 
BRANCH  16  18
ATOM     17  C   UNL     1      -2.960  -3.742 129.052  0.00  0.00    +0.000 C 
ATOM     18  O   UNL     1      -4.209  -3.370 129.612  0.00  0.00    +0.000 OA
ENDBRANCH  16  18
ENDBRANCH  15  16
ENDBRANCH  14  15
ENDBRANCH  13  14
ENDBRANCH   1  13
BRANCH   2  19
ATOM     19  O   UNL     1      -6.897  -0.673 130.621  0.00  0.00    +0.000 OA
BRANCH  19  20
ATOM     20  C   UNL     1      -6.086   0.421 131.002  0.00  0.00    +0.000 C 
BRANCH  20  21
ATOM     21  C   UNL     1      -4.629  -0.087 130.989  0.00  0.00    +0.000 C 
BRANCH  21  22
ATOM     22  N   UNL     1      -4.133  -0.337 129.637  0.00  0.00    +0.000 NA
ATOM     23  H   UNL     1      -4.097   0.543 129.124  0.00  0.00    +0.000 HD
ATOM     24  H   UNL     1      -4.789  -0.934 129.135  0.00  0.00    +0.000 HD
ENDBRANCH  21  22
ENDBRANCH  20  21
ENDBRANCH  19  20
ENDBRANCH   2  19
TORSDOF 11
ENDMDL
MODEL 9
REMARK VINA RESULT:      -5.7      4.223      5.980
REMARK  Name = Fluvoxamine
REMARK  12 active torsions:
REMARK  status: ('A' for Active; 'I' for Inactive)
REMARK    1  A    between atoms: C_1  and  O_2
REMARK    2  A    between atoms: O_2  and  C_3
REMARK    3  A    between atoms: C_3  and  C_4
REMARK    4  A    between atoms: C_4  and  C_5
REMARK    5  A    between atoms: C_5  and  C_6
REMARK    6  A    between atoms: C_6  and  C_7
REMARK    7  A    between atoms: C_7  and  C_13
REMARK    8  A    between atoms: N_8  and  O_9
REMARK    9  A    between atoms: O_9  and  C_10
REMARK   10  A    between atoms: C_10  and  C_11
REMARK   11  A    between atoms: C_11  and  N_12
REMARK   12  A    between atoms: C_16  and  C_19
REMARK                            x       y       z     vdW  Elec       q    Type
REMARK                         _______ _______ _______ _____ _____    ______ ____
ROOT
ATOM      1  C   UNL     1      -6.845   2.002 123.462  0.00  0.00    +0.000 C 
ATOM      2  N   UNL     1      -6.858   2.461 122.236  0.00  0.00    +0.000 NA
ENDROOT
BRANCH   1   3
ATOM      3  C   UNL     1      -7.378   0.619 123.679  0.00  0.00    +0.000 A 
ATOM      4  C   UNL     1      -8.643   0.297 123.177  0.00  0.00    +0.000 A 
ATOM      5  C   UNL     1      -9.227  -0.933 123.490  0.00  0.00    +0.000 A 
ATOM      6  C   UNL     1      -8.530  -1.883 124.253  0.00  0.00    +0.000 A 
ATOM      7  C   UNL     1      -7.254  -1.560 124.736  0.00  0.00    +0.000 A 
ATOM      8  C   UNL     1      -6.680  -0.317 124.449  0.00  0.00    +0.000 A 
BRANCH   6   9
ATOM      9  C   UNL     1      -9.140  -3.242 124.498  0.00  0.00    +0.000 C 
ATOM     10  F   UNL     1      -9.933  -3.277 125.603  0.00  0.00    +0.000 F 
ATOM     11  F   UNL     1      -9.925  -3.640 123.459  0.00  0.00    +0.000 F 
ATOM     12  F   UNL     1      -8.219  -4.232 124.666  0.00  0.00    +0.000 F 
ENDBRANCH   6   9
ENDBRANCH   1   3
BRANCH   1  13
ATOM     13  C   UNL     1      -6.336   2.722 124.737  0.00  0.00    +0.000 C 
BRANCH  13  14
ATOM     14  C   UNL     1      -7.405   3.062 125.754  0.00  0.00    +0.000 C 
BRANCH  14  15
ATOM     15  C   UNL     1      -7.237   2.508 127.144  0.00  0.00    +0.000 C 
BRANCH  15  16
ATOM     16  C   UNL     1      -8.409   1.561 127.385  0.00  0.00    +0.000 C 
BRANCH  16  18
ATOM     17  C   UNL     1      -8.867   2.463 129.486  0.00  0.00    +0.000 C 
ATOM     18  O   UNL     1      -8.496   1.292 128.775  0.00  0.00    +0.000 OA
ENDBRANCH  16  18
ENDBRANCH  15  16
ENDBRANCH  14  15
ENDBRANCH  13  14
ENDBRANCH   1  13
BRANCH   2  19
ATOM     19  O   UNL     1      -6.385   3.768 122.171  0.00  0.00    +0.000 OA
BRANCH  19  20
ATOM     20  C   UNL     1      -5.466   4.024 121.127  0.00  0.00    +0.000 C 
BRANCH  20  21
ATOM     21  C   UNL     1      -4.374   4.942 121.717  0.00  0.00    +0.000 C 
BRANCH  21  22
ATOM     22  N   UNL     1      -4.246   6.203 120.989  0.00  0.00    +0.000 NA
ATOM     23  H   UNL     1      -4.781   6.146 120.123  0.00  0.00    +0.000 HD
ATOM     24  H   UNL     1      -3.275   6.346 120.716  0.00  0.00    +0.000 HD
ENDBRANCH  21  22
ENDBRANCH  20  21
ENDBRANCH  19  20
ENDBRANCH   2  19
TORSDOF 11
ENDMDL
