MODEL 1
REMARK VINA RESULT:      -8.0      0.000      0.000
REMARK  Name = Fluvastatin
REMARK  13 active torsions:
REMARK  status: ('A' for Active; 'I' for Inactive)
REMARK    1  A    between atoms: C_1  and  C_2
REMARK    2  A    between atoms: C_2  and  C_3
REMARK    3  A    between atoms: C_2  and  N_4
REMARK    4  A    between atoms: C_5  and  C_6
REMARK    5  A    between atoms: C_7  and  C_8
REMARK    6  A    between atoms: C_8  and  O_9
REMARK    7  A    between atoms: C_8  and  C_10
REMARK    8  A    between atoms: C_10  and  C_11
REMARK    9  A    between atoms: C_11  and  O_12
REMARK   10  A    between atoms: C_11  and  C_13
REMARK   11  A    between atoms: C_13  and  C_14
REMARK   12  A    between atoms: C_14  and  O_15
REMARK   13  A    between atoms: C_17  and  C_24
REMARK                            x       y       z     vdW  Elec       q    Type
REMARK                         _______ _______ _______ _____ _____    ______ ____
ROOT
ATOM      1  N   UNL     1      -7.901  -1.468 125.421  0.00  0.00    +0.000 N 
ATOM      2  C   UNL     1      -7.600  -0.139 125.737  0.00  0.00    +0.000 A 
ATOM      3  C   UNL     1      -7.613  -0.072 127.129  0.00  0.00    +0.000 A 
ATOM      4  C   UNL     1      -7.869  -1.360 127.662  0.00  0.00    +0.000 A 
ATOM      5  C   UNL     1      -7.987  -1.847 128.982  0.00  0.00    +0.000 A 
ATOM      6  C   UNL     1      -8.276  -3.190 129.205  0.00  0.00    +0.000 A 
ATOM      7  C   UNL     1      -8.448  -4.050 128.127  0.00  0.00    +0.000 A 
ATOM      8  C   UNL     1      -8.339  -3.590 126.806  0.00  0.00    +0.000 A 
ATOM      9  C   UNL     1      -8.047  -2.228 126.586  0.00  0.00    +0.000 A 
ENDROOT
BRANCH   3  10
ATOM     10  C   UNL     1      -7.388   1.162 127.856  0.00  0.00    +0.000 A 
ATOM     11  C   UNL     1      -8.488   1.901 128.308  0.00  0.00    +0.000 A 
ATOM     12  C   UNL     1      -8.301   3.186 128.801  0.00  0.00    +0.000 A 
ATOM     13  C   UNL     1      -7.007   3.664 128.971  0.00  0.00    +0.000 A 
ATOM     14  F   UNL     1      -6.825   4.907 129.432  0.00  0.00    +0.000 F 
ATOM     15  C   UNL     1      -5.901   2.880 128.662  0.00  0.00    +0.000 A 
ATOM     16  C   UNL     1      -6.089   1.641 128.053  0.00  0.00    +0.000 A 
ENDBRANCH   3  10
BRANCH   1  18
ATOM     17  C   UNL     1      -6.809  -2.607 123.525  0.00  0.00    +0.000 C 
ATOM     18  C   UNL     1      -8.137  -2.011 124.078  0.00  0.00    +0.000 C 
ATOM     19  C   UNL     1      -9.450  -2.845 124.036  0.00  0.00    +0.000 C 
ENDBRANCH   1  18
BRANCH   2  20
ATOM     20  C   UNL     1      -7.322   0.927 124.805  0.00  0.00    +0.000 C 
ATOM     21  C   UNL     1      -8.194   1.780 124.263  0.00  0.00    +0.000 C 
BRANCH  21  22
ATOM     22  C   UNL     1      -8.001   2.844 123.264  0.00  0.00    +0.000 C 
BRANCH  22  23
ATOM     23  O   UNL     1      -8.087   4.078 123.950  0.00  0.00    +0.000 OA
ATOM     24  H   UNL     1      -8.294   4.765 123.294  0.00  0.00    +0.000 HD
ENDBRANCH  22  23
BRANCH  22  25
ATOM     25  C   UNL     1      -6.606   2.671 122.611  0.00  0.00    +0.000 C 
BRANCH  25  26
ATOM     26  C   UNL     1      -6.107   4.016 122.123  0.00  0.00    +0.000 C 
BRANCH  26  27
ATOM     27  O   UNL     1      -5.387   4.700 123.146  0.00  0.00    +0.000 OA
ATOM     28  H   UNL     1      -4.517   4.964 122.788  0.00  0.00    +0.000 HD
ENDBRANCH  26  27
BRANCH  26  29
ATOM     29  C   UNL     1      -5.179   3.925 120.930  0.00  0.00    +0.000 C 
BRANCH  29  30
ATOM     30  C   UNL     1      -4.981   5.258 120.250  0.00  0.00    +0.000 C 
ATOM     31  O   UNL     1      -5.459   5.487 119.132  0.00  0.00    +0.000 OA
BRANCH  30  32
ATOM     32  O   UNL     1      -4.261   6.191 120.901  0.00  0.00    +0.000 OA
ATOM     33  H   UNL     1      -4.179   6.042 121.873  0.00  0.00    +0.000 HD
ENDBRANCH  30  32
ENDBRANCH  29  30
ENDBRANCH  26  29
ENDBRANCH  25  26
ENDBRANCH  22  25
ENDBRANCH  21  22
ENDBRANCH   2  20
TORSDOF 11
ENDMDL
MODEL 2
REMARK VINA RESULT:      -7.7      3.633      6.145
REMARK  Name = Fluvastatin
REMARK  13 active torsions:
REMARK  status: ('A' for Active; 'I' for Inactive)
REMARK    1  A    between atoms: C_1  and  C_2
REMARK    2  A    between atoms: C_2  and  C_3
REMARK    3  A    between atoms: C_2  and  N_4
REMARK    4  A    between atoms: C_5  and  C_6
REMARK    5  A    between atoms: C_7  and  C_8
REMARK    6  A    between atoms: C_8  and  O_9
REMARK    7  A    between atoms: C_8  and  C_10
REMARK    8  A    between atoms: C_10  and  C_11
REMARK    9  A    between atoms: C_11  and  O_12
REMARK   10  A    between atoms: C_11  and  C_13
REMARK   11  A    between atoms: C_13  and  C_14
REMARK   12  A    between atoms: C_14  and  O_15
REMARK   13  A    between atoms: C_17  and  C_24
REMARK                            x       y       z     vdW  Elec       q    Type
REMARK                         _______ _______ _______ _____ _____    ______ ____
ROOT
ATOM      1  N   UNL     1      -8.274   0.141 125.347  0.00  0.00    +0.000 N 
ATOM      2  C   UNL     1      -7.742  -0.076 126.622  0.00  0.00    +0.000 A 
ATOM      3  C   UNL     1      -7.704  -1.461 126.781  0.00  0.00    +0.000 A 
ATOM      4  C   UNL     1      -8.160  -2.087 125.595  0.00  0.00    +0.000 A 
ATOM      5  C   UNL     1      -8.321  -3.438 125.223  0.00  0.00    +0.000 A 
ATOM      6  C   UNL     1      -8.829  -3.759 123.967  0.00  0.00    +0.000 A 
ATOM      7  C   UNL     1      -9.177  -2.747 123.081  0.00  0.00    +0.000 A 
ATOM      8  C   UNL     1      -9.028  -1.395 123.427  0.00  0.00    +0.000 A 
ATOM      9  C   UNL     1      -8.514  -1.076 124.702  0.00  0.00    +0.000 A 
ENDROOT
BRANCH   3  10
ATOM     10  C   UNL     1      -7.250  -2.097 128.003  0.00  0.00    +0.000 A 
ATOM     11  C   UNL     1      -5.877  -2.293 128.203  0.00  0.00    +0.000 A 
ATOM     12  C   UNL     1      -5.441  -3.095 129.250  0.00  0.00    +0.000 A 
ATOM     13  C   UNL     1      -6.368  -3.576 130.167  0.00  0.00    +0.000 A 
ATOM     14  F   UNL     1      -5.951  -4.361 131.167  0.00  0.00    +0.000 F 
ATOM     15  C   UNL     1      -7.719  -3.263 130.060  0.00  0.00    +0.000 A 
ATOM     16  C   UNL     1      -8.173  -2.563 128.944  0.00  0.00    +0.000 A 
ENDBRANCH   3  10
BRANCH   1  18
ATOM     17  C   UNL     1      -7.548   1.865 123.739  0.00  0.00    +0.000 C 
ATOM     18  C   UNL     1      -8.638   1.439 124.767  0.00  0.00    +0.000 C 
ATOM     19  C   UNL     1     -10.143   1.472 124.374  0.00  0.00    +0.000 C 
ENDBRANCH   1  18
BRANCH   2  20
ATOM     20  C   UNL     1      -7.312   0.931 127.561  0.00  0.00    +0.000 C 
ATOM     21  C   UNL     1      -8.035   1.501 128.528  0.00  0.00    +0.000 C 
BRANCH  21  22
ATOM     22  C   UNL     1      -7.693   2.574 129.477  0.00  0.00    +0.000 C 
BRANCH  22  23
ATOM     23  O   UNL     1      -6.655   3.332 128.888  0.00  0.00    +0.000 OA
ATOM     24  H   UNL     1      -7.056   3.901 128.209  0.00  0.00    +0.000 HD
ENDBRANCH  22  23
BRANCH  22  25
ATOM     25  C   UNL     1      -8.949   3.449 129.718  0.00  0.00    +0.000 C 
BRANCH  25  26
ATOM     26  C   UNL     1      -8.636   4.889 129.362  0.00  0.00    +0.000 C 
BRANCH  26  27
ATOM     27  O   UNL     1      -8.760   5.109 127.958  0.00  0.00    +0.000 OA
ATOM     28  H   UNL     1      -9.100   6.014 127.817  0.00  0.00    +0.000 HD
ENDBRANCH  26  27
BRANCH  26  29
ATOM     29  C   UNL     1      -9.544   5.894 130.038  0.00  0.00    +0.000 C 
BRANCH  29  30
ATOM     30  C   UNL     1     -10.285   6.759 129.046  0.00  0.00    +0.000 C 
ATOM     31  O   UNL     1      -9.852   7.868 128.710  0.00  0.00    +0.000 OA
BRANCH  30  32
ATOM     32  O   UNL     1     -11.440   6.284 128.542  0.00  0.00    +0.000 OA
ATOM     33  H   UNL     1     -11.490   6.287 127.557  0.00  0.00    +0.000 HD
ENDBRANCH  30  32
ENDBRANCH  29  30
ENDBRANCH  26  29
ENDBRANCH  25  26
ENDBRANCH  22  25
ENDBRANCH  21  22
ENDBRANCH   2  20
TORSDOF 11
ENDMDL
MODEL 3
REMARK VINA RESULT:      -7.7      3.631      6.651
REMARK  Name = Fluvastatin
REMARK  13 active torsions:
REMARK  status: ('A' for Active; 'I' for Inactive)
REMARK    1  A    between atoms: C_1  and  C_2
REMARK    2  A    between atoms: C_2  and  C_3
REMARK    3  A    between atoms: C_2  and  N_4
REMARK    4  A    between atoms: C_5  and  C_6
REMARK    5  A    between atoms: C_7  and  C_8
REMARK    6  A    between atoms: C_8  and  O_9
REMARK    7  A    between atoms: C_8  and  C_10
REMARK    8  A    between atoms: C_10  and  C_11
REMARK    9  A    between atoms: C_11  and  O_12
REMARK   10  A    between atoms: C_11  and  C_13
REMARK   11  A    between atoms: C_13  and  C_14
REMARK   12  A    between atoms: C_14  and  O_15
REMARK   13  A    between atoms: C_17  and  C_24
REMARK                            x       y       z     vdW  Elec       q    Type
REMARK                         _______ _______ _______ _____ _____    ______ ____
ROOT
ATOM      1  N   UNL     1      -7.481   0.207 124.805  0.00  0.00    +0.000 N 
ATOM      2  C   UNL     1      -7.538  -0.035 126.181  0.00  0.00    +0.000 A 
ATOM      3  C   UNL     1      -6.943  -1.281 126.368  0.00  0.00    +0.000 A 
ATOM      4  C   UNL     1      -6.479  -1.776 125.124  0.00  0.00    +0.000 A 
ATOM      5  C   UNL     1      -5.816  -2.964 124.749  0.00  0.00    +0.000 A 
ATOM      6  C   UNL     1      -5.502  -3.194 123.412  0.00  0.00    +0.000 A 
ATOM      7  C   UNL     1      -5.842  -2.253 122.449  0.00  0.00    +0.000 A 
ATOM      8  C   UNL     1      -6.503  -1.064 122.795  0.00  0.00    +0.000 A 
ATOM      9  C   UNL     1      -6.820  -0.837 124.150  0.00  0.00    +0.000 A 
ENDROOT
BRANCH   3  10
ATOM     10  C   UNL     1      -6.843  -1.915 127.669  0.00  0.00    +0.000 A 
ATOM     11  C   UNL     1      -5.633  -1.848 128.372  0.00  0.00    +0.000 A 
ATOM     12  C   UNL     1      -5.449  -2.633 129.502  0.00  0.00    +0.000 A 
ATOM     13  C   UNL     1      -6.519  -3.367 130.000  0.00  0.00    +0.000 A 
ATOM     14  F   UNL     1      -6.339  -4.135 131.080  0.00  0.00    +0.000 F 
ATOM     15  C   UNL     1      -7.769  -3.324 129.391  0.00  0.00    +0.000 A 
ATOM     16  C   UNL     1      -7.922  -2.636 128.189  0.00  0.00    +0.000 A 
ENDBRANCH   3  10
BRANCH   1  18
ATOM     17  C   UNL     1      -6.986   2.203 123.443  0.00  0.00    +0.000 C 
ATOM     18  C   UNL     1      -8.101   1.331 124.093  0.00  0.00    +0.000 C 
ATOM     19  C   UNL     1      -9.319   0.855 123.250  0.00  0.00    +0.000 C 
ENDBRANCH   1  18
BRANCH   2  20
ATOM     20  C   UNL     1      -8.088   0.840 127.188  0.00  0.00    +0.000 C 
ATOM     21  C   UNL     1      -7.535   1.946 127.693  0.00  0.00    +0.000 C 
BRANCH  21  22
ATOM     22  C   UNL     1      -7.999   2.849 128.760  0.00  0.00    +0.000 C 
BRANCH  22  23
ATOM     23  O   UNL     1      -8.627   3.947 128.130  0.00  0.00    +0.000 OA
ATOM     24  H   UNL     1      -9.587   3.841 128.242  0.00  0.00    +0.000 HD
ENDBRANCH  22  23
BRANCH  22  25
ATOM     25  C   UNL     1      -8.999   2.084 129.664  0.00  0.00    +0.000 C 
BRANCH  25  26
ATOM     26  C   UNL     1      -9.504   3.009 130.753  0.00  0.00    +0.000 C 
BRANCH  26  27
ATOM     27  O   UNL     1      -8.718   4.198 130.822  0.00  0.00    +0.000 OA
ATOM     28  H   UNL     1      -8.588   4.536 129.915  0.00  0.00    +0.000 HD
ENDBRANCH  26  27
BRANCH  26  29
ATOM     29  C   UNL     1     -10.939   3.452 130.559  0.00  0.00    +0.000 C 
BRANCH  29  30
ATOM     30  C   UNL     1     -11.070   4.953 130.457  0.00  0.00    +0.000 C 
ATOM     31  O   UNL     1     -10.859   5.546 129.392  0.00  0.00    +0.000 OA
BRANCH  30  32
ATOM     32  O   UNL     1     -11.422   5.626 131.568  0.00  0.00    +0.000 OA
ATOM     33  H   UNL     1     -12.196   5.248 132.049  0.00  0.00    +0.000 HD
ENDBRANCH  30  32
ENDBRANCH  29  30
ENDBRANCH  26  29
ENDBRANCH  25  26
ENDBRANCH  22  25
ENDBRANCH  21  22
ENDBRANCH   2  20
TORSDOF 11
ENDMDL
MODEL 4
REMARK VINA RESULT:      -7.7      3.576      5.601
REMARK  Name = Fluvastatin
REMARK  13 active torsions:
REMARK  status: ('A' for Active; 'I' for Inactive)
REMARK    1  A    between atoms: C_1  and  C_2
REMARK    2  A    between atoms: C_2  and  C_3
REMARK    3  A    between atoms: C_2  and  N_4
REMARK    4  A    between atoms: C_5  and  C_6
REMARK    5  A    between atoms: C_7  and  C_8
REMARK    6  A    between atoms: C_8  and  O_9
REMARK    7  A    between atoms: C_8  and  C_10
REMARK    8  A    between atoms: C_10  and  C_11
REMARK    9  A    between atoms: C_11  and  O_12
REMARK   10  A    between atoms: C_11  and  C_13
REMARK   11  A    between atoms: C_13  and  C_14
REMARK   12  A    between atoms: C_14  and  O_15
REMARK   13  A    between atoms: C_17  and  C_24
REMARK                            x       y       z     vdW  Elec       q    Type
REMARK                         _______ _______ _______ _____ _____    ______ ____
ROOT
ATOM      1  N   UNL     1      -7.915   0.057 125.201  0.00  0.00    +0.000 N 
ATOM      2  C   UNL     1      -7.352  -0.177 126.460  0.00  0.00    +0.000 A 
ATOM      3  C   UNL     1      -7.513  -1.541 126.695  0.00  0.00    +0.000 A 
ATOM      4  C   UNL     1      -8.124  -2.147 125.569  0.00  0.00    +0.000 A 
ATOM      5  C   UNL     1      -8.507  -3.474 125.282  0.00  0.00    +0.000 A 
ATOM      6  C   UNL     1      -9.126  -3.774 124.072  0.00  0.00    +0.000 A 
ATOM      7  C   UNL     1      -9.367  -2.765 123.148  0.00  0.00    +0.000 A 
ATOM      8  C   UNL     1      -8.998  -1.437 123.410  0.00  0.00    +0.000 A 
ATOM      9  C   UNL     1      -8.371  -1.138 124.638  0.00  0.00    +0.000 A 
ENDROOT
BRANCH   3  10
ATOM     10  C   UNL     1      -7.093  -2.179 127.928  0.00  0.00    +0.000 A 
ATOM     11  C   UNL     1      -5.729  -2.415 128.146  0.00  0.00    +0.000 A 
ATOM     12  C   UNL     1      -5.330  -3.221 129.204  0.00  0.00    +0.000 A 
ATOM     13  C   UNL     1      -6.281  -3.664 130.115  0.00  0.00    +0.000 A 
ATOM     14  F   UNL     1      -5.900  -4.453 131.127  0.00  0.00    +0.000 F 
ATOM     15  C   UNL     1      -7.621  -3.311 129.989  0.00  0.00    +0.000 A 
ATOM     16  C   UNL     1      -8.040  -2.608 128.862  0.00  0.00    +0.000 A 
ENDBRANCH   3  10
BRANCH   1  18
ATOM     17  C   UNL     1      -7.161   1.488 123.339  0.00  0.00    +0.000 C 
ATOM     18  C   UNL     1      -8.112   1.366 124.567  0.00  0.00    +0.000 C 
ATOM     19  C   UNL     1      -9.626   1.695 124.423  0.00  0.00    +0.000 C 
ENDBRANCH   1  18
BRANCH   2  20
ATOM     20  C   UNL     1      -6.724   0.798 127.319  0.00  0.00    +0.000 C 
ATOM     21  C   UNL     1      -5.462   1.231 127.269  0.00  0.00    +0.000 C 
BRANCH  21  22
ATOM     22  C   UNL     1      -4.733   2.166 128.142  0.00  0.00    +0.000 C 
BRANCH  22  23
ATOM     23  O   UNL     1      -3.784   1.406 128.863  0.00  0.00    +0.000 OA
ATOM     24  H   UNL     1      -4.237   0.616 129.202  0.00  0.00    +0.000 HD
ENDBRANCH  22  23
BRANCH  22  25
ATOM     25  C   UNL     1      -4.033   3.232 127.261  0.00  0.00    +0.000 C 
BRANCH  25  26
ATOM     26  C   UNL     1      -2.770   3.707 127.951  0.00  0.00    +0.000 C 
BRANCH  26  27
ATOM     27  O   UNL     1      -1.803   4.151 127.003  0.00  0.00    +0.000 OA
ATOM     28  H   UNL     1      -1.898   5.117 126.893  0.00  0.00    +0.000 HD
ENDBRANCH  26  27
BRANCH  26  29
ATOM     29  C   UNL     1      -2.996   4.858 128.908  0.00  0.00    +0.000 C 
BRANCH  29  30
ATOM     30  C   UNL     1      -3.008   6.196 128.208  0.00  0.00    +0.000 C 
ATOM     31  O   UNL     1      -1.975   6.865 128.082  0.00  0.00    +0.000 OA
BRANCH  30  32
ATOM     32  O   UNL     1      -4.185   6.639 127.728  0.00  0.00    +0.000 OA
ATOM     33  H   UNL     1      -4.591   6.062 127.039  0.00  0.00    +0.000 HD
ENDBRANCH  30  32
ENDBRANCH  29  30
ENDBRANCH  26  29
ENDBRANCH  25  26
ENDBRANCH  22  25
ENDBRANCH  21  22
ENDBRANCH   2  20
TORSDOF 11
ENDMDL
MODEL 5
REMARK VINA RESULT:      -7.6      3.658      6.835
REMARK  Name = Fluvastatin
REMARK  13 active torsions:
REMARK  status: ('A' for Active; 'I' for Inactive)
REMARK    1  A    between atoms: C_1  and  C_2
REMARK    2  A    between atoms: C_2  and  C_3
REMARK    3  A    between atoms: C_2  and  N_4
REMARK    4  A    between atoms: C_5  and  C_6
REMARK    5  A    between atoms: C_7  and  C_8
REMARK    6  A    between atoms: C_8  and  O_9
REMARK    7  A    between atoms: C_8  and  C_10
REMARK    8  A    between atoms: C_10  and  C_11
REMARK    9  A    between atoms: C_11  and  O_12
REMARK   10  A    between atoms: C_11  and  C_13
REMARK   11  A    between atoms: C_13  and  C_14
REMARK   12  A    between atoms: C_14  and  O_15
REMARK   13  A    between atoms: C_17  and  C_24
REMARK                            x       y       z     vdW  Elec       q    Type
REMARK                         _______ _______ _______ _____ _____    ______ ____
ROOT
ATOM      1  N   UNL     1      -7.516  -0.374 128.994  0.00  0.00    +0.000 N 
ATOM      2  C   UNL     1      -7.646   0.625 128.024  0.00  0.00    +0.000 A 
ATOM      3  C   UNL     1      -8.106  -0.023 126.879  0.00  0.00    +0.000 A 
ATOM      4  C   UNL     1      -8.305  -1.397 127.160  0.00  0.00    +0.000 A 
ATOM      5  C   UNL     1      -8.751  -2.484 126.377  0.00  0.00    +0.000 A 
ATOM      6  C   UNL     1      -8.823  -3.758 126.932  0.00  0.00    +0.000 A 
ATOM      7  C   UNL     1      -8.454  -3.960 128.256  0.00  0.00    +0.000 A 
ATOM      8  C   UNL     1      -8.006  -2.897 129.055  0.00  0.00    +0.000 A 
ATOM      9  C   UNL     1      -7.934  -1.607 128.488  0.00  0.00    +0.000 A 
ENDROOT
BRANCH   3  10
ATOM     10  C   UNL     1      -8.328   0.668 125.623  0.00  0.00    +0.000 A 
ATOM     11  C   UNL     1      -7.231   0.981 124.811  0.00  0.00    +0.000 A 
ATOM     12  C   UNL     1      -7.397   1.834 123.727  0.00  0.00    +0.000 A 
ATOM     13  C   UNL     1      -8.678   2.249 123.382  0.00  0.00    +0.000 A 
ATOM     14  F   UNL     1      -8.837   3.083 122.347  0.00  0.00    +0.000 F 
ATOM     15  C   UNL     1      -9.793   1.823 124.096  0.00  0.00    +0.000 A 
ATOM     16  C   UNL     1      -9.616   1.070 125.254  0.00  0.00    +0.000 A 
ENDBRANCH   3  10
BRANCH   1  18
ATOM     17  C   UNL     1      -5.488   0.347 130.200  0.00  0.00    +0.000 C 
ATOM     18  C   UNL     1      -6.936  -0.214 130.333  0.00  0.00    +0.000 C 
ATOM     19  C   UNL     1      -7.950   0.454 131.305  0.00  0.00    +0.000 C 
ENDBRANCH   1  18
BRANCH   2  20
ATOM     20  C   UNL     1      -7.371   2.031 128.191  0.00  0.00    +0.000 C 
ATOM     21  C   UNL     1      -8.194   2.969 128.668  0.00  0.00    +0.000 C 
BRANCH  21  22
ATOM     22  C   UNL     1      -8.013   4.423 128.808  0.00  0.00    +0.000 C 
BRANCH  22  23
ATOM     23  O   UNL     1      -8.602   5.025 127.672  0.00  0.00    +0.000 OA
ATOM     24  H   UNL     1      -8.558   4.384 126.943  0.00  0.00    +0.000 HD
ENDBRANCH  22  23
BRANCH  22  25
ATOM     25  C   UNL     1      -8.715   4.892 130.107  0.00  0.00    +0.000 C 
BRANCH  25  26
ATOM     26  C   UNL     1      -9.808   5.884 129.761  0.00  0.00    +0.000 C 
BRANCH  26  27
ATOM     27  O   UNL     1     -11.032   5.215 129.463  0.00  0.00    +0.000 OA
ATOM     28  H   UNL     1     -11.695   5.885 129.208  0.00  0.00    +0.000 HD
ENDBRANCH  26  27
BRANCH  26  29
ATOM     29  C   UNL     1     -10.112   6.867 130.871  0.00  0.00    +0.000 C 
BRANCH  29  30
ATOM     30  C   UNL     1     -11.093   6.315 131.877  0.00  0.00    +0.000 C 
ATOM     31  O   UNL     1     -12.313   6.466 131.736  0.00  0.00    +0.000 OA
BRANCH  30  32
ATOM     32  O   UNL     1     -10.594   5.654 132.939  0.00  0.00    +0.000 OA
ATOM     33  H   UNL     1     -10.974   5.927 133.808  0.00  0.00    +0.000 HD
ENDBRANCH  30  32
ENDBRANCH  29  30
ENDBRANCH  26  29
ENDBRANCH  25  26
ENDBRANCH  22  25
ENDBRANCH  21  22
ENDBRANCH   2  20
TORSDOF 11
ENDMDL
MODEL 6
REMARK VINA RESULT:      -7.5      2.465      4.694
REMARK  Name = Fluvastatin
REMARK  13 active torsions:
REMARK  status: ('A' for Active; 'I' for Inactive)
REMARK    1  A    between atoms: C_1  and  C_2
REMARK    2  A    between atoms: C_2  and  C_3
REMARK    3  A    between atoms: C_2  and  N_4
REMARK    4  A    between atoms: C_5  and  C_6
REMARK    5  A    between atoms: C_7  and  C_8
REMARK    6  A    between atoms: C_8  and  O_9
REMARK    7  A    between atoms: C_8  and  C_10
REMARK    8  A    between atoms: C_10  and  C_11
REMARK    9  A    between atoms: C_11  and  O_12
REMARK   10  A    between atoms: C_11  and  C_13
REMARK   11  A    between atoms: C_13  and  C_14
REMARK   12  A    between atoms: C_14  and  O_15
REMARK   13  A    between atoms: C_17  and  C_24
REMARK                            x       y       z     vdW  Elec       q    Type
REMARK                         _______ _______ _______ _____ _____    ______ ____
ROOT
ATOM      1  N   UNL     1      -7.435   0.446 128.528  0.00  0.00    +0.000 N 
ATOM      2  C   UNL     1      -7.520   0.376 127.134  0.00  0.00    +0.000 A 
ATOM      3  C   UNL     1      -7.618  -0.982 126.833  0.00  0.00    +0.000 A 
ATOM      4  C   UNL     1      -7.644  -1.733 128.034  0.00  0.00    +0.000 A 
ATOM      5  C   UNL     1      -7.732  -3.116 128.301  0.00  0.00    +0.000 A 
ATOM      6  C   UNL     1      -7.709  -3.574 129.615  0.00  0.00    +0.000 A 
ATOM      7  C   UNL     1      -7.599  -2.669 130.663  0.00  0.00    +0.000 A 
ATOM      8  C   UNL     1      -7.507  -1.289 130.425  0.00  0.00    +0.000 A 
ATOM      9  C   UNL     1      -7.531  -0.830 129.091  0.00  0.00    +0.000 A 
ENDROOT
BRANCH   3  10
ATOM     10  C   UNL     1      -7.682  -1.480 125.472  0.00  0.00    +0.000 A 
ATOM     11  C   UNL     1      -6.516  -1.502 124.696  0.00  0.00    +0.000 A 
ATOM     12  C   UNL     1      -6.600  -1.758 123.333  0.00  0.00    +0.000 A 
ATOM     13  C   UNL     1      -7.823  -2.129 122.788  0.00  0.00    +0.000 A 
ATOM     14  F   UNL     1      -7.909  -2.362 121.473  0.00  0.00    +0.000 F 
ATOM     15  C   UNL     1      -8.960  -2.254 123.580  0.00  0.00    +0.000 A 
ATOM     16  C   UNL     1      -8.904  -1.878 124.921  0.00  0.00    +0.000 A 
ENDBRANCH   3  10
BRANCH   1  18
ATOM     17  C   UNL     1      -8.460   2.005 130.142  0.00  0.00    +0.000 C 
ATOM     18  C   UNL     1      -7.182   1.654 129.323  0.00  0.00    +0.000 C 
ATOM     19  C   UNL     1      -5.796   1.579 130.026  0.00  0.00    +0.000 C 
ENDBRANCH   1  18
BRANCH   2  20
ATOM     20  C   UNL     1      -7.520   1.486 126.212  0.00  0.00    +0.000 C 
ATOM     21  C   UNL     1      -8.578   2.066 125.640  0.00  0.00    +0.000 C 
BRANCH  21  22
ATOM     22  C   UNL     1      -8.657   3.151 124.647  0.00  0.00    +0.000 C 
BRANCH  22  23
ATOM     23  O   UNL     1      -8.966   4.336 125.353  0.00  0.00    +0.000 OA
ATOM     24  H   UNL     1      -8.656   5.086 124.818  0.00  0.00    +0.000 HD
ENDBRANCH  22  23
BRANCH  22  25
ATOM     25  C   UNL     1      -7.288   3.275 123.931  0.00  0.00    +0.000 C 
BRANCH  25  26
ATOM     26  C   UNL     1      -7.457   2.947 122.461  0.00  0.00    +0.000 C 
BRANCH  26  27
ATOM     27  O   UNL     1      -8.254   3.930 121.804  0.00  0.00    +0.000 OA
ATOM     28  H   UNL     1      -8.727   4.449 122.483  0.00  0.00    +0.000 HD
ENDBRANCH  26  27
BRANCH  26  29
ATOM     29  C   UNL     1      -6.150   2.873 121.700  0.00  0.00    +0.000 C 
BRANCH  29  30
ATOM     30  C   UNL     1      -5.815   4.169 121.001  0.00  0.00    +0.000 C 
ATOM     31  O   UNL     1      -5.125   5.036 121.550  0.00  0.00    +0.000 OA
BRANCH  30  32
ATOM     32  O   UNL     1      -6.299   4.350 119.757  0.00  0.00    +0.000 OA
ATOM     33  H   UNL     1      -6.354   5.293 119.472  0.00  0.00    +0.000 HD
ENDBRANCH  30  32
ENDBRANCH  29  30
ENDBRANCH  26  29
ENDBRANCH  25  26
ENDBRANCH  22  25
ENDBRANCH  21  22
ENDBRANCH   2  20
TORSDOF 11
ENDMDL
MODEL 7
REMARK VINA RESULT:      -7.5      3.114      5.169
REMARK  Name = Fluvastatin
REMARK  13 active torsions:
REMARK  status: ('A' for Active; 'I' for Inactive)
REMARK    1  A    between atoms: C_1  and  C_2
REMARK    2  A    between atoms: C_2  and  C_3
REMARK    3  A    between atoms: C_2  and  N_4
REMARK    4  A    between atoms: C_5  and  C_6
REMARK    5  A    between atoms: C_7  and  C_8
REMARK    6  A    between atoms: C_8  and  O_9
REMARK    7  A    between atoms: C_8  and  C_10
REMARK    8  A    between atoms: C_10  and  C_11
REMARK    9  A    between atoms: C_11  and  O_12
REMARK   10  A    between atoms: C_11  and  C_13
REMARK   11  A    between atoms: C_13  and  C_14
REMARK   12  A    between atoms: C_14  and  O_15
REMARK   13  A    between atoms: C_17  and  C_24
REMARK                            x       y       z     vdW  Elec       q    Type
REMARK                         _______ _______ _______ _____ _____    ______ ____
ROOT
ATOM      1  N   UNL     1      -7.953   0.043 125.179  0.00  0.00    +0.000 N 
ATOM      2  C   UNL     1      -7.385  -0.168 126.440  0.00  0.00    +0.000 A 
ATOM      3  C   UNL     1      -7.523  -1.533 126.689  0.00  0.00    +0.000 A 
ATOM      4  C   UNL     1      -8.124  -2.160 125.570  0.00  0.00    +0.000 A 
ATOM      5  C   UNL     1      -8.484  -3.497 125.297  0.00  0.00    +0.000 A 
ATOM      6  C   UNL     1      -9.099  -3.820 124.091  0.00  0.00    +0.000 A 
ATOM      7  C   UNL     1      -9.357  -2.825 123.156  0.00  0.00    +0.000 A 
ATOM      8  C   UNL     1      -9.011  -1.488 123.404  0.00  0.00    +0.000 A 
ATOM      9  C   UNL     1      -8.389  -1.166 124.629  0.00  0.00    +0.000 A 
ENDROOT
BRANCH   3  10
ATOM     10  C   UNL     1      -7.091  -2.150 127.928  0.00  0.00    +0.000 A 
ATOM     11  C   UNL     1      -5.727  -2.391 128.134  0.00  0.00    +0.000 A 
ATOM     12  C   UNL     1      -5.319  -3.180 129.202  0.00  0.00    +0.000 A 
ATOM     13  C   UNL     1      -6.262  -3.600 130.132  0.00  0.00    +0.000 A 
ATOM     14  F   UNL     1      -5.873  -4.372 131.154  0.00  0.00    +0.000 F 
ATOM     15  C   UNL     1      -7.601  -3.241 130.017  0.00  0.00    +0.000 A 
ATOM     16  C   UNL     1      -8.030  -2.556 128.882  0.00  0.00    +0.000 A 
ENDBRANCH   3  10
BRANCH   1  18
ATOM     17  C   UNL     1      -7.208   1.476 123.315  0.00  0.00    +0.000 C 
ATOM     18  C   UNL     1      -8.172   1.341 124.531  0.00  0.00    +0.000 C 
ATOM     19  C   UNL     1      -9.691   1.633 124.365  0.00  0.00    +0.000 C 
ENDBRANCH   1  18
BRANCH   2  20
ATOM     20  C   UNL     1      -6.773   0.826 127.288  0.00  0.00    +0.000 C 
ATOM     21  C   UNL     1      -5.507   1.250 127.260  0.00  0.00    +0.000 C 
BRANCH  21  22
ATOM     22  C   UNL     1      -4.796   2.205 128.126  0.00  0.00    +0.000 C 
BRANCH  22  23
ATOM     23  O   UNL     1      -3.716   1.506 128.713  0.00  0.00    +0.000 OA
ATOM     24  H   UNL     1      -3.222   1.074 127.997  0.00  0.00    +0.000 HD
ENDBRANCH  22  23
BRANCH  22  25
ATOM     25  C   UNL     1      -4.285   3.383 127.258  0.00  0.00    +0.000 C 
BRANCH  25  26
ATOM     26  C   UNL     1      -5.350   4.459 127.192  0.00  0.00    +0.000 C 
BRANCH  26  27
ATOM     27  O   UNL     1      -4.779   5.757 127.343  0.00  0.00    +0.000 OA
ATOM     28  H   UNL     1      -4.992   6.087 128.237  0.00  0.00    +0.000 HD
ENDBRANCH  26  27
BRANCH  26  29
ATOM     29  C   UNL     1      -6.119   4.476 125.888  0.00  0.00    +0.000 C 
BRANCH  29  30
ATOM     30  C   UNL     1      -7.613   4.550 126.101  0.00  0.00    +0.000 C 
ATOM     31  O   UNL     1      -8.149   4.028 127.086  0.00  0.00    +0.000 OA
BRANCH  30  32
ATOM     32  O   UNL     1      -8.344   5.201 125.177  0.00  0.00    +0.000 OA
ATOM     33  H   UNL     1      -7.944   5.220 124.275  0.00  0.00    +0.000 HD
ENDBRANCH  30  32
ENDBRANCH  29  30
ENDBRANCH  26  29
ENDBRANCH  25  26
ENDBRANCH  22  25
ENDBRANCH  21  22
ENDBRANCH   2  20
TORSDOF 11
ENDMDL
MODEL 8
REMARK VINA RESULT:      -7.4      3.792      7.060
REMARK  Name = Fluvastatin
REMARK  13 active torsions:
REMARK  status: ('A' for Active; 'I' for Inactive)
REMARK    1  A    between atoms: C_1  and  C_2
REMARK    2  A    between atoms: C_2  and  C_3
REMARK    3  A    between atoms: C_2  and  N_4
REMARK    4  A    between atoms: C_5  and  C_6
REMARK    5  A    between atoms: C_7  and  C_8
REMARK    6  A    between atoms: C_8  and  O_9
REMARK    7  A    between atoms: C_8  and  C_10
REMARK    8  A    between atoms: C_10  and  C_11
REMARK    9  A    between atoms: C_11  and  O_12
REMARK   10  A    between atoms: C_11  and  C_13
REMARK   11  A    between atoms: C_13  and  C_14
REMARK   12  A    between atoms: C_14  and  O_15
REMARK   13  A    between atoms: C_17  and  C_24
REMARK                            x       y       z     vdW  Elec       q    Type
REMARK                         _______ _______ _______ _____ _____    ______ ____
ROOT
ATOM      1  N   UNL     1      -7.563   0.408 124.933  0.00  0.00    +0.000 N 
ATOM      2  C   UNL     1      -7.681   0.145 126.302  0.00  0.00    +0.000 A 
ATOM      3  C   UNL     1      -7.159  -1.134 126.484  0.00  0.00    +0.000 A 
ATOM      4  C   UNL     1      -6.679  -1.630 125.247  0.00  0.00    +0.000 A 
ATOM      5  C   UNL     1      -6.066  -2.845 124.871  0.00  0.00    +0.000 A 
ATOM      6  C   UNL     1      -5.718  -3.068 123.542  0.00  0.00    +0.000 A 
ATOM      7  C   UNL     1      -5.974  -2.093 122.586  0.00  0.00    +0.000 A 
ATOM      8  C   UNL     1      -6.584  -0.877 122.933  0.00  0.00    +0.000 A 
ATOM      9  C   UNL     1      -6.936  -0.657 124.281  0.00  0.00    +0.000 A 
ENDROOT
BRANCH   3  10
ATOM     10  C   UNL     1      -7.138  -1.796 127.775  0.00  0.00    +0.000 A 
ATOM     11  C   UNL     1      -8.100  -2.775 128.057  0.00  0.00    +0.000 A 
ATOM     12  C   UNL     1      -8.237  -3.253 129.354  0.00  0.00    +0.000 A 
ATOM     13  C   UNL     1      -7.324  -2.855 130.322  0.00  0.00    +0.000 A 
ATOM     14  F   UNL     1      -7.464  -3.303 131.576  0.00  0.00    +0.000 F 
ATOM     15  C   UNL     1      -6.274  -1.995 130.016  0.00  0.00    +0.000 A 
ATOM     16  C   UNL     1      -6.209  -1.420 128.749  0.00  0.00    +0.000 A 
ENDBRANCH   3  10
BRANCH   1  18
ATOM     17  C   UNL     1      -6.917   2.396 123.623  0.00  0.00    +0.000 C 
ATOM     18  C   UNL     1      -8.098   1.576 124.223  0.00  0.00    +0.000 C 
ATOM     19  C   UNL     1      -9.312   1.182 123.334  0.00  0.00    +0.000 C 
ENDBRANCH   1  18
BRANCH   2  20
ATOM     20  C   UNL     1      -8.219   1.030 127.307  0.00  0.00    +0.000 C 
ATOM     21  C   UNL     1      -7.639   2.113 127.830  0.00  0.00    +0.000 C 
BRANCH  21  22
ATOM     22  C   UNL     1      -8.091   3.022 128.897  0.00  0.00    +0.000 C 
BRANCH  22  23
ATOM     23  O   UNL     1      -8.622   4.170 128.265  0.00  0.00    +0.000 OA
ATOM     24  H   UNL     1      -8.013   4.420 127.550  0.00  0.00    +0.000 HD
ENDBRANCH  22  23
BRANCH  22  25
ATOM     25  C   UNL     1      -9.174   2.305 129.741  0.00  0.00    +0.000 C 
BRANCH  25  26
ATOM     26  C   UNL     1      -9.754   3.277 130.749  0.00  0.00    +0.000 C 
BRANCH  26  27
ATOM     27  O   UNL     1     -10.785   2.663 131.520  0.00  0.00    +0.000 OA
ATOM     28  H   UNL     1     -10.383   2.281 132.324  0.00  0.00    +0.000 HD
ENDBRANCH  26  27
BRANCH  26  29
ATOM     29  C   UNL     1      -8.737   3.811 131.735  0.00  0.00    +0.000 C 
BRANCH  29  30
ATOM     30  C   UNL     1      -8.957   3.282 133.132  0.00  0.00    +0.000 C 
ATOM     31  O   UNL     1      -8.409   2.244 133.521  0.00  0.00    +0.000 OA
BRANCH  30  32
ATOM     32  O   UNL     1      -9.775   3.980 133.943  0.00  0.00    +0.000 OA
ATOM     33  H   UNL     1      -9.313   4.580 134.575  0.00  0.00    +0.000 HD
ENDBRANCH  30  32
ENDBRANCH  29  30
ENDBRANCH  26  29
ENDBRANCH  25  26
ENDBRANCH  22  25
ENDBRANCH  21  22
ENDBRANCH   2  20
TORSDOF 11
ENDMDL
MODEL 9
REMARK VINA RESULT:      -7.4      3.965      6.999
REMARK  Name = Fluvastatin
REMARK  13 active torsions:
REMARK  status: ('A' for Active; 'I' for Inactive)
REMARK    1  A    between atoms: C_1  and  C_2
REMARK    2  A    between atoms: C_2  and  C_3
REMARK    3  A    between atoms: C_2  and  N_4
REMARK    4  A    between atoms: C_5  and  C_6
REMARK    5  A    between atoms: C_7  and  C_8
REMARK    6  A    between atoms: C_8  and  O_9
REMARK    7  A    between atoms: C_8  and  C_10
REMARK    8  A    between atoms: C_10  and  C_11
REMARK    9  A    between atoms: C_11  and  O_12
REMARK   10  A    between atoms: C_11  and  C_13
REMARK   11  A    between atoms: C_13  and  C_14
REMARK   12  A    between atoms: C_14  and  O_15
REMARK   13  A    between atoms: C_17  and  C_24
REMARK                            x       y       z     vdW  Elec       q    Type
REMARK                         _______ _______ _______ _____ _____    ______ ____
ROOT
ATOM      1  N   UNL     1      -7.210   2.274 124.079  0.00  0.00    +0.000 N 
ATOM      2  C   UNL     1      -6.608   2.536 125.314  0.00  0.00    +0.000 A 
ATOM      3  C   UNL     1      -5.572   3.429 125.044  0.00  0.00    +0.000 A 
ATOM      4  C   UNL     1      -5.572   3.750 123.664  0.00  0.00    +0.000 A 
ATOM      5  C   UNL     1      -4.757   4.587 122.872  0.00  0.00    +0.000 A 
ATOM      6  C   UNL     1      -4.984   4.687 121.503  0.00  0.00    +0.000 A 
ATOM      7  C   UNL     1      -6.014   3.962 120.916  0.00  0.00    +0.000 A 
ATOM      8  C   UNL     1      -6.837   3.121 121.680  0.00  0.00    +0.000 A 
ATOM      9  C   UNL     1      -6.602   3.022 123.068  0.00  0.00    +0.000 A 
ENDROOT
BRANCH   3  10
ATOM     10  C   UNL     1      -4.670   3.917 126.070  0.00  0.00    +0.000 A 
ATOM     11  C   UNL     1      -5.010   5.071 126.786  0.00  0.00    +0.000 A 
ATOM     12  C   UNL     1      -4.066   5.678 127.605  0.00  0.00    +0.000 A 
ATOM     13  C   UNL     1      -2.843   5.049 127.809  0.00  0.00    +0.000 A 
ATOM     14  F   UNL     1      -1.927   5.640 128.585  0.00  0.00    +0.000 F 
ATOM     15  C   UNL     1      -2.552   3.825 127.216  0.00  0.00    +0.000 A 
ATOM     16  C   UNL     1      -3.448   3.279 126.300  0.00  0.00    +0.000 A 
ENDBRANCH   3  10
BRANCH   1  18
ATOM     17  C   UNL     1      -7.745  -0.131 124.199  0.00  0.00    +0.000 C 
ATOM     18  C   UNL     1      -8.265   1.287 123.819  0.00  0.00    +0.000 C 
ATOM     19  C   UNL     1      -9.640   1.788 124.349  0.00  0.00    +0.000 C 
ENDBRANCH   1  18
BRANCH   2  20
ATOM     20  C   UNL     1      -6.998   2.000 126.595  0.00  0.00    +0.000 C 
ATOM     21  C   UNL     1      -7.867   2.522 127.464  0.00  0.00    +0.000 C 
BRANCH  21  22
ATOM     22  C   UNL     1      -8.266   2.074 128.809  0.00  0.00    +0.000 C 
BRANCH  22  23
ATOM     23  O   UNL     1      -7.087   1.677 129.481  0.00  0.00    +0.000 OA
ATOM     24  H   UNL     1      -6.682   2.476 129.859  0.00  0.00    +0.000 HD
ENDBRANCH  22  23
BRANCH  22  25
ATOM     25  C   UNL     1      -8.953   3.252 129.546  0.00  0.00    +0.000 C 
BRANCH  25  26
ATOM     26  C   UNL     1      -8.229   4.543 129.217  0.00  0.00    +0.000 C 
BRANCH  26  27
ATOM     27  O   UNL     1      -9.131   5.520 128.702  0.00  0.00    +0.000 OA
ATOM     28  H   UNL     1      -9.610   5.129 127.946  0.00  0.00    +0.000 HD
ENDBRANCH  26  27
BRANCH  26  29
ATOM     29  C   UNL     1      -7.542   5.176 130.409  0.00  0.00    +0.000 C 
BRANCH  29  30
ATOM     30  C   UNL     1      -8.186   6.478 130.821  0.00  0.00    +0.000 C 
ATOM     31  O   UNL     1      -7.746   7.565 130.428  0.00  0.00    +0.000 OA
BRANCH  30  32
ATOM     32  O   UNL     1      -9.256   6.416 131.636  0.00  0.00    +0.000 OA
ATOM     33  H   UNL     1      -9.423   5.525 132.026  0.00  0.00    +0.000 HD
ENDBRANCH  30  32
ENDBRANCH  29  30
ENDBRANCH  26  29
ENDBRANCH  25  26
ENDBRANCH  22  25
ENDBRANCH  21  22
ENDBRANCH   2  20
TORSDOF 11
ENDMDL
