MODEL 1
REMARK VINA RESULT:      -8.0      0.000      0.000
REMARK  Name = Folic acid
REMARK  11 active torsions:
REMARK  status: ('A' for Active; 'I' for Inactive)
REMARK    1  A    between atoms: C_8  and  C_9
REMARK    2  A    between atoms: C_9  and  N_10
REMARK    3  A    between atoms: N_10  and  C_11
REMARK    4  A    between atoms: C_14  and  C_17
REMARK    5  A    between atoms: N_19  and  CA_20
REMARK    6  A    between atoms: CA_20  and  CB_21
REMARK    7  A    between atoms: CA_20  and  C_26
REMARK    8  A    between atoms: CB_21  and  CG_22
REMARK    9  A    between atoms: CG_22  and  CD_23
REMARK   10  A    between atoms: CD_23  and  OE1_24
REMARK   11  A    between atoms: C_26  and  O_27
REMARK                            x       y       z     vdW  Elec       q    Type
REMARK                         _______ _______ _______ _____ _____    ______ ____
ROOT
ATOM      1  C   UNK A   0      -4.675   5.897 130.483  0.00  0.00    +0.000 A 
ATOM      2  C   UNK A   0      -5.580   4.861 130.734  0.00  0.00    +0.000 A 
ATOM      3  C   UNK A   0      -6.937   5.122 130.912  0.00  0.00    +0.000 A 
ATOM      4  C   UNK A   0      -7.404   6.443 130.887  0.00  0.00    +0.000 A 
ATOM      5  C   UNK A   0      -6.498   7.482 130.667  0.00  0.00    +0.000 A 
ATOM      6  C   UNK A   0      -5.145   7.208 130.462  0.00  0.00    +0.000 A 
ENDROOT
BRANCH   4   7
ATOM      7  C   UNK A   0      -8.859   6.681 131.096  0.00  0.00    +0.000 C 
ATOM      8  O   UNK A   0      -9.323   6.566 132.223  0.00  0.00    +0.000 OA
ATOM      9  N   GLU A   1      -9.604   7.077 129.996  0.00  0.00    +0.000 N 
ATOM     10  H   GLU A   1      -9.144   7.069 129.111  0.00  0.00    +0.000 HD
BRANCH   9  11
ATOM     11  CA  GLU A   1     -10.996   7.556 130.092  0.00  0.00    +0.000 C 
BRANCH  11  12
ATOM     12  C   GLU A   1     -12.064   6.461 130.359  0.00  0.00    +0.000 C 
ATOM     13  OXT GLU A   1     -12.633   6.345 131.439  0.00  0.00    +0.000 OA
BRANCH  12  14
ATOM     14  O   GLU A   1     -12.408   5.656 129.332  0.00  0.00    +0.000 OA
ATOM     15  H   GLU A   1     -11.872   5.663 128.527  0.00  0.00    +0.000 HD
ENDBRANCH  12  14
ENDBRANCH  11  12
BRANCH  11  16
ATOM     16  CB  GLU A   1     -11.454   8.295 128.806  0.00  0.00    +0.000 C 
BRANCH  16  17
ATOM     17  CG  GLU A   1     -10.497   8.163 127.625  0.00  0.00    +0.000 C 
BRANCH  17  18
ATOM     18  CD  GLU A   1     -10.650   7.009 126.676  0.00  0.00    +0.000 C 
ATOM     19  OE2 GLU A   1      -9.688   6.344 126.314  0.00  0.00    +0.000 OA
BRANCH  18  20
ATOM     20  OE1 GLU A   1     -11.902   6.702 126.297  0.00  0.00    +0.000 OA
ATOM     21  HE1 GLU A   1     -12.565   7.405 126.399  0.00  0.00    +0.000 HD
ENDBRANCH  18  20
ENDBRANCH  17  18
ENDBRANCH  16  17
ENDBRANCH  11  16
ENDBRANCH   9  11
ENDBRANCH   4   7
BRANCH   1  22
ATOM     22  N   UNK A   0      -3.364   5.549 130.235  0.00  0.00    +0.000 N 
ATOM     23  H   UNK A   0      -2.997   4.969 130.978  0.00  0.00    +0.000 HD
BRANCH  22  24
ATOM     24  C   UNK A   0      -2.786   5.475 128.898  0.00  0.00    +0.000 C 
BRANCH  24  32
ATOM     25  N   UNK A   0      -7.136   1.856 123.686  0.00  0.00    +0.000 N 
ATOM     26  C   UNK A   0      -6.483   2.721 124.485  0.00  0.00    +0.000 A 
ATOM     27  N   UNK A   0      -6.714   3.991 124.379  0.00  0.00    +0.000 NA
ATOM     28  C   UNK A   0      -6.031   4.865 125.207  0.00  0.00    +0.000 A 
ATOM     29  O   UNK A   0      -6.207   6.082 125.141  0.00  0.00    +0.000 OA
ATOM     30  C   UNK A   0      -5.067   4.330 126.212  0.00  0.00    +0.000 A 
ATOM     31  N   UNK A   0      -4.395   5.175 127.054  0.00  0.00    +0.000 NA
ATOM     32  C   UNK A   0      -3.554   4.579 127.940  0.00  0.00    +0.000 A 
ATOM     33  C   UNK A   0      -3.440   3.188 127.956  0.00  0.00    +0.000 A 
ATOM     34  N   UNK A   0      -4.099   2.353 127.116  0.00  0.00    +0.000 NA
ATOM     35  C   UNK A   0      -4.919   2.949 126.233  0.00  0.00    +0.000 A 
ATOM     36  N   UNK A   0      -5.621   2.149 125.349  0.00  0.00    +0.000 N 
ATOM     37  H   UNK A   0      -7.806   2.251 123.036  0.00  0.00    +0.000 HD
ATOM     38  H   UNK A   0      -7.037   0.853 123.716  0.00  0.00    +0.000 HD
ATOM     39  H   UNK A   0      -5.452   1.160 125.419  0.00  0.00    +0.000 HD
ENDBRANCH  24  32
ENDBRANCH  22  24
ENDBRANCH   1  22
TORSDOF 11
ENDMDL
MODEL 2
REMARK VINA RESULT:      -7.9      2.333      3.553
REMARK  Name = Folic acid
REMARK  11 active torsions:
REMARK  status: ('A' for Active; 'I' for Inactive)
REMARK    1  A    between atoms: C_8  and  C_9
REMARK    2  A    between atoms: C_9  and  N_10
REMARK    3  A    between atoms: N_10  and  C_11
REMARK    4  A    between atoms: C_14  and  C_17
REMARK    5  A    between atoms: N_19  and  CA_20
REMARK    6  A    between atoms: CA_20  and  CB_21
REMARK    7  A    between atoms: CA_20  and  C_26
REMARK    8  A    between atoms: CB_21  and  CG_22
REMARK    9  A    between atoms: CG_22  and  CD_23
REMARK   10  A    between atoms: CD_23  and  OE1_24
REMARK   11  A    between atoms: C_26  and  O_27
REMARK                            x       y       z     vdW  Elec       q    Type
REMARK                         _______ _______ _______ _____ _____    ______ ____
ROOT
ATOM      1  C   UNK A   0      -6.842   2.365 128.985  0.00  0.00    +0.000 A 
ATOM      2  C   UNK A   0      -6.251   3.619 129.174  0.00  0.00    +0.000 A 
ATOM      3  C   UNK A   0      -6.993   4.695 129.654  0.00  0.00    +0.000 A 
ATOM      4  C   UNK A   0      -8.362   4.542 129.910  0.00  0.00    +0.000 A 
ATOM      5  C   UNK A   0      -8.961   3.301 129.693  0.00  0.00    +0.000 A 
ATOM      6  C   UNK A   0      -8.204   2.221 129.238  0.00  0.00    +0.000 A 
ENDROOT
BRANCH   4   7
ATOM      7  C   UNK A   0      -9.123   5.721 130.409  0.00  0.00    +0.000 C 
ATOM      8  O   UNK A   0      -8.632   6.415 131.290  0.00  0.00    +0.000 OA
ATOM      9  N   GLU A   1     -10.337   6.000 129.801  0.00  0.00    +0.000 N 
ATOM     10  H   GLU A   1     -10.679   5.330 129.145  0.00  0.00    +0.000 HD
BRANCH   9  11
ATOM     11  CA  GLU A   1     -11.093   7.245 130.034  0.00  0.00    +0.000 C 
BRANCH  11  12
ATOM     12  C   GLU A   1     -12.193   7.165 131.128  0.00  0.00    +0.000 C 
ATOM     13  OXT GLU A   1     -13.085   8.000 131.226  0.00  0.00    +0.000 OA
BRANCH  12  14
ATOM     14  O   GLU A   1     -12.183   6.096 131.951  0.00  0.00    +0.000 OA
ATOM     15  H   GLU A   1     -12.690   5.309 131.708  0.00  0.00    +0.000 HD
ENDBRANCH  12  14
ENDBRANCH  11  12
BRANCH  11  16
ATOM     16  CB  GLU A   1     -11.802   7.753 128.751  0.00  0.00    +0.000 C 
BRANCH  16  17
ATOM     17  CG  GLU A   1     -10.866   8.349 127.705  0.00  0.00    +0.000 C 
BRANCH  17  18
ATOM     18  CD  GLU A   1     -10.495   7.538 126.496  0.00  0.00    +0.000 C 
ATOM     19  OE2 GLU A   1      -9.964   6.440 126.597  0.00  0.00    +0.000 OA
BRANCH  18  20
ATOM     20  OE1 GLU A   1     -10.837   8.048 125.301  0.00  0.00    +0.000 OA
ATOM     21  HE1 GLU A   1     -10.133   8.079 124.631  0.00  0.00    +0.000 HD
ENDBRANCH  18  20
ENDBRANCH  17  18
ENDBRANCH  16  17
ENDBRANCH  11  16
ENDBRANCH   9  11
ENDBRANCH   4   7
BRANCH   1  22
ATOM     22  N   UNK A   0      -6.022   1.330 128.586  0.00  0.00    +0.000 N 
ATOM     23  H   UNK A   0      -5.507   0.953 129.371  0.00  0.00    +0.000 HD
BRANCH  22  24
ATOM     24  C   UNK A   0      -6.281   0.498 127.416  0.00  0.00    +0.000 C 
BRANCH  24  32
ATOM     25  N   UNK A   0      -8.710   3.867 120.939  0.00  0.00    +0.000 N 
ATOM     26  C   UNK A   0      -8.526   3.137 122.056  0.00  0.00    +0.000 A 
ATOM     27  N   UNK A   0      -9.401   2.242 122.388  0.00  0.00    +0.000 NA
ATOM     28  C   UNK A   0      -9.197   1.504 123.541  0.00  0.00    +0.000 A 
ATOM     29  O   UNK A   0     -10.003   0.647 123.906  0.00  0.00    +0.000 OA
ATOM     30  C   UNK A   0      -7.971   1.736 124.359  0.00  0.00    +0.000 A 
ATOM     31  N   UNK A   0      -7.739   1.003 125.493  0.00  0.00    +0.000 NA
ATOM     32  C   UNK A   0      -6.584   1.286 126.152  0.00  0.00    +0.000 A 
ATOM     33  C   UNK A   0      -5.720   2.258 125.646  0.00  0.00    +0.000 A 
ATOM     34  N   UNK A   0      -5.955   2.988 124.528  0.00  0.00    +0.000 NA
ATOM     35  C   UNK A   0      -7.105   2.715 123.888  0.00  0.00    +0.000 A 
ATOM     36  N   UNK A   0      -7.401   3.427 122.739  0.00  0.00    +0.000 N 
ATOM     37  H   UNK A   0      -9.538   3.663 120.391  0.00  0.00    +0.000 HD
ATOM     38  H   UNK A   0      -8.071   4.565 120.593  0.00  0.00    +0.000 HD
ATOM     39  H   UNK A   0      -6.730   4.126 122.468  0.00  0.00    +0.000 HD
ENDBRANCH  24  32
ENDBRANCH  22  24
ENDBRANCH   1  22
TORSDOF 11
ENDMDL
MODEL 3
REMARK VINA RESULT:      -7.9      4.206      5.078
REMARK  Name = Folic acid
REMARK  11 active torsions:
REMARK  status: ('A' for Active; 'I' for Inactive)
REMARK    1  A    between atoms: C_8  and  C_9
REMARK    2  A    between atoms: C_9  and  N_10
REMARK    3  A    between atoms: N_10  and  C_11
REMARK    4  A    between atoms: C_14  and  C_17
REMARK    5  A    between atoms: N_19  and  CA_20
REMARK    6  A    between atoms: CA_20  and  CB_21
REMARK    7  A    between atoms: CA_20  and  C_26
REMARK    8  A    between atoms: CB_21  and  CG_22
REMARK    9  A    between atoms: CG_22  and  CD_23
REMARK   10  A    between atoms: CD_23  and  OE1_24
REMARK   11  A    between atoms: C_26  and  O_27
REMARK                            x       y       z     vdW  Elec       q    Type
REMARK                         _______ _______ _______ _____ _____    ______ ____
ROOT
ATOM      1  C   UNK A   0      -8.546   1.156 130.780  0.00  0.00    +0.000 A 
ATOM      2  C   UNK A   0      -9.064   1.549 132.018  0.00  0.00    +0.000 A 
ATOM      3  C   UNK A   0      -9.640   2.806 132.187  0.00  0.00    +0.000 A 
ATOM      4  C   UNK A   0      -9.662   3.714 131.120  0.00  0.00    +0.000 A 
ATOM      5  C   UNK A   0      -9.118   3.335 129.891  0.00  0.00    +0.000 A 
ATOM      6  C   UNK A   0      -8.569   2.063 129.725  0.00  0.00    +0.000 A 
ENDROOT
BRANCH   4   7
ATOM      7  C   UNK A   0     -10.274   5.053 131.345  0.00  0.00    +0.000 C 
ATOM      8  O   UNK A   0     -10.226   5.546 132.464  0.00  0.00    +0.000 OA
ATOM      9  N   GLU A   1     -10.822   5.696 130.246  0.00  0.00    +0.000 N 
ATOM     10  H   GLU A   1     -10.874   5.175 129.396  0.00  0.00    +0.000 HD
BRANCH   9  11
ATOM     11  CA  GLU A   1     -11.263   7.103 130.268  0.00  0.00    +0.000 C 
BRANCH  11  12
ATOM     12  C   GLU A   1     -12.800   7.323 130.267  0.00  0.00    +0.000 C 
ATOM     13  OXT GLU A   1     -13.462   7.341 129.235  0.00  0.00    +0.000 OA
BRANCH  12  14
ATOM     14  O   GLU A   1     -13.419   7.434 131.461  0.00  0.00    +0.000 OA
ATOM     15  H   GLU A   1     -12.981   7.095 132.253  0.00  0.00    +0.000 HD
ENDBRANCH  12  14
ENDBRANCH  11  12
BRANCH  11  16
ATOM     16  CB  GLU A   1     -10.715   7.912 129.062  0.00  0.00    +0.000 C 
BRANCH  16  17
ATOM     17  CG  GLU A   1     -10.413   7.074 127.824  0.00  0.00    +0.000 C 
BRANCH  17  18
ATOM     18  CD  GLU A   1     -11.208   7.296 126.569  0.00  0.00    +0.000 C 
ATOM     19  OE2 GLU A   1     -10.791   8.005 125.662  0.00  0.00    +0.000 OA
BRANCH  18  20
ATOM     20  OE1 GLU A   1     -12.367   6.625 126.463  0.00  0.00    +0.000 OA
ATOM     21  HE1 GLU A   1     -13.118   6.985 126.963  0.00  0.00    +0.000 HD
ENDBRANCH  18  20
ENDBRANCH  17  18
ENDBRANCH  16  17
ENDBRANCH  11  16
ENDBRANCH   9  11
ENDBRANCH   4   7
BRANCH   1  22
ATOM     22  N   UNK A   0      -8.069  -0.134 130.672  0.00  0.00    +0.000 N 
ATOM     23  H   UNK A   0      -8.747  -0.802 131.015  0.00  0.00    +0.000 HD
BRANCH  22  24
ATOM     24  C   UNK A   0      -7.069  -0.547 129.693  0.00  0.00    +0.000 C 
BRANCH  24  32
ATOM     25  N   UNK A   0      -9.963  -3.539 123.223  0.00  0.00    +0.000 N 
ATOM     26  C   UNK A   0      -9.446  -2.779 124.207  0.00  0.00    +0.000 A 
ATOM     27  N   UNK A   0      -9.257  -1.514 124.007  0.00  0.00    +0.000 NA
ATOM     28  C   UNK A   0      -8.721  -0.749 125.029  0.00  0.00    +0.000 A 
ATOM     29  O   UNK A   0      -8.513   0.457 124.887  0.00  0.00    +0.000 OA
ATOM     30  C   UNK A   0      -8.395  -1.388 126.337  0.00  0.00    +0.000 A 
ATOM     31  N   UNK A   0      -7.882  -0.646 127.368  0.00  0.00    +0.000 NA
ATOM     32  C   UNK A   0      -7.637  -1.327 128.519  0.00  0.00    +0.000 A 
ATOM     33  C   UNK A   0      -7.930  -2.689 128.592  0.00  0.00    +0.000 A 
ATOM     34  N   UNK A   0      -8.429  -3.424 127.568  0.00  0.00    +0.000 NA
ATOM     35  C   UNK A   0      -8.656  -2.749 126.427  0.00  0.00    +0.000 A 
ATOM     36  N   UNK A   0      -9.167  -3.445 125.346  0.00  0.00    +0.000 N 
ATOM     37  H   UNK A   0     -10.201  -3.068 122.358  0.00  0.00    +0.000 HD
ATOM     38  H   UNK A   0     -10.166  -4.524 123.299  0.00  0.00    +0.000 HD
ATOM     39  H   UNK A   0      -9.320  -4.429 125.486  0.00  0.00    +0.000 HD
ENDBRANCH  24  32
ENDBRANCH  22  24
ENDBRANCH   1  22
TORSDOF 11
ENDMDL
MODEL 4
REMARK VINA RESULT:      -7.9      4.969      9.170
REMARK  Name = Folic acid
REMARK  11 active torsions:
REMARK  status: ('A' for Active; 'I' for Inactive)
REMARK    1  A    between atoms: C_8  and  C_9
REMARK    2  A    between atoms: C_9  and  N_10
REMARK    3  A    between atoms: N_10  and  C_11
REMARK    4  A    between atoms: C_14  and  C_17
REMARK    5  A    between atoms: N_19  and  CA_20
REMARK    6  A    between atoms: CA_20  and  CB_21
REMARK    7  A    between atoms: CA_20  and  C_26
REMARK    8  A    between atoms: CB_21  and  CG_22
REMARK    9  A    between atoms: CG_22  and  CD_23
REMARK   10  A    between atoms: CD_23  and  OE1_24
REMARK   11  A    between atoms: C_26  and  O_27
REMARK                            x       y       z     vdW  Elec       q    Type
REMARK                         _______ _______ _______ _____ _____    ______ ____
ROOT
ATOM      1  C   UNK A   0      -8.455   2.225 129.275  0.00  0.00    +0.000 A 
ATOM      2  C   UNK A   0      -8.414   2.065 127.885  0.00  0.00    +0.000 A 
ATOM      3  C   UNK A   0      -8.091   0.836 127.315  0.00  0.00    +0.000 A 
ATOM      4  C   UNK A   0      -7.757  -0.249 128.135  0.00  0.00    +0.000 A 
ATOM      5  C   UNK A   0      -7.767  -0.084 129.522  0.00  0.00    +0.000 A 
ATOM      6  C   UNK A   0      -8.118   1.143 130.084  0.00  0.00    +0.000 A 
ENDROOT
BRANCH   4   7
ATOM      7  C   UNK A   0      -7.404  -1.542 127.487  0.00  0.00    +0.000 C 
ATOM      8  O   UNK A   0      -7.014  -2.469 128.185  0.00  0.00    +0.000 OA
ATOM      9  N   GLU A   1      -7.591  -1.640 126.116  0.00  0.00    +0.000 N 
ATOM     10  H   GLU A   1      -7.844  -0.804 125.634  0.00  0.00    +0.000 HD
BRANCH   9  11
ATOM     11  CA  GLU A   1      -7.495  -2.912 125.375  0.00  0.00    +0.000 C 
BRANCH  11  12
ATOM     12  C   GLU A   1      -6.282  -3.035 124.413  0.00  0.00    +0.000 C 
ATOM     13  OXT GLU A   1      -5.908  -4.111 123.960  0.00  0.00    +0.000 OA
BRANCH  12  14
ATOM     14  O   GLU A   1      -5.669  -1.897 124.027  0.00  0.00    +0.000 OA
ATOM     15  H   GLU A   1      -5.852  -1.077 124.505  0.00  0.00    +0.000 HD
ENDBRANCH  12  14
ENDBRANCH  11  12
BRANCH  11  16
ATOM     16  CB  GLU A   1      -8.755  -3.187 124.512  0.00  0.00    +0.000 C 
BRANCH  16  17
ATOM     17  CG  GLU A   1      -8.730  -2.540 123.131  0.00  0.00    +0.000 C 
BRANCH  17  18
ATOM     18  CD  GLU A   1      -9.108  -1.094 122.985  0.00  0.00    +0.000 C 
ATOM     19  OE2 GLU A   1     -10.222  -0.756 122.608  0.00  0.00    +0.000 OA
BRANCH  18  20
ATOM     20  OE1 GLU A   1      -8.184  -0.190 123.353  0.00  0.00    +0.000 OA
ATOM     21  HE1 GLU A   1      -8.347   0.270 124.193  0.00  0.00    +0.000 HD
ENDBRANCH  18  20
ENDBRANCH  17  18
ENDBRANCH  16  17
ENDBRANCH  11  16
ENDBRANCH   9  11
ENDBRANCH   4   7
BRANCH   1  22
ATOM     22  N   UNK A   0      -8.863   3.450 129.761  0.00  0.00    +0.000 N 
ATOM     23  H   UNK A   0      -8.614   4.194 129.124  0.00  0.00    +0.000 HD
BRANCH  22  24
ATOM     24  C   UNK A   0      -9.982   3.621 130.682  0.00  0.00    +0.000 C 
BRANCH  24  32
ATOM     25  N   UNK A   0     -13.407  10.278 128.909  0.00  0.00    +0.000 N 
ATOM     26  C   UNK A   0     -12.776   9.089 128.942  0.00  0.00    +0.000 A 
ATOM     27  N   UNK A   0     -12.351   8.558 127.841  0.00  0.00    +0.000 NA
ATOM     28  C   UNK A   0     -11.708   7.333 127.895  0.00  0.00    +0.000 A 
ATOM     29  O   UNK A   0     -11.292   6.781 126.875  0.00  0.00    +0.000 OA
ATOM     30  C   UNK A   0     -11.499   6.665 129.212  0.00  0.00    +0.000 A 
ATOM     31  N   UNK A   0     -10.848   5.463 129.291  0.00  0.00    +0.000 NA
ATOM     32  C   UNK A   0     -10.699   4.954 130.543  0.00  0.00    +0.000 A 
ATOM     33  C   UNK A   0     -11.182   5.666 131.640  0.00  0.00    +0.000 A 
ATOM     34  N   UNK A   0     -11.834   6.853 131.561  0.00  0.00    +0.000 NA
ATOM     35  C   UNK A   0     -11.992   7.345 130.320  0.00  0.00    +0.000 A 
ATOM     36  N   UNK A   0     -12.648   8.554 130.173  0.00  0.00    +0.000 N 
ATOM     37  H   UNK A   0     -13.506  10.718 128.001  0.00  0.00    +0.000 HD
ATOM     38  H   UNK A   0     -13.748  10.775 129.717  0.00  0.00    +0.000 HD
ATOM     39  H   UNK A   0     -12.985   8.979 131.020  0.00  0.00    +0.000 HD
ENDBRANCH  24  32
ENDBRANCH  22  24
ENDBRANCH   1  22
TORSDOF 11
ENDMDL
MODEL 5
REMARK VINA RESULT:      -7.8      2.571      4.042
REMARK  Name = Folic acid
REMARK  11 active torsions:
REMARK  status: ('A' for Active; 'I' for Inactive)
REMARK    1  A    between atoms: C_8  and  C_9
REMARK    2  A    between atoms: C_9  and  N_10
REMARK    3  A    between atoms: N_10  and  C_11
REMARK    4  A    between atoms: C_14  and  C_17
REMARK    5  A    between atoms: N_19  and  CA_20
REMARK    6  A    between atoms: CA_20  and  CB_21
REMARK    7  A    between atoms: CA_20  and  C_26
REMARK    8  A    between atoms: CB_21  and  CG_22
REMARK    9  A    between atoms: CG_22  and  CD_23
REMARK   10  A    between atoms: CD_23  and  OE1_24
REMARK   11  A    between atoms: C_26  and  O_27
REMARK                            x       y       z     vdW  Elec       q    Type
REMARK                         _______ _______ _______ _____ _____    ______ ____
ROOT
ATOM      1  C   UNK A   0      -6.954   2.250 127.674  0.00  0.00    +0.000 A 
ATOM      2  C   UNK A   0      -8.264   2.187 128.159  0.00  0.00    +0.000 A 
ATOM      3  C   UNK A   0      -8.798   3.227 128.915  0.00  0.00    +0.000 A 
ATOM      4  C   UNK A   0      -8.005   4.335 129.240  0.00  0.00    +0.000 A 
ATOM      5  C   UNK A   0      -6.687   4.387 128.783  0.00  0.00    +0.000 A 
ATOM      6  C   UNK A   0      -6.170   3.353 128.002  0.00  0.00    +0.000 A 
ENDROOT
BRANCH   4   7
ATOM      7  C   UNK A   0      -8.609   5.419 130.063  0.00  0.00    +0.000 C 
ATOM      8  O   UNK A   0      -7.892   6.057 130.823  0.00  0.00    +0.000 OA
ATOM      9  N   GLU A   1      -9.958   5.684 129.879  0.00  0.00    +0.000 N 
ATOM     10  H   GLU A   1     -10.465   5.057 129.290  0.00  0.00    +0.000 HD
BRANCH   9  11
ATOM     11  CA  GLU A   1     -10.638   6.858 130.456  0.00  0.00    +0.000 C 
BRANCH  11  12
ATOM     12  C   GLU A   1     -11.637   6.555 131.605  0.00  0.00    +0.000 C 
ATOM     13  OXT GLU A   1     -12.811   6.906 131.567  0.00  0.00    +0.000 OA
BRANCH  12  14
ATOM     14  O   GLU A   1     -11.192   5.823 132.647  0.00  0.00    +0.000 OA
ATOM     15  H   GLU A   1     -10.249   5.834 132.863  0.00  0.00    +0.000 HD
ENDBRANCH  12  14
ENDBRANCH  11  12
BRANCH  11  16
ATOM     16  CB  GLU A   1     -11.440   7.655 129.392  0.00  0.00    +0.000 C 
BRANCH  16  17
ATOM     17  CG  GLU A   1     -10.590   8.245 128.271  0.00  0.00    +0.000 C 
BRANCH  17  18
ATOM     18  CD  GLU A   1     -10.515   7.536 126.949  0.00  0.00    +0.000 C 
ATOM     19  OE2 GLU A   1     -10.992   8.021 125.932  0.00  0.00    +0.000 OA
BRANCH  18  20
ATOM     20  OE1 GLU A   1      -9.838   6.375 126.926  0.00  0.00    +0.000 OA
ATOM     21  HE1 GLU A   1      -9.716   5.934 127.782  0.00  0.00    +0.000 HD
ENDBRANCH  18  20
ENDBRANCH  17  18
ENDBRANCH  16  17
ENDBRANCH  11  16
ENDBRANCH   9  11
ENDBRANCH   4   7
BRANCH   1  22
ATOM     22  N   UNK A   0      -6.526   1.219 126.863  0.00  0.00    +0.000 N 
ATOM     23  H   UNK A   0      -7.084   0.387 127.010  0.00  0.00    +0.000 HD
BRANCH  22  24
ATOM     24  C   UNK A   0      -5.839   1.421 125.592  0.00  0.00    +0.000 C 
BRANCH  24  32
ATOM     25  N   UNK A   0      -9.554   4.170 119.441  0.00  0.00    +0.000 N 
ATOM     26  C   UNK A   0      -8.677   3.794 120.392  0.00  0.00    +0.000 A 
ATOM     27  N   UNK A   0      -7.430   4.124 120.280  0.00  0.00    +0.000 NA
ATOM     28  C   UNK A   0      -6.543   3.725 121.265  0.00  0.00    +0.000 A 
ATOM     29  O   UNK A   0      -5.345   4.004 121.202  0.00  0.00    +0.000 OA
ATOM     30  C   UNK A   0      -7.041   2.948 122.438  0.00  0.00    +0.000 A 
ATOM     31  N   UNK A   0      -6.185   2.561 123.434  0.00  0.00    +0.000 NA
ATOM     32  C   UNK A   0      -6.749   1.873 124.461  0.00  0.00    +0.000 A 
ATOM     33  C   UNK A   0      -8.122   1.625 124.456  0.00  0.00    +0.000 A 
ATOM     34  N   UNK A   0      -8.967   2.003 123.466  0.00  0.00    +0.000 NA
ATOM     35  C   UNK A   0      -8.402   2.670 122.445  0.00  0.00    +0.000 A 
ATOM     36  N   UNK A   0      -9.214   3.083 121.403  0.00  0.00    +0.000 N 
ATOM     37  H   UNK A   0      -9.188   4.722 118.674  0.00  0.00    +0.000 HD
ATOM     38  H   UNK A   0     -10.544   3.980 119.460  0.00  0.00    +0.000 HD
ATOM     39  H   UNK A   0     -10.186   2.834 121.476  0.00  0.00    +0.000 HD
ENDBRANCH  24  32
ENDBRANCH  22  24
ENDBRANCH   1  22
TORSDOF 11
ENDMDL
MODEL 6
REMARK VINA RESULT:      -7.8      5.098      8.509
REMARK  Name = Folic acid
REMARK  11 active torsions:
REMARK  status: ('A' for Active; 'I' for Inactive)
REMARK    1  A    between atoms: C_8  and  C_9
REMARK    2  A    between atoms: C_9  and  N_10
REMARK    3  A    between atoms: N_10  and  C_11
REMARK    4  A    between atoms: C_14  and  C_17
REMARK    5  A    between atoms: N_19  and  CA_20
REMARK    6  A    between atoms: CA_20  and  CB_21
REMARK    7  A    between atoms: CA_20  and  C_26
REMARK    8  A    between atoms: CB_21  and  CG_22
REMARK    9  A    between atoms: CG_22  and  CD_23
REMARK   10  A    between atoms: CD_23  and  OE1_24
REMARK   11  A    between atoms: C_26  and  O_27
REMARK                            x       y       z     vdW  Elec       q    Type
REMARK                         _______ _______ _______ _____ _____    ______ ____
ROOT
ATOM      1  C   UNK A   0      -8.832   2.794 133.324  0.00  0.00    +0.000 A 
ATOM      2  C   UNK A   0      -7.548   2.260 133.471  0.00  0.00    +0.000 A 
ATOM      3  C   UNK A   0      -7.154   1.134 132.752  0.00  0.00    +0.000 A 
ATOM      4  C   UNK A   0      -8.064   0.493 131.903  0.00  0.00    +0.000 A 
ATOM      5  C   UNK A   0      -9.357   1.005 131.777  0.00  0.00    +0.000 A 
ATOM      6  C   UNK A   0      -9.733   2.150 132.480  0.00  0.00    +0.000 A 
ENDROOT
BRANCH   4   7
ATOM      7  C   UNK A   0      -7.609  -0.717 131.163  0.00  0.00    +0.000 C 
ATOM      8  O   UNK A   0      -7.728  -1.815 131.690  0.00  0.00    +0.000 OA
ATOM      9  N   GLU A   1      -7.117  -0.532 129.880  0.00  0.00    +0.000 N 
ATOM     10  H   GLU A   1      -6.994   0.410 129.574  0.00  0.00    +0.000 HD
BRANCH   9  11
ATOM     11  CA  GLU A   1      -6.835  -1.644 128.953  0.00  0.00    +0.000 C 
BRANCH  11  12
ATOM     12  C   GLU A   1      -5.401  -1.672 128.358  0.00  0.00    +0.000 C 
ATOM     13  OXT GLU A   1      -4.505  -2.363 128.831  0.00  0.00    +0.000 OA
BRANCH  12  14
ATOM     14  O   GLU A   1      -5.170  -0.950 127.242  0.00  0.00    +0.000 OA
ATOM     15  H   GLU A   1      -5.876  -0.392 126.886  0.00  0.00    +0.000 HD
ENDBRANCH  12  14
ENDBRANCH  11  12
BRANCH  11  16
ATOM     16  CB  GLU A   1      -7.802  -1.658 127.739  0.00  0.00    +0.000 C 
BRANCH  16  17
ATOM     17  CG  GLU A   1      -8.320  -3.042 127.359  0.00  0.00    +0.000 C 
BRANCH  17  18
ATOM     18  CD  GLU A   1      -8.858  -3.277 125.977  0.00  0.00    +0.000 C 
ATOM     19  OE2 GLU A   1      -8.223  -3.905 125.139  0.00  0.00    +0.000 OA
BRANCH  18  20
ATOM     20  OE1 GLU A   1     -10.097  -2.822 125.727  0.00  0.00    +0.000 OA
ATOM     21  HE1 GLU A   1     -10.671  -3.408 125.206  0.00  0.00    +0.000 HD
ENDBRANCH  18  20
ENDBRANCH  17  18
ENDBRANCH  16  17
ENDBRANCH  11  16
ENDBRANCH   9  11
ENDBRANCH   4   7
BRANCH   1  22
ATOM     22  N   UNK A   0      -9.118   3.958 134.007  0.00  0.00    +0.000 N 
ATOM     23  H   UNK A   0      -9.517   3.757 134.914  0.00  0.00    +0.000 HD
BRANCH  22  24
ATOM     24  C   UNK A   0      -8.423   5.220 133.778  0.00  0.00    +0.000 C 
BRANCH  24  32
ATOM     25  N   UNK A   0     -11.669   8.752 127.762  0.00  0.00    +0.000 N 
ATOM     26  C   UNK A   0     -11.364   8.115 128.909  0.00  0.00    +0.000 A 
ATOM     27  N   UNK A   0     -12.313   7.739 129.705  0.00  0.00    +0.000 NA
ATOM     28  C   UNK A   0     -11.979   7.088 130.881  0.00  0.00    +0.000 A 
ATOM     29  O   UNK A   0     -12.843   6.718 131.677  0.00  0.00    +0.000 OA
ATOM     30  C   UNK A   0     -10.546   6.817 131.194  0.00  0.00    +0.000 A 
ATOM     31  N   UNK A   0     -10.195   6.157 132.342  0.00  0.00    +0.000 NA
ATOM     32  C   UNK A   0      -8.863   5.949 132.519  0.00  0.00    +0.000 A 
ATOM     33  C   UNK A   0      -7.961   6.384 131.547  0.00  0.00    +0.000 A 
ATOM     34  N   UNK A   0      -8.310   7.044 130.415  0.00  0.00    +0.000 NA
ATOM     35  C   UNK A   0      -9.626   7.260 130.252  0.00  0.00    +0.000 A 
ATOM     36  N   UNK A   0     -10.045   7.928 129.115  0.00  0.00    +0.000 N 
ATOM     37  H   UNK A   0     -12.653   8.894 127.566  0.00  0.00    +0.000 HD
ATOM     38  H   UNK A   0     -10.998   9.057 127.074  0.00  0.00    +0.000 HD
ATOM     39  H   UNK A   0      -9.318   8.227 128.486  0.00  0.00    +0.000 HD
ENDBRANCH  24  32
ENDBRANCH  22  24
ENDBRANCH   1  22
TORSDOF 11
ENDMDL
MODEL 7
REMARK VINA RESULT:      -7.7      5.615      8.676
REMARK  Name = Folic acid
REMARK  11 active torsions:
REMARK  status: ('A' for Active; 'I' for Inactive)
REMARK    1  A    between atoms: C_8  and  C_9
REMARK    2  A    between atoms: C_9  and  N_10
REMARK    3  A    between atoms: N_10  and  C_11
REMARK    4  A    between atoms: C_14  and  C_17
REMARK    5  A    between atoms: N_19  and  CA_20
REMARK    6  A    between atoms: CA_20  and  CB_21
REMARK    7  A    between atoms: CA_20  and  C_26
REMARK    8  A    between atoms: CB_21  and  CG_22
REMARK    9  A    between atoms: CG_22  and  CD_23
REMARK   10  A    between atoms: CD_23  and  OE1_24
REMARK   11  A    between atoms: C_26  and  O_27
REMARK                            x       y       z     vdW  Elec       q    Type
REMARK                         _______ _______ _______ _____ _____    ______ ____
ROOT
ATOM      1  C   UNK A   0      -8.986   3.057 133.122  0.00  0.00    +0.000 A 
ATOM      2  C   UNK A   0      -9.873   2.325 132.325  0.00  0.00    +0.000 A 
ATOM      3  C   UNK A   0      -9.543   1.049 131.874  0.00  0.00    +0.000 A 
ATOM      4  C   UNK A   0      -8.290   0.502 132.177  0.00  0.00    +0.000 A 
ATOM      5  C   UNK A   0      -7.391   1.243 132.947  0.00  0.00    +0.000 A 
ATOM      6  C   UNK A   0      -7.742   2.508 133.418  0.00  0.00    +0.000 A 
ENDROOT
BRANCH   4   7
ATOM      7  C   UNK A   0      -7.971  -0.859 131.664  0.00  0.00    +0.000 C 
ATOM      8  O   UNK A   0      -7.877  -1.786 132.458  0.00  0.00    +0.000 OA
ATOM      9  N   GLU A   1      -7.848  -1.010 130.291  0.00  0.00    +0.000 N 
ATOM     10  H   GLU A   1      -7.870  -0.177 129.741  0.00  0.00    +0.000 HD
BRANCH   9  11
ATOM     11  CA  GLU A   1      -7.751  -2.323 129.626  0.00  0.00    +0.000 C 
BRANCH  11  12
ATOM     12  C   GLU A   1      -6.406  -3.074 129.821  0.00  0.00    +0.000 C 
ATOM     13  OXT GLU A   1      -5.435  -2.883 129.098  0.00  0.00    +0.000 OA
BRANCH  12  14
ATOM     14  O   GLU A   1      -6.304  -3.917 130.869  0.00  0.00    +0.000 OA
ATOM     15  H   GLU A   1      -5.565  -3.818 131.485  0.00  0.00    +0.000 HD
ENDBRANCH  12  14
ENDBRANCH  11  12
BRANCH  11  16
ATOM     16  CB  GLU A   1      -7.968  -2.224 128.093  0.00  0.00    +0.000 C 
BRANCH  16  17
ATOM     17  CG  GLU A   1      -8.634  -3.445 127.468  0.00  0.00    +0.000 C 
BRANCH  17  18
ATOM     18  CD  GLU A   1      -8.986  -3.430 126.008  0.00  0.00    +0.000 C 
ATOM     19  OE2 GLU A   1      -8.290  -3.995 125.173  0.00  0.00    +0.000 OA
BRANCH  18  20
ATOM     20  OE1 GLU A   1     -10.137  -2.824 125.671  0.00  0.00    +0.000 OA
ATOM     21  HE1 GLU A   1     -10.550  -3.119 124.843  0.00  0.00    +0.000 HD
ENDBRANCH  18  20
ENDBRANCH  17  18
ENDBRANCH  16  17
ENDBRANCH  11  16
ENDBRANCH   9  11
ENDBRANCH   4   7
BRANCH   1  22
ATOM     22  N   UNK A   0      -9.420   4.277 133.598  0.00  0.00    +0.000 N 
ATOM     23  H   UNK A   0      -9.565   4.246 134.599  0.00  0.00    +0.000 HD
BRANCH  22  24
ATOM     24  C   UNK A   0      -9.133   5.548 132.942  0.00  0.00    +0.000 C 
BRANCH  24  32
ATOM     25  N   UNK A   0     -13.885   7.760 127.310  0.00  0.00    +0.000 N 
ATOM     26  C   UNK A   0     -12.874   7.326 128.086  0.00  0.00    +0.000 A 
ATOM     27  N   UNK A   0     -11.737   7.023 127.547  0.00  0.00    +0.000 NA
ATOM     28  C   UNK A   0     -10.710   6.575 128.361  0.00  0.00    +0.000 A 
ATOM     29  O   UNK A   0      -9.611   6.265 127.897  0.00  0.00    +0.000 OA
ATOM     30  C   UNK A   0     -10.926   6.472 129.833  0.00  0.00    +0.000 A 
ATOM     31  N   UNK A   0      -9.918   6.050 130.659  0.00  0.00    +0.000 NA
ATOM     32  C   UNK A   0     -10.220   6.009 131.984  0.00  0.00    +0.000 A 
ATOM     33  C   UNK A   0     -11.486   6.404 132.417  0.00  0.00    +0.000 A 
ATOM     34  N   UNK A   0     -12.486   6.814 131.598  0.00  0.00    +0.000 NA
ATOM     35  C   UNK A   0     -12.187   6.838 130.287  0.00  0.00    +0.000 A 
ATOM     36  N   UNK A   0     -13.166   7.249 129.400  0.00  0.00    +0.000 N 
ATOM     37  H   UNK A   0     -13.695   7.846 126.318  0.00  0.00    +0.000 HD
ATOM     38  H   UNK A   0     -14.793   8.040 127.646  0.00  0.00    +0.000 HD
ATOM     39  H   UNK A   0     -14.056   7.488 129.804  0.00  0.00    +0.000 HD
ENDBRANCH  24  32
ENDBRANCH  22  24
ENDBRANCH   1  22
TORSDOF 11
ENDMDL
MODEL 8
REMARK VINA RESULT:      -7.6      3.008      7.840
REMARK  Name = Folic acid
REMARK  11 active torsions:
REMARK  status: ('A' for Active; 'I' for Inactive)
REMARK    1  A    between atoms: C_8  and  C_9
REMARK    2  A    between atoms: C_9  and  N_10
REMARK    3  A    between atoms: N_10  and  C_11
REMARK    4  A    between atoms: C_14  and  C_17
REMARK    5  A    between atoms: N_19  and  CA_20
REMARK    6  A    between atoms: CA_20  and  CB_21
REMARK    7  A    between atoms: CA_20  and  C_26
REMARK    8  A    between atoms: CB_21  and  CG_22
REMARK    9  A    between atoms: CG_22  and  CD_23
REMARK   10  A    between atoms: CD_23  and  OE1_24
REMARK   11  A    between atoms: C_26  and  O_27
REMARK                            x       y       z     vdW  Elec       q    Type
REMARK                         _______ _______ _______ _____ _____    ______ ____
ROOT
ATOM      1  C   UNK A   0      -7.705   3.442 129.630  0.00  0.00    +0.000 A 
ATOM      2  C   UNK A   0      -6.832   4.238 128.880  0.00  0.00    +0.000 A 
ATOM      3  C   UNK A   0      -6.480   3.884 127.580  0.00  0.00    +0.000 A 
ATOM      4  C   UNK A   0      -6.962   2.692 127.024  0.00  0.00    +0.000 A 
ATOM      5  C   UNK A   0      -7.808   1.880 127.782  0.00  0.00    +0.000 A 
ATOM      6  C   UNK A   0      -8.178   2.257 129.073  0.00  0.00    +0.000 A 
ENDROOT
BRANCH   4   7
ATOM      7  C   UNK A   0      -6.549   2.342 125.637  0.00  0.00    +0.000 C 
ATOM      8  O   UNK A   0      -5.908   1.316 125.449  0.00  0.00    +0.000 OA
ATOM      9  N   GLU A   1      -6.967   3.183 124.616  0.00  0.00    +0.000 N 
ATOM     10  H   GLU A   1      -7.422   4.029 124.885  0.00  0.00    +0.000 HD
BRANCH   9  11
ATOM     11  CA  GLU A   1      -6.824   2.852 123.186  0.00  0.00    +0.000 C 
BRANCH  11  12
ATOM     12  C   GLU A   1      -5.846   3.755 122.385  0.00  0.00    +0.000 C 
ATOM     13  OXT GLU A   1      -5.398   4.803 122.837  0.00  0.00    +0.000 OA
BRANCH  12  14
ATOM     14  O   GLU A   1      -5.438   3.320 121.175  0.00  0.00    +0.000 OA
ATOM     15  H   GLU A   1      -4.878   3.891 120.632  0.00  0.00    +0.000 HD
ENDBRANCH  12  14
ENDBRANCH  11  12
BRANCH  11  16
ATOM     16  CB  GLU A   1      -8.177   2.912 122.429  0.00  0.00    +0.000 C 
BRANCH  16  17
ATOM     17  CG  GLU A   1      -9.044   1.666 122.584  0.00  0.00    +0.000 C 
BRANCH  17  18
ATOM     18  CD  GLU A   1     -10.085   1.619 123.665  0.00  0.00    +0.000 C 
ATOM     19  OE2 GLU A   1     -11.096   0.937 123.554  0.00  0.00    +0.000 OA
BRANCH  18  20
ATOM     20  OE1 GLU A   1      -9.821   2.310 124.787  0.00  0.00    +0.000 OA
ATOM     21  HE1 GLU A   1     -10.591   2.639 125.279  0.00  0.00    +0.000 HD
ENDBRANCH  18  20
ENDBRANCH  17  18
ENDBRANCH  16  17
ENDBRANCH  11  16
ENDBRANCH   9  11
ENDBRANCH   4   7
BRANCH   1  22
ATOM     22  N   UNK A   0      -8.071   3.903 130.878  0.00  0.00    +0.000 N 
ATOM     23  H   UNK A   0      -7.432   4.617 131.202  0.00  0.00    +0.000 HD
BRANCH  22  24
ATOM     24  C   UNK A   0      -9.438   3.861 131.386  0.00  0.00    +0.000 C 
BRANCH  24  32
ATOM     25  N   UNK A   0     -13.182   9.997 128.642  0.00  0.00    +0.000 N 
ATOM     26  C   UNK A   0     -12.434   8.898 128.859  0.00  0.00    +0.000 A 
ATOM     27  N   UNK A   0     -11.723   8.407 127.896  0.00  0.00    +0.000 NA
ATOM     28  C   UNK A   0     -10.963   7.274 128.138  0.00  0.00    +0.000 A 
ATOM     29  O   UNK A   0     -10.276   6.762 127.253  0.00  0.00    +0.000 OA
ATOM     30  C   UNK A   0     -10.962   6.662 129.498  0.00  0.00    +0.000 A 
ATOM     31  N   UNK A   0     -10.202   5.554 129.764  0.00  0.00    +0.000 NA
ATOM     32  C   UNK A   0     -10.265   5.089 131.040  0.00  0.00    +0.000 A 
ATOM     33  C   UNK A   0     -11.053   5.754 131.980  0.00  0.00    +0.000 A 
ATOM     34  N   UNK A   0     -11.811   6.846 131.713  0.00  0.00    +0.000 NA
ATOM     35  C   UNK A   0     -11.758   7.292 130.446  0.00  0.00    +0.000 A 
ATOM     36  N   UNK A   0     -12.509   8.405 130.112  0.00  0.00    +0.000 N 
ATOM     37  H   UNK A   0     -13.136  10.405 127.716  0.00  0.00    +0.000 HD
ATOM     38  H   UNK A   0     -13.745  10.460 129.338  0.00  0.00    +0.000 HD
ATOM     39  H   UNK A   0     -13.067   8.799 130.850  0.00  0.00    +0.000 HD
ENDBRANCH  24  32
ENDBRANCH  22  24
ENDBRANCH   1  22
TORSDOF 11
ENDMDL
MODEL 9
REMARK VINA RESULT:      -7.5      4.466      5.476
REMARK  Name = Folic acid
REMARK  11 active torsions:
REMARK  status: ('A' for Active; 'I' for Inactive)
REMARK    1  A    between atoms: C_8  and  C_9
REMARK    2  A    between atoms: C_9  and  N_10
REMARK    3  A    between atoms: N_10  and  C_11
REMARK    4  A    between atoms: C_14  and  C_17
REMARK    5  A    between atoms: N_19  and  CA_20
REMARK    6  A    between atoms: CA_20  and  CB_21
REMARK    7  A    between atoms: CA_20  and  C_26
REMARK    8  A    between atoms: CB_21  and  CG_22
REMARK    9  A    between atoms: CG_22  and  CD_23
REMARK   10  A    between atoms: CD_23  and  OE1_24
REMARK   11  A    between atoms: C_26  and  O_27
REMARK                            x       y       z     vdW  Elec       q    Type
REMARK                         _______ _______ _______ _____ _____    ______ ____
ROOT
ATOM      1  C   UNK A   0      -7.854  -0.201 130.878  0.00  0.00    +0.000 A 
ATOM      2  C   UNK A   0      -8.948   0.072 131.707  0.00  0.00    +0.000 A 
ATOM      3  C   UNK A   0      -9.669   1.257 131.573  0.00  0.00    +0.000 A 
ATOM      4  C   UNK A   0      -9.273   2.214 130.630  0.00  0.00    +0.000 A 
ATOM      5  C   UNK A   0      -8.164   1.957 129.823  0.00  0.00    +0.000 A 
ATOM      6  C   UNK A   0      -7.465   0.756 129.945  0.00  0.00    +0.000 A 
ENDROOT
BRANCH   4   7
ATOM      7  C   UNK A   0     -10.062   3.473 130.529  0.00  0.00    +0.000 C 
ATOM      8  O   UNK A   0     -11.284   3.414 130.584  0.00  0.00    +0.000 OA
ATOM      9  N   GLU A   1      -9.355   4.662 130.429  0.00  0.00    +0.000 N 
ATOM     10  H   GLU A   1      -8.366   4.591 130.318  0.00  0.00    +0.000 HD
BRANCH   9  11
ATOM     11  CA  GLU A   1      -9.986   5.990 130.539  0.00  0.00    +0.000 C 
BRANCH  11  12
ATOM     12  C   GLU A   1     -10.793   6.242 131.842  0.00  0.00    +0.000 C 
ATOM     13  OXT GLU A   1     -10.268   6.654 132.871  0.00  0.00    +0.000 OA
BRANCH  12  14
ATOM     14  O   GLU A   1     -12.128   6.053 131.800  0.00  0.00    +0.000 OA
ATOM     15  H   GLU A   1     -12.645   6.491 131.110  0.00  0.00    +0.000 HD
ENDBRANCH  12  14
ENDBRANCH  11  12
BRANCH  11  16
ATOM     16  CB  GLU A   1     -10.965   6.276 129.368  0.00  0.00    +0.000 C 
BRANCH  16  17
ATOM     17  CG  GLU A   1     -10.612   7.502 128.534  0.00  0.00    +0.000 C 
BRANCH  17  18
ATOM     18  CD  GLU A   1     -10.503   7.375 127.041  0.00  0.00    +0.000 C 
ATOM     19  OE2 GLU A   1     -10.949   8.231 126.288  0.00  0.00    +0.000 OA
BRANCH  18  20
ATOM     20  OE1 GLU A   1      -9.831   6.308 126.575  0.00  0.00    +0.000 OA
ATOM     21  HE1 GLU A   1      -9.309   6.450 125.768  0.00  0.00    +0.000 HD
ENDBRANCH  18  20
ENDBRANCH  17  18
ENDBRANCH  16  17
ENDBRANCH  11  16
ENDBRANCH   9  11
ENDBRANCH   4   7
BRANCH   1  22
ATOM     22  N   UNK A   0      -7.244  -1.431 131.017  0.00  0.00    +0.000 N 
ATOM     23  H   UNK A   0      -6.903  -1.561 131.960  0.00  0.00    +0.000 HD
BRANCH  22  24
ATOM     24  C   UNK A   0      -7.562  -2.588 130.188  0.00  0.00    +0.000 C 
BRANCH  24  32
ATOM     25  N   UNK A   0      -6.618  -1.975 122.577  0.00  0.00    +0.000 N 
ATOM     26  C   UNK A   0      -7.054  -2.108 123.845  0.00  0.00    +0.000 A 
ATOM     27  N   UNK A   0      -8.311  -2.321 124.071  0.00  0.00    +0.000 NA
ATOM     28  C   UNK A   0      -8.741  -2.451 125.381  0.00  0.00    +0.000 A 
ATOM     29  O   UNK A   0      -9.927  -2.646 125.650  0.00  0.00    +0.000 OA
ATOM     30  C   UNK A   0      -7.753  -2.366 126.495  0.00  0.00    +0.000 A 
ATOM     31  N   UNK A   0      -8.153  -2.512 127.796  0.00  0.00    +0.000 NA
ATOM     32  C   UNK A   0      -7.167  -2.432 128.729  0.00  0.00    +0.000 A 
ATOM     33  C   UNK A   0      -5.847  -2.233 128.323  0.00  0.00    +0.000 A 
ATOM     34  N   UNK A   0      -5.453  -2.081 127.035  0.00  0.00    +0.000 NA
ATOM     35  C   UNK A   0      -6.434  -2.146 126.118  0.00  0.00    +0.000 A 
ATOM     36  N   UNK A   0      -6.094  -1.999 124.785  0.00  0.00    +0.000 N 
ATOM     37  H   UNK A   0      -7.311  -2.068 121.844  0.00  0.00    +0.000 HD
ATOM     38  H   UNK A   0      -5.657  -1.832 122.309  0.00  0.00    +0.000 HD
ATOM     39  H   UNK A   0      -5.121  -1.833 124.593  0.00  0.00    +0.000 HD
ENDBRANCH  24  32
ENDBRANCH  22  24
ENDBRANCH   1  22
TORSDOF 11
ENDMDL
