MODEL 1
REMARK VINA RESULT:      -3.9      0.000      0.000
REMARK  Name = Fomepizole
REMARK  1 active torsions:
REMARK  status: ('A' for Active; 'I' for Inactive)
REMARK    1  A    between atoms: C_1  and  C_2
REMARK                            x       y       z     vdW  Elec       q    Type
REMARK                         _______ _______ _______ _____ _____    ______ ____
ROOT
ATOM      1  C   UNL     1      -5.959   2.797 121.153  0.00  0.00    +0.000 C 
ATOM      2  C   UNL     1      -5.353   4.134 120.971  0.00  0.00    +0.000 A 
ATOM      3  C   UNL     1      -4.472   4.792 121.801  0.00  0.00    +0.000 A 
ATOM      4  N   UNL     1      -4.198   5.986 121.203  0.00  0.00    +0.000 N 
ATOM      5  N   UNL     1      -4.842   6.159 120.039  0.00  0.00    +0.000 NA
ATOM      6  C   UNL     1      -5.544   5.032 119.898  0.00  0.00    +0.000 A 
ATOM      7  H   UNL     1      -3.584   6.726 121.530  0.00  0.00    +0.000 HD
ENDROOT
TORSDOF 0
ENDMDL
MODEL 2
REMARK VINA RESULT:      -3.7     10.023     10.257
REMARK  Name = Fomepizole
REMARK  1 active torsions:
REMARK  status: ('A' for Active; 'I' for Inactive)
REMARK    1  A    between atoms: C_1  and  C_2
REMARK                            x       y       z     vdW  Elec       q    Type
REMARK                         _______ _______ _______ _____ _____    ______ ____
ROOT
ATOM      1  C   UNL     1     -12.383   8.822 129.283  0.00  0.00    +0.000 C 
ATOM      2  C   UNL     1     -12.162   8.043 128.046  0.00  0.00    +0.000 A 
ATOM      3  C   UNL     1     -13.087   7.346 127.300  0.00  0.00    +0.000 A 
ATOM      4  N   UNL     1     -12.405   6.801 126.252  0.00  0.00    +0.000 N 
ATOM      5  N   UNL     1     -11.095   7.089 126.262  0.00  0.00    +0.000 NA
ATOM      6  C   UNL     1     -10.947   7.845 127.353  0.00  0.00    +0.000 A 
ATOM      7  H   UNL     1     -12.767   6.226 125.498  0.00  0.00    +0.000 HD
ENDROOT
TORSDOF 0
ENDMDL
MODEL 3
REMARK VINA RESULT:      -3.6     10.947     11.261
REMARK  Name = Fomepizole
REMARK  1 active torsions:
REMARK  status: ('A' for Active; 'I' for Inactive)
REMARK    1  A    between atoms: C_1  and  C_2
REMARK                            x       y       z     vdW  Elec       q    Type
REMARK                         _______ _______ _______ _____ _____    ______ ____
ROOT
ATOM      1  C   UNL     1     -12.821   7.489 130.986  0.00  0.00    +0.000 C 
ATOM      2  C   UNL     1     -11.919   7.902 129.889  0.00  0.00    +0.000 A 
ATOM      3  C   UNL     1     -12.189   8.749 128.836  0.00  0.00    +0.000 A 
ATOM      4  N   UNL     1     -11.045   8.822 128.098  0.00  0.00    +0.000 N 
ATOM      5  N   UNL     1     -10.044   8.078 128.593  0.00  0.00    +0.000 NA
ATOM      6  C   UNL     1     -10.575   7.519 129.682  0.00  0.00    +0.000 A 
ATOM      7  H   UNL     1     -10.876   9.357 127.252  0.00  0.00    +0.000 HD
ENDROOT
TORSDOF 0
ENDMDL
MODEL 4
REMARK VINA RESULT:      -3.5     11.867     12.219
REMARK  Name = Fomepizole
REMARK  1 active torsions:
REMARK  status: ('A' for Active; 'I' for Inactive)
REMARK    1  A    between atoms: C_1  and  C_2
REMARK                            x       y       z     vdW  Elec       q    Type
REMARK                         _______ _______ _______ _____ _____    ______ ____
ROOT
ATOM      1  C   UNL     1     -10.491   7.992 128.865  0.00  0.00    +0.000 C 
ATOM      2  C   UNL     1     -11.230   7.427 130.014  0.00  0.00    +0.000 A 
ATOM      3  C   UNL     1     -10.795   6.499 130.936  0.00  0.00    +0.000 A 
ATOM      4  N   UNL     1     -11.830   6.302 131.802  0.00  0.00    +0.000 N 
ATOM      5  N   UNL     1     -12.915   7.034 131.510  0.00  0.00    +0.000 NA
ATOM      6  C   UNL     1     -12.551   7.718 130.423  0.00  0.00    +0.000 A 
ATOM      7  H   UNL     1     -11.864   5.689 132.610  0.00  0.00    +0.000 HD
ENDROOT
TORSDOF 0
ENDMDL
MODEL 5
REMARK VINA RESULT:      -3.5     11.867     12.165
REMARK  Name = Fomepizole
REMARK  1 active torsions:
REMARK  status: ('A' for Active; 'I' for Inactive)
REMARK    1  A    between atoms: C_1  and  C_2
REMARK                            x       y       z     vdW  Elec       q    Type
REMARK                         _______ _______ _______ _____ _____    ______ ____
ROOT
ATOM      1  C   UNL     1     -12.763   8.850 130.016  0.00  0.00    +0.000 C 
ATOM      2  C   UNL     1     -12.299   7.462 130.232  0.00  0.00    +0.000 A 
ATOM      3  C   UNL     1     -12.022   6.832 131.426  0.00  0.00    +0.000 A 
ATOM      4  N   UNL     1     -11.637   5.562 131.111  0.00  0.00    +0.000 N 
ATOM      5  N   UNL     1     -11.639   5.318 129.792  0.00  0.00    +0.000 NA
ATOM      6  C   UNL     1     -12.042   6.473 129.258  0.00  0.00    +0.000 A 
ATOM      7  H   UNL     1     -11.362   4.815 131.740  0.00  0.00    +0.000 HD
ENDROOT
TORSDOF 0
ENDMDL
MODEL 6
REMARK VINA RESULT:      -3.4     11.323     11.549
REMARK  Name = Fomepizole
REMARK  1 active torsions:
REMARK  status: ('A' for Active; 'I' for Inactive)
REMARK    1  A    between atoms: C_1  and  C_2
REMARK                            x       y       z     vdW  Elec       q    Type
REMARK                         _______ _______ _______ _____ _____    ______ ____
ROOT
ATOM      1  C   UNL     1     -12.811   7.589 131.259  0.00  0.00    +0.000 C 
ATOM      2  C   UNL     1     -12.580   7.589 129.798  0.00  0.00    +0.000 A 
ATOM      3  C   UNL     1     -12.234   8.650 128.990  0.00  0.00    +0.000 A 
ATOM      4  N   UNL     1     -12.129   8.152 127.724  0.00  0.00    +0.000 N 
ATOM      5  N   UNL     1     -12.387   6.838 127.647  0.00  0.00    +0.000 NA
ATOM      6  C   UNL     1     -12.660   6.495 128.908  0.00  0.00    +0.000 A 
ATOM      7  H   UNL     1     -11.887   8.647 126.873  0.00  0.00    +0.000 HD
ENDROOT
TORSDOF 0
ENDMDL
MODEL 7
REMARK VINA RESULT:      -3.3     10.635     10.992
REMARK  Name = Fomepizole
REMARK  1 active torsions:
REMARK  status: ('A' for Active; 'I' for Inactive)
REMARK    1  A    between atoms: C_1  and  C_2
REMARK                            x       y       z     vdW  Elec       q    Type
REMARK                         _______ _______ _______ _____ _____    ______ ____
ROOT
ATOM      1  C   UNL     1      -9.439   7.089 130.236  0.00  0.00    +0.000 C 
ATOM      2  C   UNL     1     -10.545   7.749 129.510  0.00  0.00    +0.000 A 
ATOM      3  C   UNL     1     -10.501   8.395 128.294  0.00  0.00    +0.000 A 
ATOM      4  N   UNL     1     -11.769   8.829 128.042  0.00  0.00    +0.000 N 
ATOM      5  N   UNL     1     -12.642   8.515 129.012  0.00  0.00    +0.000 NA
ATOM      6  C   UNL     1     -11.897   7.857 129.904  0.00  0.00    +0.000 A 
ATOM      7  H   UNL     1     -12.109   9.341 127.235  0.00  0.00    +0.000 HD
ENDROOT
TORSDOF 0
ENDMDL
MODEL 8
REMARK VINA RESULT:      -3.2     11.168     11.357
REMARK  Name = Fomepizole
REMARK  1 active torsions:
REMARK  status: ('A' for Active; 'I' for Inactive)
REMARK    1  A    between atoms: C_1  and  C_2
REMARK                            x       y       z     vdW  Elec       q    Type
REMARK                         _______ _______ _______ _____ _____    ______ ____
ROOT
ATOM      1  C   UNL     1     -12.348   7.104 126.444  0.00  0.00    +0.000 C 
ATOM      2  C   UNL     1     -12.529   7.431 127.874  0.00  0.00    +0.000 A 
ATOM      3  C   UNL     1     -12.971   6.609 128.888  0.00  0.00    +0.000 A 
ATOM      4  N   UNL     1     -12.962   7.361 130.026  0.00  0.00    +0.000 N 
ATOM      5  N   UNL     1     -12.548   8.622 129.827  0.00  0.00    +0.000 NA
ATOM      6  C   UNL     1     -12.284   8.664 128.519  0.00  0.00    +0.000 A 
ATOM      7  H   UNL     1     -13.222   7.081 130.966  0.00  0.00    +0.000 HD
ENDROOT
TORSDOF 0
ENDMDL
MODEL 9
REMARK VINA RESULT:      -3.2     11.580     12.068
REMARK  Name = Fomepizole
REMARK  1 active torsions:
REMARK  status: ('A' for Active; 'I' for Inactive)
REMARK    1  A    between atoms: C_1  and  C_2
REMARK                            x       y       z     vdW  Elec       q    Type
REMARK                         _______ _______ _______ _____ _____    ______ ____
ROOT
ATOM      1  C   UNL     1     -10.434   7.333 129.224  0.00  0.00    +0.000 C 
ATOM      2  C   UNL     1     -10.339   6.826 130.610  0.00  0.00    +0.000 A 
ATOM      3  C   UNL     1     -11.363   6.461 131.456  0.00  0.00    +0.000 A 
ATOM      4  N   UNL     1     -10.776   6.055 132.619  0.00  0.00    +0.000 N 
ATOM      5  N   UNL     1      -9.437   6.132 132.594  0.00  0.00    +0.000 NA
ATOM      6  C   UNL     1      -9.171   6.601 131.372  0.00  0.00    +0.000 A 
ATOM      7  H   UNL     1     -11.224   5.714 133.463  0.00  0.00    +0.000 HD
ENDROOT
TORSDOF 0
ENDMDL
