MODEL 1
REMARK VINA RESULT:      -7.8      0.000      0.000
REMARK  Name = Formestane
REMARK  3 active torsions:
REMARK  status: ('A' for Active; 'I' for Inactive)
REMARK    1  A    between atoms: C_7  and  C_8
REMARK    2  A    between atoms: C_18  and  O_19
REMARK    3  A    between atoms: C_24  and  C_25
REMARK                            x       y       z     vdW  Elec       q    Type
REMARK                         _______ _______ _______ _____ _____    ______ ____
ROOT
ATOM      1  C   UNL     1      -6.828  -3.298 130.787  0.00  0.00    +0.000 C 
ATOM      2  C   UNL     1      -6.028  -4.460 130.413  0.00  0.00    +0.000 C 
ATOM      3  C   UNL     1      -5.304  -3.372 129.700  0.00  0.00    +0.000 C 
ATOM      4  C   UNL     1      -6.165  -1.841 130.578  0.00  0.00    +0.000 C 
ATOM      5  O   UNL     1      -6.639  -0.747 130.742  0.00  0.00    +0.000 OA
ATOM      6  C   UNL     1      -5.376  -2.356 131.505  0.00  0.00    +0.000 C 
ATOM      7  C   UNL     1      -5.193  -2.529 132.911  0.00  0.00    +0.000 C 
ATOM      8  C   UNL     1      -4.388  -1.320 130.375  0.00  0.00    +0.000 C 
ATOM      9  C   UNL     1      -5.211  -0.868 128.780  0.00  0.00    +0.000 C 
ATOM     10  C   UNL     1      -6.328  -1.928 128.048  0.00  0.00    +0.000 C 
ATOM     11  C   UNL     1      -7.512  -2.636 129.148  0.00  0.00    +0.000 C 
ATOM     12  C   UNL     1      -8.296  -3.728 128.487  0.00  0.00    +0.000 C 
ATOM     13  C   UNL     1      -8.864  -3.271 127.170  0.00  0.00    +0.000 C 
ATOM     14  C   UNL     1      -7.905  -2.650 126.188  0.00  0.00    +0.000 C 
ATOM     15  C   UNL     1      -7.937  -2.950 124.878  0.00  0.00    +0.000 C 
ATOM     16  C   UNL     1      -7.198  -2.007 124.026  0.00  0.00    +0.000 C 
ATOM     17  O   UNL     1      -7.571  -0.873 123.731  0.00  0.00    +0.000 OA
ATOM     18  C   UNL     1      -5.788  -2.316 123.991  0.00  0.00    +0.000 C 
ATOM     19  C   UNL     1      -5.617  -1.502 125.465  0.00  0.00    +0.000 C 
ATOM     20  C   UNL     1      -6.929  -1.552 126.660  0.00  0.00    +0.000 C 
ATOM     21  C   UNL     1      -7.769  -0.299 127.006  0.00  0.00    +0.000 C 
ENDROOT
BRANCH  15  22
ATOM     22  O   UNL     1      -8.440  -4.076 124.304  0.00  0.00    +0.000 OA
ATOM     23  H   UNL     1      -8.663  -3.862 123.389  0.00  0.00    +0.000 HD
ENDBRANCH  15  22
TORSDOF 1
ENDMDL
MODEL 2
REMARK VINA RESULT:      -7.8      3.622      6.317
REMARK  Name = Formestane
REMARK  3 active torsions:
REMARK  status: ('A' for Active; 'I' for Inactive)
REMARK    1  A    between atoms: C_7  and  C_8
REMARK    2  A    between atoms: C_18  and  O_19
REMARK    3  A    between atoms: C_24  and  C_25
REMARK                            x       y       z     vdW  Elec       q    Type
REMARK                         _______ _______ _______ _____ _____    ______ ____
ROOT
ATOM      1  C   UNL     1      -7.928  -1.407 123.703  0.00  0.00    +0.000 C 
ATOM      2  C   UNL     1      -6.724  -1.531 122.886  0.00  0.00    +0.000 C 
ATOM      3  C   UNL     1      -6.135  -1.280 124.229  0.00  0.00    +0.000 C 
ATOM      4  C   UNL     1      -7.758  -1.545 125.303  0.00  0.00    +0.000 C 
ATOM      5  O   UNL     1      -8.572  -1.412 126.178  0.00  0.00    +0.000 OA
ATOM      6  C   UNL     1      -7.424  -2.757 124.900  0.00  0.00    +0.000 C 
ATOM      7  C   UNL     1      -7.926  -4.055 124.576  0.00  0.00    +0.000 C 
ATOM      8  C   UNL     1      -6.396  -2.290 126.332  0.00  0.00    +0.000 C 
ATOM      9  C   UNL     1      -6.402  -0.490 126.765  0.00  0.00    +0.000 C 
ATOM     10  C   UNL     1      -6.592   0.694 125.555  0.00  0.00    +0.000 C 
ATOM     11  C   UNL     1      -7.868   0.361 124.382  0.00  0.00    +0.000 C 
ATOM     12  C   UNL     1      -7.816   1.311 123.224  0.00  0.00    +0.000 C 
ATOM     13  C   UNL     1      -7.759   2.740 123.695  0.00  0.00    +0.000 C 
ATOM     14  C   UNL     1      -6.695   3.089 124.703  0.00  0.00    +0.000 C 
ATOM     15  C   UNL     1      -5.967   4.215 124.608  0.00  0.00    +0.000 C 
ATOM     16  C   UNL     1      -5.249   4.575 125.839  0.00  0.00    +0.000 C 
ATOM     17  O   UNL     1      -5.765   5.045 126.851  0.00  0.00    +0.000 OA
ATOM     18  C   UNL     1      -4.000   3.860 125.952  0.00  0.00    +0.000 C 
ATOM     19  C   UNL     1      -4.862   2.532 126.549  0.00  0.00    +0.000 C 
ATOM     20  C   UNL     1      -6.500   2.200 125.950  0.00  0.00    +0.000 C 
ATOM     21  C   UNL     1      -7.751   2.371 126.845  0.00  0.00    +0.000 C 
ENDROOT
BRANCH  15  22
ATOM     22  O   UNL     1      -5.722   4.943 123.485  0.00  0.00    +0.000 OA
ATOM     23  H   UNL     1      -6.390   5.639 123.437  0.00  0.00    +0.000 HD
ENDBRANCH  15  22
TORSDOF 1
ENDMDL
MODEL 3
REMARK VINA RESULT:      -7.7      1.475      6.121
REMARK  Name = Formestane
REMARK  3 active torsions:
REMARK  status: ('A' for Active; 'I' for Inactive)
REMARK    1  A    between atoms: C_7  and  C_8
REMARK    2  A    between atoms: C_18  and  O_19
REMARK    3  A    between atoms: C_24  and  C_25
REMARK                            x       y       z     vdW  Elec       q    Type
REMARK                         _______ _______ _______ _____ _____    ______ ____
ROOT
ATOM      1  C   UNL     1      -7.094  -1.179 124.379  0.00  0.00    +0.000 C 
ATOM      2  C   UNL     1      -6.089  -2.162 123.988  0.00  0.00    +0.000 C 
ATOM      3  C   UNL     1      -6.903  -2.952 124.952  0.00  0.00    +0.000 C 
ATOM      4  C   UNL     1      -8.433  -1.729 125.096  0.00  0.00    +0.000 C 
ATOM      5  O   UNL     1      -9.360  -1.123 125.567  0.00  0.00    +0.000 OA
ATOM      6  C   UNL     1      -8.544  -2.261 123.892  0.00  0.00    +0.000 C 
ATOM      7  C   UNL     1      -9.027  -2.044 122.565  0.00  0.00    +0.000 C 
ATOM      8  C   UNL     1      -9.194  -3.429 125.133  0.00  0.00    +0.000 C 
ATOM      9  C   UNL     1      -8.736  -3.064 126.889  0.00  0.00    +0.000 C 
ATOM     10  C   UNL     1      -7.251  -2.317 127.262  0.00  0.00    +0.000 C 
ATOM     11  C   UNL     1      -6.834  -0.939 126.241  0.00  0.00    +0.000 C 
ATOM     12  C   UNL     1      -5.422  -0.490 126.468  0.00  0.00    +0.000 C 
ATOM     13  C   UNL     1      -5.143  -0.288 127.933  0.00  0.00    +0.000 C 
ATOM     14  C   UNL     1      -5.484  -1.425 128.860  0.00  0.00    +0.000 C 
ATOM     15  C   UNL     1      -4.659  -1.804 129.852  0.00  0.00    +0.000 C 
ATOM     16  C   UNL     1      -5.290  -2.663 130.865  0.00  0.00    +0.000 C 
ATOM     17  O   UNL     1      -6.081  -2.283 131.726  0.00  0.00    +0.000 OA
ATOM     18  C   UNL     1      -5.313  -4.045 130.449  0.00  0.00    +0.000 C 
ATOM     19  C   UNL     1      -6.689  -3.702 129.526  0.00  0.00    +0.000 C 
ATOM     20  C   UNL     1      -6.863  -2.110 128.758  0.00  0.00    +0.000 C 
ATOM     21  C   UNL     1      -7.927  -1.088 129.225  0.00  0.00    +0.000 C 
ENDROOT
BRANCH  15  22
ATOM     22  O   UNL     1      -3.316  -1.602 129.928  0.00  0.00    +0.000 OA
ATOM     23  H   UNL     1      -2.900  -2.460 130.076  0.00  0.00    +0.000 HD
ENDBRANCH  15  22
TORSDOF 1
ENDMDL
MODEL 4
REMARK VINA RESULT:      -7.5      3.708      6.327
REMARK  Name = Formestane
REMARK  3 active torsions:
REMARK  status: ('A' for Active; 'I' for Inactive)
REMARK    1  A    between atoms: C_7  and  C_8
REMARK    2  A    between atoms: C_18  and  O_19
REMARK    3  A    between atoms: C_24  and  C_25
REMARK                            x       y       z     vdW  Elec       q    Type
REMARK                         _______ _______ _______ _____ _____    ______ ____
ROOT
ATOM      1  C   UNL     1      -7.022  -2.111 123.727  0.00  0.00    +0.000 C 
ATOM      2  C   UNL     1      -5.694  -2.056 124.330  0.00  0.00    +0.000 C 
ATOM      3  C   UNL     1      -6.538  -1.555 125.449  0.00  0.00    +0.000 C 
ATOM      4  C   UNL     1      -8.293  -2.052 124.721  0.00  0.00    +0.000 C 
ATOM      5  O   UNL     1      -9.469  -2.010 124.468  0.00  0.00    +0.000 OA
ATOM      6  C   UNL     1      -7.741  -3.200 125.071  0.00  0.00    +0.000 C 
ATOM      7  C   UNL     1      -7.691  -4.600 124.791  0.00  0.00    +0.000 C 
ATOM      8  C   UNL     1      -8.437  -2.387 126.548  0.00  0.00    +0.000 C 
ATOM      9  C   UNL     1      -8.861  -0.596 126.349  0.00  0.00    +0.000 C 
ATOM     10  C   UNL     1      -7.962   0.397 125.295  0.00  0.00    +0.000 C 
ATOM     11  C   UNL     1      -7.620  -0.312 123.716  0.00  0.00    +0.000 C 
ATOM     12  C   UNL     1      -6.633   0.510 122.943  0.00  0.00    +0.000 C 
ATOM     13  C   UNL     1      -7.044   1.957 122.901  0.00  0.00    +0.000 C 
ATOM     14  C   UNL     1      -7.357   2.620 124.217  0.00  0.00    +0.000 C 
ATOM     15  C   UNL     1      -6.927   3.860 124.508  0.00  0.00    +0.000 C 
ATOM     16  C   UNL     1      -7.612   4.483 125.650  0.00  0.00    +0.000 C 
ATOM     17  O   UNL     1      -8.757   4.930 125.636  0.00  0.00    +0.000 OA
ATOM     18  C   UNL     1      -7.036   4.064 126.906  0.00  0.00    +0.000 C 
ATOM     19  C   UNL     1      -7.957   2.648 126.809  0.00  0.00    +0.000 C 
ATOM     20  C   UNL     1      -8.293   1.919 125.225  0.00  0.00    +0.000 C 
ATOM     21  C   UNL     1      -9.714   1.908 124.612  0.00  0.00    +0.000 C 
ENDROOT
BRANCH  15  22
ATOM     22  O   UNL     1      -5.863   4.510 123.965  0.00  0.00    +0.000 OA
ATOM     23  H   UNL     1      -5.502   3.948 123.268  0.00  0.00    +0.000 HD
ENDBRANCH  15  22
TORSDOF 1
ENDMDL
MODEL 5
REMARK VINA RESULT:      -7.2      2.073      6.130
REMARK  Name = Formestane
REMARK  3 active torsions:
REMARK  status: ('A' for Active; 'I' for Inactive)
REMARK    1  A    between atoms: C_7  and  C_8
REMARK    2  A    between atoms: C_18  and  O_19
REMARK    3  A    between atoms: C_24  and  C_25
REMARK                            x       y       z     vdW  Elec       q    Type
REMARK                         _______ _______ _______ _____ _____    ______ ____
ROOT
ATOM      1  C   UNL     1      -7.762  -1.183 124.090  0.00  0.00    +0.000 C 
ATOM      2  C   UNL     1      -6.502  -1.868 123.818  0.00  0.00    +0.000 C 
ATOM      3  C   UNL     1      -6.813  -2.373 125.183  0.00  0.00    +0.000 C 
ATOM      4  C   UNL     1      -8.675  -1.758 125.291  0.00  0.00    +0.000 C 
ATOM      5  O   UNL     1      -9.704  -1.333 125.748  0.00  0.00    +0.000 OA
ATOM      6  C   UNL     1      -8.707  -2.764 124.436  0.00  0.00    +0.000 C 
ATOM      7  C   UNL     1      -9.388  -3.307 123.304  0.00  0.00    +0.000 C 
ATOM      8  C   UNL     1      -8.686  -3.417 126.139  0.00  0.00    +0.000 C 
ATOM      9  C   UNL     1      -8.208  -2.204 127.453  0.00  0.00    +0.000 C 
ATOM     10  C   UNL     1      -7.110  -0.944 127.115  0.00  0.00    +0.000 C 
ATOM     11  C   UNL     1      -7.401  -0.092 125.597  0.00  0.00    +0.000 C 
ATOM     12  C   UNL     1      -6.269   0.828 125.255  0.00  0.00    +0.000 C 
ATOM     13  C   UNL     1      -5.923   1.722 126.416  0.00  0.00    +0.000 C 
ATOM     14  C   UNL     1      -5.670   1.056 127.743  0.00  0.00    +0.000 C 
ATOM     15  C   UNL     1      -4.652   1.424 128.540  0.00  0.00    +0.000 C 
ATOM     16  C   UNL     1      -4.764   0.940 129.924  0.00  0.00    +0.000 C 
ATOM     17  O   UNL     1      -5.534   1.385 130.773  0.00  0.00    +0.000 OA
ATOM     18  C   UNL     1      -4.282  -0.415 130.051  0.00  0.00    +0.000 C 
ATOM     19  C   UNL     1      -5.780  -0.957 129.479  0.00  0.00    +0.000 C 
ATOM     20  C   UNL     1      -6.664  -0.000 128.272  0.00  0.00    +0.000 C 
ATOM     21  C   UNL     1      -7.984   0.731 128.614  0.00  0.00    +0.000 C 
ENDROOT
BRANCH  15  22
ATOM     22  O   UNL     1      -3.502   2.050 128.170  0.00  0.00    +0.000 OA
ATOM     23  H   UNL     1      -2.797   1.730 128.747  0.00  0.00    +0.000 HD
ENDBRANCH  15  22
TORSDOF 1
ENDMDL
MODEL 6
REMARK VINA RESULT:      -7.2      1.515      5.851
REMARK  Name = Formestane
REMARK  3 active torsions:
REMARK  status: ('A' for Active; 'I' for Inactive)
REMARK    1  A    between atoms: C_7  and  C_8
REMARK    2  A    between atoms: C_18  and  O_19
REMARK    3  A    between atoms: C_24  and  C_25
REMARK                            x       y       z     vdW  Elec       q    Type
REMARK                         _______ _______ _______ _____ _____    ______ ____
ROOT
ATOM      1  C   UNL     1      -8.515  -2.851 125.484  0.00  0.00    +0.000 C 
ATOM      2  C   UNL     1      -9.484  -1.792 125.750  0.00  0.00    +0.000 C 
ATOM      3  C   UNL     1      -8.203  -1.041 125.856  0.00  0.00    +0.000 C 
ATOM      4  C   UNL     1      -7.015  -2.402 125.086  0.00  0.00    +0.000 C 
ATOM      5  O   UNL     1      -6.036  -3.074 124.892  0.00  0.00    +0.000 OA
ATOM      6  C   UNL     1      -7.706  -1.943 124.058  0.00  0.00    +0.000 C 
ATOM      7  C   UNL     1      -8.233  -2.271 122.771  0.00  0.00    +0.000 C 
ATOM      8  C   UNL     1      -6.349  -0.787 124.440  0.00  0.00    +0.000 C 
ATOM      9  C   UNL     1      -5.544  -1.019 126.092  0.00  0.00    +0.000 C 
ATOM     10  C   UNL     1      -6.440  -1.595 127.422  0.00  0.00    +0.000 C 
ATOM     11  C   UNL     1      -7.487  -2.973 127.072  0.00  0.00    +0.000 C 
ATOM     12  C   UNL     1      -8.413  -3.267 128.213  0.00  0.00    +0.000 C 
ATOM     13  C   UNL     1      -7.660  -3.369 129.512  0.00  0.00    +0.000 C 
ATOM     14  C   UNL     1      -6.742  -2.228 129.866  0.00  0.00    +0.000 C 
ATOM     15  C   UNL     1      -6.686  -1.721 131.110  0.00  0.00    +0.000 C 
ATOM     16  C   UNL     1      -5.507  -0.881 131.366  0.00  0.00    +0.000 C 
ATOM     17  O   UNL     1      -4.361  -1.296 131.530  0.00  0.00    +0.000 OA
ATOM     18  C   UNL     1      -5.707   0.470 130.899  0.00  0.00    +0.000 C 
ATOM     19  C   UNL     1      -5.303  -0.053 129.342  0.00  0.00    +0.000 C 
ATOM     20  C   UNL     1      -5.749  -1.690 128.816  0.00  0.00    +0.000 C 
ATOM     21  C   UNL     1      -4.687  -2.789 128.571  0.00  0.00    +0.000 C 
ENDROOT
BRANCH  15  22
ATOM     22  O   UNL     1      -7.650  -1.784 132.069  0.00  0.00    +0.000 OA
ATOM     23  H   UNL     1      -7.358  -1.242 132.812  0.00  0.00    +0.000 HD
ENDBRANCH  15  22
TORSDOF 1
ENDMDL
MODEL 7
REMARK VINA RESULT:      -7.1      6.465      9.771
REMARK  Name = Formestane
REMARK  3 active torsions:
REMARK  status: ('A' for Active; 'I' for Inactive)
REMARK    1  A    between atoms: C_7  and  C_8
REMARK    2  A    between atoms: C_18  and  O_19
REMARK    3  A    between atoms: C_24  and  C_25
REMARK                            x       y       z     vdW  Elec       q    Type
REMARK                         _______ _______ _______ _____ _____    ______ ____
ROOT
ATOM      1  C   UNL     1      -3.916   4.221 126.483  0.00  0.00    +0.000 C 
ATOM      2  C   UNL     1      -2.828   3.248 126.527  0.00  0.00    +0.000 C 
ATOM      3  C   UNL     1      -3.602   2.867 127.740  0.00  0.00    +0.000 C 
ATOM      4  C   UNL     1      -5.224   3.913 127.377  0.00  0.00    +0.000 C 
ATOM      5  O   UNL     1      -6.207   4.583 127.562  0.00  0.00    +0.000 OA
ATOM      6  C   UNL     1      -5.265   2.921 126.505  0.00  0.00    +0.000 C 
ATOM      7  C   UNL     1      -5.731   2.527 125.213  0.00  0.00    +0.000 C 
ATOM      8  C   UNL     1      -5.853   2.327 128.126  0.00  0.00    +0.000 C 
ATOM      9  C   UNL     1      -5.467   3.425 129.566  0.00  0.00    +0.000 C 
ATOM     10  C   UNL     1      -4.053   4.376 129.579  0.00  0.00    +0.000 C 
ATOM     11  C   UNL     1      -3.720   5.233 128.073  0.00  0.00    +0.000 C 
ATOM     12  C   UNL     1      -2.353   5.847 128.078  0.00  0.00    +0.000 C 
ATOM     13  C   UNL     1      -2.126   6.662 129.322  0.00  0.00    +0.000 C 
ATOM     14  C   UNL     1      -2.400   5.990 130.643  0.00  0.00    +0.000 C 
ATOM     15  C   UNL     1      -1.573   6.125 131.694  0.00  0.00    +0.000 C 
ATOM     16  C   UNL     1      -2.160   5.718 132.979  0.00  0.00    +0.000 C 
ATOM     17  O   UNL     1      -2.999   6.357 133.612  0.00  0.00    +0.000 OA
ATOM     18  C   UNL     1      -2.065   4.291 133.176  0.00  0.00    +0.000 C 
ATOM     19  C   UNL     1      -3.441   4.108 132.208  0.00  0.00    +0.000 C 
ATOM     20  C   UNL     1      -3.719   5.216 130.849  0.00  0.00    +0.000 C 
ATOM     21  C   UNL     1      -4.870   6.250 130.858  0.00  0.00    +0.000 C 
ENDROOT
BRANCH  15  22
ATOM     22  O   UNL     1      -0.252   6.448 131.665  0.00  0.00    +0.000 OA
ATOM     23  H   UNL     1       0.246   5.663 131.927  0.00  0.00    +0.000 HD
ENDBRANCH  15  22
TORSDOF 1
ENDMDL
MODEL 8
REMARK VINA RESULT:      -7.1      7.068      8.902
REMARK  Name = Formestane
REMARK  3 active torsions:
REMARK  status: ('A' for Active; 'I' for Inactive)
REMARK    1  A    between atoms: C_7  and  C_8
REMARK    2  A    between atoms: C_18  and  O_19
REMARK    3  A    between atoms: C_24  and  C_25
REMARK                            x       y       z     vdW  Elec       q    Type
REMARK                         _______ _______ _______ _____ _____    ______ ____
ROOT
ATOM      1  C   UNL     1      -5.108   3.758 130.993  0.00  0.00    +0.000 C 
ATOM      2  C   UNL     1      -5.197   3.625 129.542  0.00  0.00    +0.000 C 
ATOM      3  C   UNL     1      -5.659   5.027 129.730  0.00  0.00    +0.000 C 
ATOM      4  C   UNL     1      -5.116   5.252 131.604  0.00  0.00    +0.000 C 
ATOM      5  O   UNL     1      -5.123   5.616 132.751  0.00  0.00    +0.000 OA
ATOM      6  C   UNL     1      -3.982   5.254 130.926  0.00  0.00    +0.000 C 
ATOM      7  C   UNL     1      -2.587   4.950 130.992  0.00  0.00    +0.000 C 
ATOM      8  C   UNL     1      -4.755   6.902 130.816  0.00  0.00    +0.000 C 
ATOM      9  C   UNL     1      -6.535   6.984 131.322  0.00  0.00    +0.000 C 
ATOM     10  C   UNL     1      -7.567   5.649 131.085  0.00  0.00    +0.000 C 
ATOM     11  C   UNL     1      -6.887   4.090 131.556  0.00  0.00    +0.000 C 
ATOM     12  C   UNL     1      -7.748   2.951 131.100  0.00  0.00    +0.000 C 
ATOM     13  C   UNL     1      -9.182   3.155 131.508  0.00  0.00    +0.000 C 
ATOM     14  C   UNL     1      -9.820   4.469 131.143  0.00  0.00    +0.000 C 
ATOM     15  C   UNL     1     -11.070   4.541 130.652  0.00  0.00    +0.000 C 
ATOM     16  C   UNL     1     -11.658   5.887 130.693  0.00  0.00    +0.000 C 
ATOM     17  O   UNL     1     -12.069   6.453 131.705  0.00  0.00    +0.000 OA
ATOM     18  C   UNL     1     -11.243   6.682 129.561  0.00  0.00    +0.000 C 
ATOM     19  C   UNL     1      -9.800   7.018 130.379  0.00  0.00    +0.000 C 
ATOM     20  C   UNL     1      -9.079   5.790 131.440  0.00  0.00    +0.000 C 
ATOM     21  C   UNL     1      -9.030   5.962 132.977  0.00  0.00    +0.000 C 
ENDROOT
BRANCH  15  22
ATOM     22  O   UNL     1     -11.759   3.558 130.011  0.00  0.00    +0.000 OA
ATOM     23  H   UNL     1     -12.245   3.059 130.680  0.00  0.00    +0.000 HD
ENDBRANCH  15  22
TORSDOF 1
ENDMDL
MODEL 9
REMARK VINA RESULT:      -7.0      2.271      5.972
REMARK  Name = Formestane
REMARK  3 active torsions:
REMARK  status: ('A' for Active; 'I' for Inactive)
REMARK    1  A    between atoms: C_7  and  C_8
REMARK    2  A    between atoms: C_18  and  O_19
REMARK    3  A    between atoms: C_24  and  C_25
REMARK                            x       y       z     vdW  Elec       q    Type
REMARK                         _______ _______ _______ _____ _____    ______ ____
ROOT
ATOM      1  C   UNL     1      -7.995  -2.931 126.021  0.00  0.00    +0.000 C 
ATOM      2  C   UNL     1      -9.452  -2.838 125.990  0.00  0.00    +0.000 C 
ATOM      3  C   UNL     1      -9.071  -1.406 125.851  0.00  0.00    +0.000 C 
ATOM      4  C   UNL     1      -7.159  -1.659 125.481  0.00  0.00    +0.000 C 
ATOM      5  O   UNL     1      -5.971  -1.467 125.470  0.00  0.00    +0.000 OA
ATOM      6  C   UNL     1      -7.767  -2.058 124.379  0.00  0.00    +0.000 C 
ATOM      7  C   UNL     1      -7.676  -2.930 123.251  0.00  0.00    +0.000 C 
ATOM      8  C   UNL     1      -7.658  -0.237 124.386  0.00  0.00    +0.000 C 
ATOM      9  C   UNL     1      -7.240   0.531 126.019  0.00  0.00    +0.000 C 
ATOM     10  C   UNL     1      -7.738  -0.201 127.475  0.00  0.00    +0.000 C 
ATOM     11  C   UNL     1      -7.483  -1.945 127.556  0.00  0.00    +0.000 C 
ATOM     12  C   UNL     1      -8.157  -2.548 128.751  0.00  0.00    +0.000 C 
ATOM     13  C   UNL     1      -7.798  -1.806 130.011  0.00  0.00    +0.000 C 
ATOM     14  C   UNL     1      -7.986  -0.311 130.004  0.00  0.00    +0.000 C 
ATOM     15  C   UNL     1      -8.525   0.342 131.049  0.00  0.00    +0.000 C 
ATOM     16  C   UNL     1      -8.304   1.795 131.030  0.00  0.00    +0.000 C 
ATOM     17  O   UNL     1      -7.240   2.356 131.284  0.00  0.00    +0.000 OA
ATOM     18  C   UNL     1      -9.274   2.468 130.198  0.00  0.00    +0.000 C 
ATOM     19  C   UNL     1      -8.338   2.060 128.849  0.00  0.00    +0.000 C 
ATOM     20  C   UNL     1      -7.446   0.524 128.824  0.00  0.00    +0.000 C 
ATOM     21  C   UNL     1      -5.901   0.473 128.885  0.00  0.00    +0.000 C 
ENDROOT
BRANCH  15  22
ATOM     22  O   UNL     1      -9.348  -0.170 132.003  0.00  0.00    +0.000 OA
ATOM     23  H   UNL     1      -9.873  -0.868 131.592  0.00  0.00    +0.000 HD
ENDBRANCH  15  22
TORSDOF 1
ENDMDL
