MODEL 1
REMARK VINA RESULT:      -7.4      0.000      0.000
REMARK  Name = Formoterol
REMARK  12 active torsions:
REMARK  status: ('A' for Active; 'I' for Inactive)
REMARK    1  A    between atoms: C_1  and  O_2
REMARK    2  A    between atoms: O_2  and  C_3
REMARK    3  A    between atoms: C_6  and  C_7
REMARK    4  A    between atoms: C_7  and  C_8
REMARK    5  A    between atoms: C_8  and  C_9
REMARK    6  A    between atoms: C_8  and  N_10
REMARK    7  A    between atoms: N_10  and  C_11
REMARK    8  A    between atoms: C_11  and  C_12
REMARK    9  A    between atoms: C_12  and  O_13
REMARK   10  A    between atoms: C_12  and  C_14
REMARK   11  A    between atoms: C_16  and  N_17
REMARK   12  A    between atoms: C_20  and  O_21
REMARK                            x       y       z     vdW  Elec       q    Type
REMARK                         _______ _______ _______ _____ _____    ______ ____
ROOT
ATOM      1  C   UNL     1      -9.634   1.640 123.414  0.00  0.00    +0.000 C 
ENDROOT
BRANCH   1   2
ATOM      2  C   UNL     1      -8.441   2.549 123.153  0.00  0.00    +0.000 A 
ATOM      3  C   UNL     1      -8.175   3.034 121.859  0.00  0.00    +0.000 A 
ATOM      4  C   UNL     1      -6.950   3.656 121.561  0.00  0.00    +0.000 A 
ATOM      5  C   UNL     1      -6.069   3.937 122.612  0.00  0.00    +0.000 A 
ATOM      6  C   UNL     1      -6.321   3.490 123.896  0.00  0.00    +0.000 A 
ATOM      7  C   UNL     1      -7.487   2.789 124.160  0.00  0.00    +0.000 A 
BRANCH   4   8
ATOM      8  N   UNL     1      -6.658   3.892 120.203  0.00  0.00    +0.000 N 
ATOM      9  C   UNL     1      -7.500   4.379 119.239  0.00  0.00    +0.000 C 
ATOM     10  O   UNL     1      -7.166   4.524 118.074  0.00  0.00    +0.000 OA
ATOM     11  H   UNL     1      -5.687   3.876 119.908  0.00  0.00    +0.000 HD
ENDBRANCH   4   8
BRANCH   5  12
ATOM     12  O   UNL     1      -4.940   4.693 122.484  0.00  0.00    +0.000 OA
ATOM     13  H   UNL     1      -4.288   4.145 122.016  0.00  0.00    +0.000 HD
ENDBRANCH   5  12
ENDBRANCH   1   2
BRANCH   1  14
ATOM     14  O   UNL     1     -10.255   1.930 124.668  0.00  0.00    +0.000 OA
ATOM     15  H   UNL     1      -9.619   1.683 125.358  0.00  0.00    +0.000 HD
ENDBRANCH   1  14
BRANCH   1  16
ATOM     16  C   UNL     1      -9.245   0.157 123.382  0.00  0.00    +0.000 C 
BRANCH  16  17
ATOM     17  N   UNL     1      -9.530  -0.546 124.635  0.00  0.00    +0.000 NA
ATOM     18  H   UNL     1      -9.216   0.033 125.416  0.00  0.00    +0.000 HD
BRANCH  17  19
ATOM     19  C   UNL     1      -8.865  -1.856 124.630  0.00  0.00    +0.000 C 
ATOM     20  C   UNL     1      -9.085  -2.556 123.265  0.00  0.00    +0.000 C 
BRANCH  19  21
ATOM     21  C   UNL     1      -9.389  -2.736 125.784  0.00  0.00    +0.000 C 
BRANCH  21  25
ATOM     22  C   UNL     1      -6.625  -3.007 129.105  0.00  0.00    +0.000 A 
ATOM     23  C   UNL     1      -6.291  -2.285 127.957  0.00  0.00    +0.000 A 
ATOM     24  C   UNL     1      -7.205  -2.149 126.902  0.00  0.00    +0.000 A 
ATOM     25  C   UNL     1      -8.422  -2.830 126.948  0.00  0.00    +0.000 A 
ATOM     26  C   UNL     1      -8.698  -3.605 128.084  0.00  0.00    +0.000 A 
ATOM     27  C   UNL     1      -7.854  -3.636 129.178  0.00  0.00    +0.000 A 
BRANCH  22  29
ATOM     28  C   UNL     1      -5.452  -4.296 130.682  0.00  0.00    +0.000 C 
ATOM     29  O   UNL     1      -5.726  -3.008 130.134  0.00  0.00    +0.000 OA
ENDBRANCH  22  29
ENDBRANCH  21  25
ENDBRANCH  19  21
ENDBRANCH  17  19
ENDBRANCH  16  17
ENDBRANCH   1  16
TORSDOF 10
ENDMDL
MODEL 2
REMARK VINA RESULT:      -7.4      8.944      9.875
REMARK  Name = Formoterol
REMARK  12 active torsions:
REMARK  status: ('A' for Active; 'I' for Inactive)
REMARK    1  A    between atoms: C_1  and  O_2
REMARK    2  A    between atoms: O_2  and  C_3
REMARK    3  A    between atoms: C_6  and  C_7
REMARK    4  A    between atoms: C_7  and  C_8
REMARK    5  A    between atoms: C_8  and  C_9
REMARK    6  A    between atoms: C_8  and  N_10
REMARK    7  A    between atoms: N_10  and  C_11
REMARK    8  A    between atoms: C_11  and  C_12
REMARK    9  A    between atoms: C_12  and  O_13
REMARK   10  A    between atoms: C_12  and  C_14
REMARK   11  A    between atoms: C_16  and  N_17
REMARK   12  A    between atoms: C_20  and  O_21
REMARK                            x       y       z     vdW  Elec       q    Type
REMARK                         _______ _______ _______ _____ _____    ______ ____
ROOT
ATOM      1  C   UNL     1     -11.145   5.886 131.863  0.00  0.00    +0.000 C 
ENDROOT
BRANCH   1   2
ATOM      2  C   UNL     1     -11.768   6.921 130.936  0.00  0.00    +0.000 A 
ATOM      3  C   UNL     1     -11.318   7.064 129.611  0.00  0.00    +0.000 A 
ATOM      4  C   UNL     1     -11.704   8.171 128.836  0.00  0.00    +0.000 A 
ATOM      5  C   UNL     1     -12.677   9.039 129.345  0.00  0.00    +0.000 A 
ATOM      6  C   UNL     1     -13.151   8.904 130.637  0.00  0.00    +0.000 A 
ATOM      7  C   UNL     1     -12.689   7.865 131.430  0.00  0.00    +0.000 A 
BRANCH   4   8
ATOM      8  N   UNL     1     -11.026   8.374 127.616  0.00  0.00    +0.000 N 
ATOM      9  C   UNL     1     -11.243   7.739 126.424  0.00  0.00    +0.000 C 
ATOM     10  O   UNL     1     -10.584   7.960 125.421  0.00  0.00    +0.000 OA
ATOM     11  H   UNL     1     -10.427   9.188 127.527  0.00  0.00    +0.000 HD
ENDBRANCH   4   8
BRANCH   5  12
ATOM     12  O   UNL     1     -13.266  10.037 128.625  0.00  0.00    +0.000 OA
ATOM     13  H   UNL     1     -12.556  10.647 128.361  0.00  0.00    +0.000 HD
ENDBRANCH   5  12
ENDBRANCH   1   2
BRANCH   1  14
ATOM     14  O   UNL     1     -10.398   6.501 132.915  0.00  0.00    +0.000 OA
ATOM     15  H   UNL     1      -9.561   6.016 132.983  0.00  0.00    +0.000 HD
ENDBRANCH   1  14
BRANCH   1  16
ATOM     16  C   UNL     1     -10.233   4.913 131.108  0.00  0.00    +0.000 C 
BRANCH  16  17
ATOM     17  N   UNL     1     -10.522   3.505 131.392  0.00  0.00    +0.000 NA
ATOM     18  H   UNL     1     -11.343   3.453 131.997  0.00  0.00    +0.000 HD
BRANCH  17  19
ATOM     19  C   UNL     1      -9.350   2.874 132.014  0.00  0.00    +0.000 C 
ATOM     20  C   UNL     1      -9.426   1.335 131.843  0.00  0.00    +0.000 C 
BRANCH  19  21
ATOM     21  C   UNL     1      -9.255   3.253 133.506  0.00  0.00    +0.000 C 
BRANCH  21  25
ATOM     22  C   UNL     1      -5.811   5.711 134.422  0.00  0.00    +0.000 A 
ATOM     23  C   UNL     1      -6.864   5.590 135.333  0.00  0.00    +0.000 A 
ATOM     24  C   UNL     1      -7.955   4.752 135.063  0.00  0.00    +0.000 A 
ATOM     25  C   UNL     1      -8.049   4.113 133.827  0.00  0.00    +0.000 A 
ATOM     26  C   UNL     1      -7.009   4.310 132.905  0.00  0.00    +0.000 A 
ATOM     27  C   UNL     1      -5.874   5.032 133.220  0.00  0.00    +0.000 A 
BRANCH  22  29
ATOM     28  C   UNL     1      -3.479   5.791 134.700  0.00  0.00    +0.000 C 
ATOM     29  O   UNL     1      -4.734   6.461 134.798  0.00  0.00    +0.000 OA
ENDBRANCH  22  29
ENDBRANCH  21  25
ENDBRANCH  19  21
ENDBRANCH  17  19
ENDBRANCH  16  17
ENDBRANCH   1  16
TORSDOF 10
ENDMDL
MODEL 3
REMARK VINA RESULT:      -7.4      7.242      8.190
REMARK  Name = Formoterol
REMARK  12 active torsions:
REMARK  status: ('A' for Active; 'I' for Inactive)
REMARK    1  A    between atoms: C_1  and  O_2
REMARK    2  A    between atoms: O_2  and  C_3
REMARK    3  A    between atoms: C_6  and  C_7
REMARK    4  A    between atoms: C_7  and  C_8
REMARK    5  A    between atoms: C_8  and  C_9
REMARK    6  A    between atoms: C_8  and  N_10
REMARK    7  A    between atoms: N_10  and  C_11
REMARK    8  A    between atoms: C_11  and  C_12
REMARK    9  A    between atoms: C_12  and  O_13
REMARK   10  A    between atoms: C_12  and  C_14
REMARK   11  A    between atoms: C_16  and  N_17
REMARK   12  A    between atoms: C_20  and  O_21
REMARK                            x       y       z     vdW  Elec       q    Type
REMARK                         _______ _______ _______ _____ _____    ______ ____
ROOT
ATOM      1  C   UNL     1     -11.276   5.949 131.767  0.00  0.00    +0.000 C 
ENDROOT
BRANCH   1   2
ATOM      2  C   UNL     1     -11.880   7.041 130.895  0.00  0.00    +0.000 A 
ATOM      3  C   UNL     1     -11.477   7.199 129.556  0.00  0.00    +0.000 A 
ATOM      4  C   UNL     1     -11.835   8.347 128.828  0.00  0.00    +0.000 A 
ATOM      5  C   UNL     1     -12.740   9.248 129.401  0.00  0.00    +0.000 A 
ATOM      6  C   UNL     1     -13.168   9.099 130.708  0.00  0.00    +0.000 A 
ATOM      7  C   UNL     1     -12.730   8.016 131.452  0.00  0.00    +0.000 A 
BRANCH   4   8
ATOM      8  N   UNL     1     -11.197   8.550 127.588  0.00  0.00    +0.000 N 
ATOM      9  C   UNL     1     -11.206   7.723 126.497  0.00  0.00    +0.000 C 
ATOM     10  O   UNL     1     -10.597   7.968 125.469  0.00  0.00    +0.000 OA
ATOM     11  H   UNL     1     -10.827   9.472 127.381  0.00  0.00    +0.000 HD
ENDBRANCH   4   8
BRANCH   5  12
ATOM     12  O   UNL     1     -13.304  10.296 128.733  0.00  0.00    +0.000 OA
ATOM     13  H   UNL     1     -13.460   9.996 127.822  0.00  0.00    +0.000 HD
ENDBRANCH   5  12
ENDBRANCH   1   2
BRANCH   1  14
ATOM     14  O   UNL     1     -10.481   6.495 132.822  0.00  0.00    +0.000 OA
ATOM     15  H   UNL     1      -9.564   6.228 132.647  0.00  0.00    +0.000 HD
ENDBRANCH   1  14
BRANCH   1  16
ATOM     16  C   UNL     1     -10.420   4.971 130.954  0.00  0.00    +0.000 C 
BRANCH  16  17
ATOM     17  N   UNL     1     -10.942   3.603 130.952  0.00  0.00    +0.000 NA
ATOM     18  H   UNL     1     -11.743   3.555 131.585  0.00  0.00    +0.000 HD
BRANCH  17  19
ATOM     19  C   UNL     1      -9.882   2.666 131.348  0.00  0.00    +0.000 C 
ATOM     20  C   UNL     1      -9.378   3.010 132.773  0.00  0.00    +0.000 C 
BRANCH  19  21
ATOM     21  C   UNL     1      -8.719   2.702 130.335  0.00  0.00    +0.000 C 
BRANCH  21  25
ATOM     22  C   UNL     1      -7.615  -1.221 128.874  0.00  0.00    +0.000 A 
ATOM     23  C   UNL     1      -7.732  -0.140 127.996  0.00  0.00    +0.000 A 
ATOM     24  C   UNL     1      -8.035   1.143 128.473  0.00  0.00    +0.000 A 
ATOM     25  C   UNL     1      -8.331   1.329 129.824  0.00  0.00    +0.000 A 
ATOM     26  C   UNL     1      -8.275   0.209 130.668  0.00  0.00    +0.000 A 
ATOM     27  C   UNL     1      -7.852  -1.028 130.222  0.00  0.00    +0.000 A 
BRANCH  22  29
ATOM     28  C   UNL     1      -7.974  -3.542 128.790  0.00  0.00    +0.000 C 
ATOM     29  O   UNL     1      -7.214  -2.417 128.352  0.00  0.00    +0.000 OA
ENDBRANCH  22  29
ENDBRANCH  21  25
ENDBRANCH  19  21
ENDBRANCH  17  19
ENDBRANCH  16  17
ENDBRANCH   1  16
TORSDOF 10
ENDMDL
MODEL 4
REMARK VINA RESULT:      -7.2      7.205      8.285
REMARK  Name = Formoterol
REMARK  12 active torsions:
REMARK  status: ('A' for Active; 'I' for Inactive)
REMARK    1  A    between atoms: C_1  and  O_2
REMARK    2  A    between atoms: O_2  and  C_3
REMARK    3  A    between atoms: C_6  and  C_7
REMARK    4  A    between atoms: C_7  and  C_8
REMARK    5  A    between atoms: C_8  and  C_9
REMARK    6  A    between atoms: C_8  and  N_10
REMARK    7  A    between atoms: N_10  and  C_11
REMARK    8  A    between atoms: C_11  and  C_12
REMARK    9  A    between atoms: C_12  and  O_13
REMARK   10  A    between atoms: C_12  and  C_14
REMARK   11  A    between atoms: C_16  and  N_17
REMARK   12  A    between atoms: C_20  and  O_21
REMARK                            x       y       z     vdW  Elec       q    Type
REMARK                         _______ _______ _______ _____ _____    ______ ____
ROOT
ATOM      1  C   UNL     1     -11.084   5.825 131.867  0.00  0.00    +0.000 C 
ENDROOT
BRANCH   1   2
ATOM      2  C   UNL     1     -11.710   6.859 130.941  0.00  0.00    +0.000 A 
ATOM      3  C   UNL     1     -11.260   7.006 129.616  0.00  0.00    +0.000 A 
ATOM      4  C   UNL     1     -11.648   8.114 128.843  0.00  0.00    +0.000 A 
ATOM      5  C   UNL     1     -12.625   8.977 129.353  0.00  0.00    +0.000 A 
ATOM      6  C   UNL     1     -13.099   8.838 130.645  0.00  0.00    +0.000 A 
ATOM      7  C   UNL     1     -12.634   7.799 131.436  0.00  0.00    +0.000 A 
BRANCH   4   8
ATOM      8  N   UNL     1     -10.970   8.321 127.625  0.00  0.00    +0.000 N 
ATOM      9  C   UNL     1     -11.231   7.740 126.413  0.00  0.00    +0.000 C 
ATOM     10  O   UNL     1     -10.569   7.959 125.412  0.00  0.00    +0.000 OA
ATOM     11  H   UNL     1     -10.328   9.104 127.558  0.00  0.00    +0.000 HD
ENDBRANCH   4   8
BRANCH   5  12
ATOM     12  O   UNL     1     -13.216   9.975 128.635  0.00  0.00    +0.000 OA
ATOM     13  H   UNL     1     -14.176   9.868 128.745  0.00  0.00    +0.000 HD
ENDBRANCH   5  12
ENDBRANCH   1   2
BRANCH   1  14
ATOM     14  O   UNL     1     -10.330   6.440 132.914  0.00  0.00    +0.000 OA
ATOM     15  H   UNL     1      -9.782   5.744 133.309  0.00  0.00    +0.000 HD
ENDBRANCH   1  14
BRANCH   1  16
ATOM     16  C   UNL     1     -10.178   4.848 131.109  0.00  0.00    +0.000 C 
BRANCH  16  17
ATOM     17  N   UNL     1     -10.708   3.483 131.058  0.00  0.00    +0.000 NA
ATOM     18  H   UNL     1     -11.542   3.432 131.646  0.00  0.00    +0.000 HD
BRANCH  17  19
ATOM     19  C   UNL     1      -9.675   2.534 131.498  0.00  0.00    +0.000 C 
ATOM     20  C   UNL     1      -9.396   2.721 133.011  0.00  0.00    +0.000 C 
BRANCH  19  21
ATOM     21  C   UNL     1      -8.383   2.719 130.677  0.00  0.00    +0.000 C 
BRANCH  21  25
ATOM     22  C   UNL     1      -7.941  -0.201 127.511  0.00  0.00    +0.000 A 
ATOM     23  C   UNL     1      -7.593  -0.517 128.827  0.00  0.00    +0.000 A 
ATOM     24  C   UNL     1      -7.786   0.407 129.863  0.00  0.00    +0.000 A 
ATOM     25  C   UNL     1      -8.229   1.696 129.569  0.00  0.00    +0.000 A 
ATOM     26  C   UNL     1      -8.503   2.006 128.228  0.00  0.00    +0.000 A 
ATOM     27  C   UNL     1      -8.435   1.058 127.225  0.00  0.00    +0.000 A 
BRANCH  22  29
ATOM     28  C   UNL     1      -7.791  -2.511 127.102  0.00  0.00    +0.000 C 
ATOM     29  O   UNL     1      -7.824  -1.186 126.573  0.00  0.00    +0.000 OA
ENDBRANCH  22  29
ENDBRANCH  21  25
ENDBRANCH  19  21
ENDBRANCH  17  19
ENDBRANCH  16  17
ENDBRANCH   1  16
TORSDOF 10
ENDMDL
MODEL 5
REMARK VINA RESULT:      -7.2      1.579      2.919
REMARK  Name = Formoterol
REMARK  12 active torsions:
REMARK  status: ('A' for Active; 'I' for Inactive)
REMARK    1  A    between atoms: C_1  and  O_2
REMARK    2  A    between atoms: O_2  and  C_3
REMARK    3  A    between atoms: C_6  and  C_7
REMARK    4  A    between atoms: C_7  and  C_8
REMARK    5  A    between atoms: C_8  and  C_9
REMARK    6  A    between atoms: C_8  and  N_10
REMARK    7  A    between atoms: N_10  and  C_11
REMARK    8  A    between atoms: C_11  and  C_12
REMARK    9  A    between atoms: C_12  and  O_13
REMARK   10  A    between atoms: C_12  and  C_14
REMARK   11  A    between atoms: C_16  and  N_17
REMARK   12  A    between atoms: C_20  and  O_21
REMARK                            x       y       z     vdW  Elec       q    Type
REMARK                         _______ _______ _______ _____ _____    ______ ____
ROOT
ATOM      1  C   UNL     1      -9.385   2.050 123.289  0.00  0.00    +0.000 C 
ENDROOT
BRANCH   1   2
ATOM      2  C   UNL     1      -8.043   2.692 122.963  0.00  0.00    +0.000 A 
ATOM      3  C   UNL     1      -7.136   3.023 123.986  0.00  0.00    +0.000 A 
ATOM      4  C   UNL     1      -6.021   3.837 123.724  0.00  0.00    +0.000 A 
ATOM      5  C   UNL     1      -5.735   4.172 122.395  0.00  0.00    +0.000 A 
ATOM      6  C   UNL     1      -6.601   3.838 121.370  0.00  0.00    +0.000 A 
ATOM      7  C   UNL     1      -7.751   3.120 121.654  0.00  0.00    +0.000 A 
BRANCH   4   8
ATOM      8  N   UNL     1      -5.300   4.323 124.833  0.00  0.00    +0.000 N 
ATOM      9  C   UNL     1      -5.801   4.756 126.031  0.00  0.00    +0.000 C 
ATOM     10  O   UNL     1      -5.099   5.191 126.930  0.00  0.00    +0.000 OA
ATOM     11  H   UNL     1      -4.294   4.193 124.850  0.00  0.00    +0.000 HD
ENDBRANCH   4   8
BRANCH   5  12
ATOM     12  O   UNL     1      -4.591   4.798 121.992  0.00  0.00    +0.000 OA
ATOM     13  H   UNL     1      -4.834   5.373 121.247  0.00  0.00    +0.000 HD
ENDBRANCH   5  12
ENDBRANCH   1   2
BRANCH   1  14
ATOM     14  O   UNL     1      -9.796   2.334 124.628  0.00  0.00    +0.000 OA
ATOM     15  H   UNL     1      -8.986   2.446 125.150  0.00  0.00    +0.000 HD
ENDBRANCH   1  14
BRANCH   1  16
ATOM     16  C   UNL     1      -9.359   0.531 123.088  0.00  0.00    +0.000 C 
BRANCH  16  17
ATOM     17  N   UNL     1      -9.437  -0.224 124.341  0.00  0.00    +0.000 NA
ATOM     18  H   UNL     1      -9.311   0.421 125.122  0.00  0.00    +0.000 HD
BRANCH  17  19
ATOM     19  C   UNL     1      -8.420  -1.285 124.345  0.00  0.00    +0.000 C 
ATOM     20  C   UNL     1      -7.952  -1.573 122.896  0.00  0.00    +0.000 C 
BRANCH  19  21
ATOM     21  C   UNL     1      -8.973  -2.565 125.004  0.00  0.00    +0.000 C 
BRANCH  21  25
ATOM     22  C   UNL     1      -7.523  -3.163 129.039  0.00  0.00    +0.000 A 
ATOM     23  C   UNL     1      -8.677  -3.812 128.593  0.00  0.00    +0.000 A 
ATOM     24  C   UNL     1      -9.119  -3.663 127.270  0.00  0.00    +0.000 A 
ATOM     25  C   UNL     1      -8.465  -2.775 126.416  0.00  0.00    +0.000 A 
ATOM     26  C   UNL     1      -7.350  -2.084 126.917  0.00  0.00    +0.000 A 
ATOM     27  C   UNL     1      -6.839  -2.326 128.178  0.00  0.00    +0.000 A 
BRANCH  22  29
ATOM     28  C   UNL     1      -5.965  -4.306 130.378  0.00  0.00    +0.000 C 
ATOM     29  O   UNL     1      -7.095  -3.437 130.307  0.00  0.00    +0.000 OA
ENDBRANCH  22  29
ENDBRANCH  21  25
ENDBRANCH  19  21
ENDBRANCH  17  19
ENDBRANCH  16  17
ENDBRANCH   1  16
TORSDOF 10
ENDMDL
MODEL 6
REMARK VINA RESULT:      -7.2      8.791     10.204
REMARK  Name = Formoterol
REMARK  12 active torsions:
REMARK  status: ('A' for Active; 'I' for Inactive)
REMARK    1  A    between atoms: C_1  and  O_2
REMARK    2  A    between atoms: O_2  and  C_3
REMARK    3  A    between atoms: C_6  and  C_7
REMARK    4  A    between atoms: C_7  and  C_8
REMARK    5  A    between atoms: C_8  and  C_9
REMARK    6  A    between atoms: C_8  and  N_10
REMARK    7  A    between atoms: N_10  and  C_11
REMARK    8  A    between atoms: C_11  and  C_12
REMARK    9  A    between atoms: C_12  and  O_13
REMARK   10  A    between atoms: C_12  and  C_14
REMARK   11  A    between atoms: C_16  and  N_17
REMARK   12  A    between atoms: C_20  and  O_21
REMARK                            x       y       z     vdW  Elec       q    Type
REMARK                         _______ _______ _______ _____ _____    ______ ____
ROOT
ATOM      1  C   UNL     1     -11.178   5.968 131.929  0.00  0.00    +0.000 C 
ENDROOT
BRANCH   1   2
ATOM      2  C   UNL     1     -11.791   6.973 130.964  0.00  0.00    +0.000 A 
ATOM      3  C   UNL     1     -11.316   7.087 129.644  0.00  0.00    +0.000 A 
ATOM      4  C   UNL     1     -11.695   8.171 128.834  0.00  0.00    +0.000 A 
ATOM      5  C   UNL     1     -12.685   9.043 129.302  0.00  0.00    +0.000 A 
ATOM      6  C   UNL     1     -13.184   8.936 130.588  0.00  0.00    +0.000 A 
ATOM      7  C   UNL     1     -12.729   7.921 131.415  0.00  0.00    +0.000 A 
BRANCH   4   8
ATOM      8  N   UNL     1     -10.994   8.350 127.624  0.00  0.00    +0.000 N 
ATOM      9  C   UNL     1     -11.239   7.747 126.420  0.00  0.00    +0.000 C 
ATOM     10  O   UNL     1     -10.558   7.941 125.426  0.00  0.00    +0.000 OA
ATOM     11  H   UNL     1     -10.345   9.126 127.553  0.00  0.00    +0.000 HD
ENDBRANCH   4   8
BRANCH   5  12
ATOM     12  O   UNL     1     -13.267  10.018 128.546  0.00  0.00    +0.000 OA
ATOM     13  H   UNL     1     -12.599  10.309 127.902  0.00  0.00    +0.000 HD
ENDBRANCH   5  12
ENDBRANCH   1   2
BRANCH   1  14
ATOM     14  O   UNL     1     -10.516   6.615 133.017  0.00  0.00    +0.000 OA
ATOM     15  H   UNL     1     -11.102   7.330 133.314  0.00  0.00    +0.000 HD
ENDBRANCH   1  14
BRANCH   1  16
ATOM     16  C   UNL     1     -10.187   5.030 131.229  0.00  0.00    +0.000 C 
BRANCH  16  17
ATOM     17  N   UNL     1      -9.878   3.827 132.005  0.00  0.00    +0.000 NA
ATOM     18  H   UNL     1     -10.366   3.878 132.901  0.00  0.00    +0.000 HD
BRANCH  17  19
ATOM     19  C   UNL     1      -8.424   3.713 132.186  0.00  0.00    +0.000 C 
ATOM     20  C   UNL     1      -8.065   2.296 132.700  0.00  0.00    +0.000 C 
BRANCH  19  21
ATOM     21  C   UNL     1      -7.911   4.793 133.160  0.00  0.00    +0.000 C 
BRANCH  21  25
ATOM     22  C   UNL     1      -4.517   7.000 131.627  0.00  0.00    +0.000 A 
ATOM     23  C   UNL     1      -4.392   6.198 132.765  0.00  0.00    +0.000 A 
ATOM     24  C   UNL     1      -5.474   5.439 133.232  0.00  0.00    +0.000 A 
ATOM     25  C   UNL     1      -6.723   5.565 132.623  0.00  0.00    +0.000 A 
ATOM     26  C   UNL     1      -6.834   6.433 131.526  0.00  0.00    +0.000 A 
ATOM     27  C   UNL     1      -5.739   7.082 130.987  0.00  0.00    +0.000 A 
BRANCH  22  29
ATOM     28  C   UNL     1      -2.642   8.307 132.174  0.00  0.00    +0.000 C 
ATOM     29  O   UNL     1      -3.393   7.627 131.170  0.00  0.00    +0.000 OA
ENDBRANCH  22  29
ENDBRANCH  21  25
ENDBRANCH  19  21
ENDBRANCH  17  19
ENDBRANCH  16  17
ENDBRANCH   1  16
TORSDOF 10
ENDMDL
MODEL 7
REMARK VINA RESULT:      -7.1      2.775      3.480
REMARK  Name = Formoterol
REMARK  12 active torsions:
REMARK  status: ('A' for Active; 'I' for Inactive)
REMARK    1  A    between atoms: C_1  and  O_2
REMARK    2  A    between atoms: O_2  and  C_3
REMARK    3  A    between atoms: C_6  and  C_7
REMARK    4  A    between atoms: C_7  and  C_8
REMARK    5  A    between atoms: C_8  and  C_9
REMARK    6  A    between atoms: C_8  and  N_10
REMARK    7  A    between atoms: N_10  and  C_11
REMARK    8  A    between atoms: C_11  and  C_12
REMARK    9  A    between atoms: C_12  and  O_13
REMARK   10  A    between atoms: C_12  and  C_14
REMARK   11  A    between atoms: C_16  and  N_17
REMARK   12  A    between atoms: C_20  and  O_21
REMARK                            x       y       z     vdW  Elec       q    Type
REMARK                         _______ _______ _______ _____ _____    ______ ____
ROOT
ATOM      1  C   UNL     1      -9.495   0.138 123.005  0.00  0.00    +0.000 C 
ENDROOT
BRANCH   1   2
ATOM      2  C   UNL     1      -9.125   0.847 124.301  0.00  0.00    +0.000 A 
ATOM      3  C   UNL     1      -8.389   2.046 124.281  0.00  0.00    +0.000 A 
ATOM      4  C   UNL     1      -7.829   2.566 125.460  0.00  0.00    +0.000 A 
ATOM      5  C   UNL     1      -8.160   1.965 126.680  0.00  0.00    +0.000 A 
ATOM      6  C   UNL     1      -8.902   0.799 126.725  0.00  0.00    +0.000 A 
ATOM      7  C   UNL     1      -9.366   0.237 125.547  0.00  0.00    +0.000 A 
BRANCH   4   8
ATOM      8  N   UNL     1      -6.908   3.625 125.326  0.00  0.00    +0.000 N 
ATOM      9  C   UNL     1      -7.176   4.967 125.294  0.00  0.00    +0.000 C 
ATOM     10  O   UNL     1      -6.312   5.816 125.145  0.00  0.00    +0.000 OA
ATOM     11  H   UNL     1      -5.920   3.421 125.436  0.00  0.00    +0.000 HD
ENDBRANCH   4   8
BRANCH   5  12
ATOM     12  O   UNL     1      -7.833   2.479 127.901  0.00  0.00    +0.000 OA
ATOM     13  H   UNL     1      -7.186   3.187 127.743  0.00  0.00    +0.000 HD
ENDBRANCH   5  12
ENDBRANCH   1   2
BRANCH   1  14
ATOM     14  O   UNL     1     -10.852   0.390 122.634  0.00  0.00    +0.000 OA
ATOM     15  H   UNL     1     -11.178  -0.417 122.205  0.00  0.00    +0.000 HD
ENDBRANCH   1  14
BRANCH   1  16
ATOM     16  C   UNL     1      -9.276  -1.377 123.096  0.00  0.00    +0.000 C 
BRANCH  16  17
ATOM     17  N   UNL     1      -8.005  -1.817 122.516  0.00  0.00    +0.000 NA
ATOM     18  H   UNL     1      -8.186  -2.588 121.872  0.00  0.00    +0.000 HD
BRANCH  17  19
ATOM     19  C   UNL     1      -7.081  -2.212 123.589  0.00  0.00    +0.000 C 
ATOM     20  C   UNL     1      -5.717  -2.630 122.984  0.00  0.00    +0.000 C 
BRANCH  19  21
ATOM     21  C   UNL     1      -7.681  -3.359 124.427  0.00  0.00    +0.000 C 
BRANCH  21  25
ATOM     22  C   UNL     1      -7.680  -2.542 128.679  0.00  0.00    +0.000 A 
ATOM     23  C   UNL     1      -6.696  -2.001 127.848  0.00  0.00    +0.000 A 
ATOM     24  C   UNL     1      -6.724  -2.218 126.463  0.00  0.00    +0.000 A 
ATOM     25  C   UNL     1      -7.682  -3.072 125.915  0.00  0.00    +0.000 A 
ATOM     26  C   UNL     1      -8.614  -3.658 126.786  0.00  0.00    +0.000 A 
ATOM     27  C   UNL     1      -8.665  -3.343 128.130  0.00  0.00    +0.000 A 
BRANCH  22  29
ATOM     28  C   UNL     1      -7.103  -3.202 130.859  0.00  0.00    +0.000 C 
ATOM     29  O   UNL     1      -7.648  -2.202 130.001  0.00  0.00    +0.000 OA
ENDBRANCH  22  29
ENDBRANCH  21  25
ENDBRANCH  19  21
ENDBRANCH  17  19
ENDBRANCH  16  17
ENDBRANCH   1  16
TORSDOF 10
ENDMDL
MODEL 8
REMARK VINA RESULT:      -6.9      7.278      8.860
REMARK  Name = Formoterol
REMARK  12 active torsions:
REMARK  status: ('A' for Active; 'I' for Inactive)
REMARK    1  A    between atoms: C_1  and  O_2
REMARK    2  A    between atoms: O_2  and  C_3
REMARK    3  A    between atoms: C_6  and  C_7
REMARK    4  A    between atoms: C_7  and  C_8
REMARK    5  A    between atoms: C_8  and  C_9
REMARK    6  A    between atoms: C_8  and  N_10
REMARK    7  A    between atoms: N_10  and  C_11
REMARK    8  A    between atoms: C_11  and  C_12
REMARK    9  A    between atoms: C_12  and  O_13
REMARK   10  A    between atoms: C_12  and  C_14
REMARK   11  A    between atoms: C_16  and  N_17
REMARK   12  A    between atoms: C_20  and  O_21
REMARK                            x       y       z     vdW  Elec       q    Type
REMARK                         _______ _______ _______ _____ _____    ______ ____
ROOT
ATOM      1  C   UNL     1     -11.431   5.874 131.657  0.00  0.00    +0.000 C 
ENDROOT
BRANCH   1   2
ATOM      2  C   UNL     1     -12.000   7.031 130.847  0.00  0.00    +0.000 A 
ATOM      3  C   UNL     1     -11.636   7.214 129.500  0.00  0.00    +0.000 A 
ATOM      4  C   UNL     1     -11.949   8.406 128.826  0.00  0.00    +0.000 A 
ATOM      5  C   UNL     1     -12.776   9.338 129.462  0.00  0.00    +0.000 A 
ATOM      6  C   UNL     1     -13.166   9.168 130.779  0.00  0.00    +0.000 A 
ATOM      7  C   UNL     1     -12.768   8.034 131.469  0.00  0.00    +0.000 A 
BRANCH   4   8
ATOM      8  N   UNL     1     -11.345   8.616 127.570  0.00  0.00    +0.000 N 
ATOM      9  C   UNL     1     -11.140   7.697 126.576  0.00  0.00    +0.000 C 
ATOM     10  O   UNL     1     -10.579   7.964 125.526  0.00  0.00    +0.000 OA
ATOM     11  H   UNL     1     -11.189   9.571 127.263  0.00  0.00    +0.000 HD
ENDBRANCH   4   8
BRANCH   5  12
ATOM     12  O   UNL     1     -13.299  10.442 128.853  0.00  0.00    +0.000 OA
ATOM     13  H   UNL     1     -14.161  10.609 129.269  0.00  0.00    +0.000 HD
ENDBRANCH   5  12
ENDBRANCH   1   2
BRANCH   1  14
ATOM     14  O   UNL     1     -10.595   6.334 132.721  0.00  0.00    +0.000 OA
ATOM     15  H   UNL     1     -11.035   7.108 133.107  0.00  0.00    +0.000 HD
ENDBRANCH   1  14
BRANCH   1  16
ATOM     16  C   UNL     1     -10.636   4.896 130.785  0.00  0.00    +0.000 C 
BRANCH  16  17
ATOM     17  N   UNL     1      -9.555   4.220 131.506  0.00  0.00    +0.000 NA
ATOM     18  H   UNL     1      -8.685   4.735 131.354  0.00  0.00    +0.000 HD
BRANCH  17  19
ATOM     19  C   UNL     1      -9.448   2.828 131.048  0.00  0.00    +0.000 C 
ATOM     20  C   UNL     1      -9.706   1.862 132.232  0.00  0.00    +0.000 C 
BRANCH  19  21
ATOM     21  C   UNL     1      -8.063   2.566 130.422  0.00  0.00    +0.000 C 
BRANCH  21  25
ATOM     22  C   UNL     1      -8.067   2.866 126.103  0.00  0.00    +0.000 A 
ATOM     23  C   UNL     1      -7.649   3.941 126.892  0.00  0.00    +0.000 A 
ATOM     24  C   UNL     1      -7.594   3.828 128.289  0.00  0.00    +0.000 A 
ATOM     25  C   UNL     1      -8.063   2.671 128.910  0.00  0.00    +0.000 A 
ATOM     26  C   UNL     1      -8.544   1.636 128.093  0.00  0.00    +0.000 A 
ATOM     27  C   UNL     1      -8.479   1.696 126.714  0.00  0.00    +0.000 A 
BRANCH  22  29
ATOM     28  C   UNL     1      -8.823   2.117 124.007  0.00  0.00    +0.000 C 
ATOM     29  O   UNL     1      -7.994   3.012 124.747  0.00  0.00    +0.000 OA
ENDBRANCH  22  29
ENDBRANCH  21  25
ENDBRANCH  19  21
ENDBRANCH  17  19
ENDBRANCH  16  17
ENDBRANCH   1  16
TORSDOF 10
ENDMDL
MODEL 9
REMARK VINA RESULT:      -6.9      3.193      4.433
REMARK  Name = Formoterol
REMARK  12 active torsions:
REMARK  status: ('A' for Active; 'I' for Inactive)
REMARK    1  A    between atoms: C_1  and  O_2
REMARK    2  A    between atoms: O_2  and  C_3
REMARK    3  A    between atoms: C_6  and  C_7
REMARK    4  A    between atoms: C_7  and  C_8
REMARK    5  A    between atoms: C_8  and  C_9
REMARK    6  A    between atoms: C_8  and  N_10
REMARK    7  A    between atoms: N_10  and  C_11
REMARK    8  A    between atoms: C_11  and  C_12
REMARK    9  A    between atoms: C_12  and  O_13
REMARK   10  A    between atoms: C_12  and  C_14
REMARK   11  A    between atoms: C_16  and  N_17
REMARK   12  A    between atoms: C_20  and  O_21
REMARK                            x       y       z     vdW  Elec       q    Type
REMARK                         _______ _______ _______ _____ _____    ______ ____
ROOT
ATOM      1  C   UNL     1      -8.705   1.584 125.100  0.00  0.00    +0.000 C 
ENDROOT
BRANCH   1   2
ATOM      2  C   UNL     1      -7.760   1.586 126.294  0.00  0.00    +0.000 A 
ATOM      3  C   UNL     1      -6.394   1.877 126.130  0.00  0.00    +0.000 A 
ATOM      4  C   UNL     1      -5.477   1.635 127.168  0.00  0.00    +0.000 A 
ATOM      5  C   UNL     1      -5.970   1.261 128.423  0.00  0.00    +0.000 A 
ATOM      6  C   UNL     1      -7.313   0.992 128.614  0.00  0.00    +0.000 A 
ATOM      7  C   UNL     1      -8.197   1.138 127.556  0.00  0.00    +0.000 A 
BRANCH   4   8
ATOM      8  N   UNL     1      -4.106   1.717 126.851  0.00  0.00    +0.000 N 
ATOM      9  C   UNL     1      -3.345   2.847 126.719  0.00  0.00    +0.000 C 
ATOM     10  O   UNL     1      -2.164   2.824 126.412  0.00  0.00    +0.000 OA
ATOM     11  H   UNL     1      -3.551   0.869 126.888  0.00  0.00    +0.000 HD
ENDBRANCH   4   8
BRANCH   5  12
ATOM     12  O   UNL     1      -5.207   1.174 129.551  0.00  0.00    +0.000 OA
ATOM     13  H   UNL     1      -5.724   1.576 130.270  0.00  0.00    +0.000 HD
ENDBRANCH   5  12
ENDBRANCH   1   2
BRANCH   1  14
ATOM     14  O   UNL     1      -9.365   2.843 124.946  0.00  0.00    +0.000 OA
ATOM     15  H   UNL     1      -8.993   3.256 124.151  0.00  0.00    +0.000 HD
ENDBRANCH   1  14
BRANCH   1  16
ATOM     16  C   UNL     1      -9.762   0.478 125.205  0.00  0.00    +0.000 C 
BRANCH  16  17
ATOM     17  N   UNL     1      -9.729  -0.466 124.085  0.00  0.00    +0.000 NA
ATOM     18  H   UNL     1     -10.665  -0.853 123.953  0.00  0.00    +0.000 HD
BRANCH  17  19
ATOM     19  C   UNL     1      -8.739  -1.518 124.352  0.00  0.00    +0.000 C 
ATOM     20  C   UNL     1      -8.650  -2.479 123.139  0.00  0.00    +0.000 C 
BRANCH  19  21
ATOM     21  C   UNL     1      -9.102  -2.292 125.636  0.00  0.00    +0.000 C 
BRANCH  21  25
ATOM     22  C   UNL     1      -5.843  -2.492 128.479  0.00  0.00    +0.000 A 
ATOM     23  C   UNL     1      -7.154  -2.768 128.876  0.00  0.00    +0.000 A 
ATOM     24  C   UNL     1      -8.203  -2.758 127.946  0.00  0.00    +0.000 A 
ATOM     25  C   UNL     1      -7.961  -2.363 126.631  0.00  0.00    +0.000 A 
ATOM     26  C   UNL     1      -6.645  -2.023 126.280  0.00  0.00    +0.000 A 
ATOM     27  C   UNL     1      -5.590  -2.156 127.162  0.00  0.00    +0.000 A 
BRANCH  22  29
ATOM     28  C   UNL     1      -5.215  -2.172 130.721  0.00  0.00    +0.000 C 
ATOM     29  O   UNL     1      -4.858  -2.624 129.416  0.00  0.00    +0.000 OA
ENDBRANCH  22  29
ENDBRANCH  21  25
ENDBRANCH  19  21
ENDBRANCH  17  19
ENDBRANCH  16  17
ENDBRANCH   1  16
TORSDOF 10
ENDMDL
