MODEL 1
REMARK VINA RESULT:      -9.3      0.000      0.000
REMARK  Name = Fosaprepitant
REMARK  12 active torsions:
REMARK  status: ('A' for Active; 'I' for Inactive)
REMARK    1  A    between atoms: C_1  and  C_2
REMARK    2  A    between atoms: C_2  and  O_3
REMARK    3  A    between atoms: C_2  and  C_28
REMARK    4  A    between atoms: O_3  and  C_4
REMARK    5  A    between atoms: N_8  and  C_9
REMARK    6  A    between atoms: C_9  and  C_10
REMARK    7  A    between atoms: N_14  and  P_16
REMARK    8  A    between atoms: P_16  and  O_17
REMARK    9  A    between atoms: P_16  and  O_18
REMARK   10  A    between atoms: C_20  and  C_21
REMARK   11  A    between atoms: C_30  and  C_38
REMARK   12  A    between atoms: C_32  and  C_34
REMARK                            x       y       z     vdW  Elec       q    Type
REMARK                         _______ _______ _______ _____ _____    ______ ____
ROOT
ATOM      1  C   UNL     1      -7.816   3.941 131.710  0.00  0.00    +0.000 C 
ATOM      2  O   UNL     1      -7.609   3.624 133.087  0.00  0.00    +0.000 OA
ATOM      3  C   UNL     1      -8.494   4.338 133.960  0.00  0.00    +0.000 C 
ATOM      4  C   UNL     1      -8.578   5.861 133.701  0.00  0.00    +0.000 C 
ATOM      5  N   UNL     1      -8.812   6.197 132.276  0.00  0.00    +0.000 NA
ATOM      6  C   UNL     1      -7.764   5.530 131.460  0.00  0.00    +0.000 C 
ENDROOT
BRANCH   6   7
ATOM      7  C   UNL     1      -6.433   6.310 131.593  0.00  0.00    +0.000 A 
ATOM      8  C   UNL     1      -5.392   5.859 132.448  0.00  0.00    +0.000 A 
ATOM      9  C   UNL     1      -4.076   6.281 132.306  0.00  0.00    +0.000 A 
ATOM     10  C   UNL     1      -3.791   7.230 131.346  0.00  0.00    +0.000 A 
ATOM     11  F   UNL     1      -2.512   7.543 131.115  0.00  0.00    +0.000 F 
ATOM     12  C   UNL     1      -4.794   7.760 130.534  0.00  0.00    +0.000 A 
ATOM     13  C   UNL     1      -6.119   7.318 130.658  0.00  0.00    +0.000 A 
ENDBRANCH   6   7
BRANCH   1  14
ATOM     14  O   UNL     1      -7.061   3.131 130.793  0.00  0.00    +0.000 OA
BRANCH  14  16
ATOM     15  C   UNL     1      -7.445   1.873 128.816  0.00  0.00    +0.000 C 
ATOM     16  C   UNL     1      -7.524   3.219 129.445  0.00  0.00    +0.000 C 
BRANCH  16  17
ATOM     17  C   UNL     1      -6.603   3.966 128.548  0.00  0.00    +0.000 A 
ATOM     18  C   UNL     1      -6.946   4.012 127.194  0.00  0.00    +0.000 A 
ATOM     19  C   UNL     1      -5.963   4.278 126.254  0.00  0.00    +0.000 A 
ATOM     20  C   UNL     1      -4.679   4.628 126.693  0.00  0.00    +0.000 A 
ATOM     21  C   UNL     1      -4.328   4.560 128.048  0.00  0.00    +0.000 A 
ATOM     22  C   UNL     1      -5.298   4.214 128.973  0.00  0.00    +0.000 A 
BRANCH  21  23
ATOM     23  C   UNL     1      -2.915   4.787 128.495  0.00  0.00    +0.000 C 
ATOM     24  F   UNL     1      -2.727   4.457 129.800  0.00  0.00    +0.000 F 
ATOM     25  F   UNL     1      -2.037   4.047 127.774  0.00  0.00    +0.000 F 
ATOM     26  F   UNL     1      -2.516   6.085 128.374  0.00  0.00    +0.000 F 
ENDBRANCH  21  23
BRANCH  19  27
ATOM     27  C   UNL     1      -6.256   4.060 124.797  0.00  0.00    +0.000 C 
ATOM     28  F   UNL     1      -5.659   5.002 124.011  0.00  0.00    +0.000 F 
ATOM     29  F   UNL     1      -5.811   2.859 124.349  0.00  0.00    +0.000 F 
ATOM     30  F   UNL     1      -7.582   4.119 124.510  0.00  0.00    +0.000 F 
ENDBRANCH  19  27
ENDBRANCH  16  17
ENDBRANCH  14  16
ENDBRANCH   1  14
BRANCH   5  31
ATOM     31  C   UNL     1     -10.182   5.754 131.967  0.00  0.00    +0.000 C 
BRANCH  31  32
ATOM     32  C   UNL     1     -10.753   6.463 130.786  0.00  0.00    +0.000 A 
ATOM     33  N   UNL     1     -11.740   7.290 130.946  0.00  0.00    +0.000 NA
ATOM     34  C   UNL     1     -11.998   7.765 129.686  0.00  0.00    +0.000 A 
ATOM     35  O   UNL     1     -12.943   8.470 129.414  0.00  0.00    +0.000 OA
ATOM     36  N   UNL     1     -11.046   7.252 128.802  0.00  0.00    +0.000 N 
ATOM     37  N   UNL     1     -10.344   6.299 129.482  0.00  0.00    +0.000 N 
ATOM     38  H   UNL     1      -9.543   5.826 129.086  0.00  0.00    +0.000 HD
BRANCH  36  39
ATOM     39  P   UNL     1     -10.925   7.622 127.065  0.00  0.00    +0.000 P 
ATOM     40  O   UNL     1     -10.820   7.944 125.554  0.00  0.00    +0.000 OA
BRANCH  39  41
ATOM     41  O   UNL     1      -9.810   6.448 126.858  0.00  0.00    +0.000 OA
ATOM     42  H   UNL     1      -8.920   6.624 126.491  0.00  0.00    +0.000 HD
ENDBRANCH  39  41
BRANCH  39  43
ATOM     43  O   UNL     1     -12.318   6.770 126.902  0.00  0.00    +0.000 OA
ATOM     44  H   UNL     1     -13.106   7.298 126.699  0.00  0.00    +0.000 HD
ENDBRANCH  39  43
ENDBRANCH  36  39
ENDBRANCH  31  32
ENDBRANCH   5  31
TORSDOF 11
ENDMDL
MODEL 2
REMARK VINA RESULT:      -9.1      0.403      2.751
REMARK  Name = Fosaprepitant
REMARK  12 active torsions:
REMARK  status: ('A' for Active; 'I' for Inactive)
REMARK    1  A    between atoms: C_1  and  C_2
REMARK    2  A    between atoms: C_2  and  O_3
REMARK    3  A    between atoms: C_2  and  C_28
REMARK    4  A    between atoms: O_3  and  C_4
REMARK    5  A    between atoms: N_8  and  C_9
REMARK    6  A    between atoms: C_9  and  C_10
REMARK    7  A    between atoms: N_14  and  P_16
REMARK    8  A    between atoms: P_16  and  O_17
REMARK    9  A    between atoms: P_16  and  O_18
REMARK   10  A    between atoms: C_20  and  C_21
REMARK   11  A    between atoms: C_30  and  C_38
REMARK   12  A    between atoms: C_32  and  C_34
REMARK                            x       y       z     vdW  Elec       q    Type
REMARK                         _______ _______ _______ _____ _____    ______ ____
ROOT
ATOM      1  C   UNL     1      -7.949   3.988 131.741  0.00  0.00    +0.000 C 
ATOM      2  O   UNL     1      -7.721   3.638 133.107  0.00  0.00    +0.000 OA
ATOM      3  C   UNL     1      -8.584   4.340 134.011  0.00  0.00    +0.000 C 
ATOM      4  C   UNL     1      -8.656   5.869 133.789  0.00  0.00    +0.000 C 
ATOM      5  N   UNL     1      -8.911   6.240 132.376  0.00  0.00    +0.000 NA
ATOM      6  C   UNL     1      -7.885   5.582 131.526  0.00  0.00    +0.000 C 
ENDROOT
BRANCH   6   7
ATOM      7  C   UNL     1      -6.543   6.345 131.653  0.00  0.00    +0.000 A 
ATOM      8  C   UNL     1      -5.558   5.958 132.601  0.00  0.00    +0.000 A 
ATOM      9  C   UNL     1      -4.227   6.339 132.488  0.00  0.00    +0.000 A 
ATOM     10  C   UNL     1      -3.871   7.184 131.458  0.00  0.00    +0.000 A 
ATOM     11  F   UNL     1      -2.574   7.448 131.264  0.00  0.00    +0.000 F 
ATOM     12  C   UNL     1      -4.819   7.653 130.547  0.00  0.00    +0.000 A 
ATOM     13  C   UNL     1      -6.158   7.251 130.644  0.00  0.00    +0.000 A 
ENDBRANCH   6   7
BRANCH   1  14
ATOM     14  O   UNL     1      -7.219   3.192 130.793  0.00  0.00    +0.000 OA
BRANCH  14  16
ATOM     15  C   UNL     1      -8.275   2.070 128.985  0.00  0.00    +0.000 C 
ATOM     16  C   UNL     1      -7.676   3.351 129.448  0.00  0.00    +0.000 C 
BRANCH  16  17
ATOM     17  C   UNL     1      -6.574   3.482 128.459  0.00  0.00    +0.000 A 
ATOM     18  C   UNL     1      -5.283   3.628 128.973  0.00  0.00    +0.000 A 
ATOM     19  C   UNL     1      -4.296   4.190 128.178  0.00  0.00    +0.000 A 
ATOM     20  C   UNL     1      -4.583   4.473 126.836  0.00  0.00    +0.000 A 
ATOM     21  C   UNL     1      -5.882   4.349 126.326  0.00  0.00    +0.000 A 
ATOM     22  C   UNL     1      -6.880   3.862 127.152  0.00  0.00    +0.000 A 
BRANCH  21  23
ATOM     23  C   UNL     1      -6.214   4.798 124.934  0.00  0.00    +0.000 C 
ATOM     24  F   UNL     1      -7.418   4.328 124.514  0.00  0.00    +0.000 F 
ATOM     25  F   UNL     1      -6.268   6.149 124.843  0.00  0.00    +0.000 F 
ATOM     26  F   UNL     1      -5.305   4.384 124.006  0.00  0.00    +0.000 F 
ENDBRANCH  21  23
BRANCH  19  27
ATOM     27  C   UNL     1      -2.993   4.602 128.801  0.00  0.00    +0.000 C 
ATOM     28  F   UNL     1      -1.929   3.990 128.207  0.00  0.00    +0.000 F 
ATOM     29  F   UNL     1      -2.765   5.937 128.700  0.00  0.00    +0.000 F 
ATOM     30  F   UNL     1      -2.915   4.290 130.120  0.00  0.00    +0.000 F 
ENDBRANCH  19  27
ENDBRANCH  16  17
ENDBRANCH  14  16
ENDBRANCH   1  14
BRANCH   5  31
ATOM     31  C   UNL     1     -10.291   5.819 132.082  0.00  0.00    +0.000 C 
BRANCH  31  32
ATOM     32  C   UNL     1     -10.844   6.498 130.875  0.00  0.00    +0.000 A 
ATOM     33  N   UNL     1     -11.861   7.296 130.993  0.00  0.00    +0.000 NA
ATOM     34  C   UNL     1     -12.092   7.749 129.720  0.00  0.00    +0.000 A 
ATOM     35  O   UNL     1     -13.049   8.422 129.410  0.00  0.00    +0.000 OA
ATOM     36  N   UNL     1     -11.096   7.256 128.874  0.00  0.00    +0.000 N 
ATOM     37  N   UNL     1     -10.389   6.333 129.587  0.00  0.00    +0.000 N 
ATOM     38  H   UNL     1      -9.561   5.880 129.222  0.00  0.00    +0.000 HD
BRANCH  36  39
ATOM     39  P   UNL     1     -10.931   7.611 127.137  0.00  0.00    +0.000 P 
ATOM     40  O   UNL     1     -10.787   7.921 125.627  0.00  0.00    +0.000 OA
BRANCH  39  41
ATOM     41  O   UNL     1      -9.791   6.454 126.975  0.00  0.00    +0.000 OA
ATOM     42  H   UNL     1      -9.167   6.224 127.692  0.00  0.00    +0.000 HD
ENDBRANCH  39  41
BRANCH  39  43
ATOM     43  O   UNL     1     -12.304   6.735 126.942  0.00  0.00    +0.000 OA
ATOM     44  H   UNL     1     -12.306   6.128 126.185  0.00  0.00    +0.000 HD
ENDBRANCH  39  43
ENDBRANCH  36  39
ENDBRANCH  31  32
ENDBRANCH   5  31
TORSDOF 11
ENDMDL
MODEL 3
REMARK VINA RESULT:      -9.0      4.820      7.546
REMARK  Name = Fosaprepitant
REMARK  12 active torsions:
REMARK  status: ('A' for Active; 'I' for Inactive)
REMARK    1  A    between atoms: C_1  and  C_2
REMARK    2  A    between atoms: C_2  and  O_3
REMARK    3  A    between atoms: C_2  and  C_28
REMARK    4  A    between atoms: O_3  and  C_4
REMARK    5  A    between atoms: N_8  and  C_9
REMARK    6  A    between atoms: C_9  and  C_10
REMARK    7  A    between atoms: N_14  and  P_16
REMARK    8  A    between atoms: P_16  and  O_17
REMARK    9  A    between atoms: P_16  and  O_18
REMARK   10  A    between atoms: C_20  and  C_21
REMARK   11  A    between atoms: C_30  and  C_38
REMARK   12  A    between atoms: C_32  and  C_34
REMARK                            x       y       z     vdW  Elec       q    Type
REMARK                         _______ _______ _______ _____ _____    ______ ____
ROOT
ATOM      1  C   UNL     1      -4.947   4.190 129.564  0.00  0.00    +0.000 C 
ATOM      2  O   UNL     1      -4.145   3.014 129.681  0.00  0.00    +0.000 OA
ATOM      3  C   UNL     1      -4.064   2.273 128.456  0.00  0.00    +0.000 C 
ATOM      4  C   UNL     1      -5.422   2.006 127.765  0.00  0.00    +0.000 C 
ATOM      5  N   UNL     1      -6.252   3.226 127.622  0.00  0.00    +0.000 NA
ATOM      6  C   UNL     1      -6.401   3.850 128.963  0.00  0.00    +0.000 C 
ENDROOT
BRANCH   6   7
ATOM      7  C   UNL     1      -7.433   3.048 129.793  0.00  0.00    +0.000 A 
ATOM      8  C   UNL     1      -7.061   2.371 130.986  0.00  0.00    +0.000 A 
ATOM      9  C   UNL     1      -7.989   1.989 131.946  0.00  0.00    +0.000 A 
ATOM     10  C   UNL     1      -9.326   2.211 131.691  0.00  0.00    +0.000 A 
ATOM     11  F   UNL     1     -10.212   1.968 132.663  0.00  0.00    +0.000 F 
ATOM     12  C   UNL     1      -9.746   2.803 130.499  0.00  0.00    +0.000 A 
ATOM     13  C   UNL     1      -8.811   3.212 129.539  0.00  0.00    +0.000 A 
ENDBRANCH   6   7
BRANCH   1  14
ATOM     14  O   UNL     1      -4.924   5.044 130.720  0.00  0.00    +0.000 OA
BRANCH  14  16
ATOM     15  C   UNL     1      -4.803   7.385 131.099  0.00  0.00    +0.000 C 
ATOM     16  C   UNL     1      -5.616   6.278 130.527  0.00  0.00    +0.000 C 
BRANCH  16  17
ATOM     17  C   UNL     1      -6.838   6.410 131.364  0.00  0.00    +0.000 A 
ATOM     18  C   UNL     1      -6.800   5.817 132.628  0.00  0.00    +0.000 A 
ATOM     19  C   UNL     1      -7.989   5.505 133.268  0.00  0.00    +0.000 A 
ATOM     20  C   UNL     1      -9.199   5.915 132.691  0.00  0.00    +0.000 A 
ATOM     21  C   UNL     1      -9.240   6.488 131.414  0.00  0.00    +0.000 A 
ATOM     22  C   UNL     1      -8.050   6.722 130.748  0.00  0.00    +0.000 A 
BRANCH  21  23
ATOM     23  C   UNL     1     -10.547   6.783 130.739  0.00  0.00    +0.000 C 
ATOM     24  F   UNL     1     -10.950   5.769 129.928  0.00  0.00    +0.000 F 
ATOM     25  F   UNL     1     -11.541   6.983 131.638  0.00  0.00    +0.000 F 
ATOM     26  F   UNL     1     -10.506   7.898 129.955  0.00  0.00    +0.000 F 
ENDBRANCH  21  23
BRANCH  19  27
ATOM     27  C   UNL     1      -7.964   4.629 134.487  0.00  0.00    +0.000 C 
ATOM     28  F   UNL     1      -6.907   3.766 134.472  0.00  0.00    +0.000 F 
ATOM     29  F   UNL     1      -7.855   5.339 135.639  0.00  0.00    +0.000 F 
ATOM     30  F   UNL     1      -9.075   3.857 134.607  0.00  0.00    +0.000 F 
ENDBRANCH  19  27
ENDBRANCH  16  17
ENDBRANCH  14  16
ENDBRANCH   1  14
BRANCH   5  31
ATOM     31  C   UNL     1      -5.566   4.080 126.639  0.00  0.00    +0.000 C 
BRANCH  31  32
ATOM     32  C   UNL     1      -5.919   3.722 125.235  0.00  0.00    +0.000 A 
ATOM     33  N   UNL     1      -6.836   2.831 125.007  0.00  0.00    +0.000 NA
ATOM     34  C   UNL     1      -6.916   2.761 123.641  0.00  0.00    +0.000 A 
ATOM     35  O   UNL     1      -7.580   1.942 123.048  0.00  0.00    +0.000 OA
ATOM     36  N   UNL     1      -6.074   3.728 123.085  0.00  0.00    +0.000 N 
ATOM     37  N   UNL     1      -5.323   4.236 124.106  0.00  0.00    +0.000 N 
ATOM     38  H   UNL     1      -4.683   5.008 123.979  0.00  0.00    +0.000 HD
BRANCH  36  39
ATOM     39  P   UNL     1      -5.873   4.066 121.349  0.00  0.00    +0.000 P 
ATOM     40  O   UNL     1      -5.699   4.361 119.839  0.00  0.00    +0.000 OA
BRANCH  39  41
ATOM     41  O   UNL     1      -5.471   2.511 121.058  0.00  0.00    +0.000 OA
ATOM     42  H   UNL     1      -5.771   1.773 121.626  0.00  0.00    +0.000 HD
ENDBRANCH  39  41
BRANCH  39  43
ATOM     43  O   UNL     1      -7.510   3.993 121.262  0.00  0.00    +0.000 OA
ATOM     44  H   UNL     1      -7.935   4.735 120.803  0.00  0.00    +0.000 HD
ENDBRANCH  39  43
ENDBRANCH  36  39
ENDBRANCH  31  32
ENDBRANCH   5  31
TORSDOF 11
ENDMDL
MODEL 4
REMARK VINA RESULT:      -8.9      1.976      3.582
REMARK  Name = Fosaprepitant
REMARK  12 active torsions:
REMARK  status: ('A' for Active; 'I' for Inactive)
REMARK    1  A    between atoms: C_1  and  C_2
REMARK    2  A    between atoms: C_2  and  O_3
REMARK    3  A    between atoms: C_2  and  C_28
REMARK    4  A    between atoms: O_3  and  C_4
REMARK    5  A    between atoms: N_8  and  C_9
REMARK    6  A    between atoms: C_9  and  C_10
REMARK    7  A    between atoms: N_14  and  P_16
REMARK    8  A    between atoms: P_16  and  O_17
REMARK    9  A    between atoms: P_16  and  O_18
REMARK   10  A    between atoms: C_20  and  C_21
REMARK   11  A    between atoms: C_30  and  C_38
REMARK   12  A    between atoms: C_32  and  C_34
REMARK                            x       y       z     vdW  Elec       q    Type
REMARK                         _______ _______ _______ _____ _____    ______ ____
ROOT
ATOM      1  C   UNL     1      -7.773   3.623 132.336  0.00  0.00    +0.000 C 
ATOM      2  O   UNL     1      -7.796   3.633 133.764  0.00  0.00    +0.000 OA
ATOM      3  C   UNL     1      -8.885   4.398 134.296  0.00  0.00    +0.000 C 
ATOM      4  C   UNL     1      -9.051   5.810 133.685  0.00  0.00    +0.000 C 
ATOM      5  N   UNL     1      -9.047   5.805 132.202  0.00  0.00    +0.000 NA
ATOM      6  C   UNL     1      -7.813   5.117 131.739  0.00  0.00    +0.000 C 
ENDROOT
BRANCH   6   7
ATOM      7  C   UNL     1      -6.602   6.068 131.901  0.00  0.00    +0.000 A 
ATOM      8  C   UNL     1      -5.716   5.959 133.007  0.00  0.00    +0.000 A 
ATOM      9  C   UNL     1      -4.437   6.499 132.992  0.00  0.00    +0.000 A 
ATOM     10  C   UNL     1      -4.046   7.231 131.891  0.00  0.00    +0.000 A 
ATOM     11  F   UNL     1      -2.775   7.641 131.812  0.00  0.00    +0.000 F 
ATOM     12  C   UNL     1      -4.909   7.431 130.812  0.00  0.00    +0.000 A 
ATOM     13  C   UNL     1      -6.192   6.866 130.813  0.00  0.00    +0.000 A 
ENDBRANCH   6   7
BRANCH   1  14
ATOM     14  O   UNL     1      -6.796   2.739 131.763  0.00  0.00    +0.000 OA
BRANCH  14  16
ATOM     15  C   UNL     1      -6.548   1.906 129.552  0.00  0.00    +0.000 C 
ATOM     16  C   UNL     1      -6.417   3.098 130.433  0.00  0.00    +0.000 C 
BRANCH  16  17
ATOM     17  C   UNL     1      -4.962   3.361 130.280  0.00  0.00    +0.000 A 
ATOM     18  C   UNL     1      -4.163   3.137 131.404  0.00  0.00    +0.000 A 
ATOM     19  C   UNL     1      -2.928   3.761 131.494  0.00  0.00    +0.000 A 
ATOM     20  C   UNL     1      -2.454   4.491 130.396  0.00  0.00    +0.000 A 
ATOM     21  C   UNL     1      -3.263   4.735 129.279  0.00  0.00    +0.000 A 
ATOM     22  C   UNL     1      -4.527   4.174 129.234  0.00  0.00    +0.000 A 
BRANCH  21  23
ATOM     23  C   UNL     1      -2.807   5.643 128.175  0.00  0.00    +0.000 C 
ATOM     24  F   UNL     1      -2.248   4.959 127.142  0.00  0.00    +0.000 F 
ATOM     25  F   UNL     1      -3.835   6.361 127.660  0.00  0.00    +0.000 F 
ATOM     26  F   UNL     1      -1.869   6.547 128.577  0.00  0.00    +0.000 F 
ENDBRANCH  21  23
BRANCH  19  27
ATOM     27  C   UNL     1      -2.189   3.751 132.801  0.00  0.00    +0.000 C 
ATOM     28  F   UNL     1      -1.240   4.730 132.858  0.00  0.00    +0.000 F 
ATOM     29  F   UNL     1      -3.006   3.956 133.865  0.00  0.00    +0.000 F 
ATOM     30  F   UNL     1      -1.535   2.583 133.030  0.00  0.00    +0.000 F 
ENDBRANCH  19  27
ENDBRANCH  16  17
ENDBRANCH  14  16
ENDBRANCH   1  14
BRANCH   5  31
ATOM     31  C   UNL     1     -10.293   5.140 131.788  0.00  0.00    +0.000 C 
BRANCH  31  32
ATOM     32  C   UNL     1     -10.905   5.780 130.588  0.00  0.00    +0.000 A 
ATOM     33  N   UNL     1     -12.160   6.114 130.604  0.00  0.00    +0.000 NA
ATOM     34  C   UNL     1     -12.380   6.679 129.375  0.00  0.00    +0.000 A 
ATOM     35  O   UNL     1     -13.474   7.000 128.969  0.00  0.00    +0.000 OA
ATOM     36  N   UNL     1     -11.169   6.751 128.682  0.00  0.00    +0.000 N 
ATOM     37  N   UNL     1     -10.256   6.036 129.402  0.00  0.00    +0.000 N 
ATOM     38  H   UNL     1      -9.278   5.994 129.151  0.00  0.00    +0.000 HD
BRANCH  36  39
ATOM     39  P   UNL     1     -10.929   7.459 127.066  0.00  0.00    +0.000 P 
ATOM     40  O   UNL     1     -10.721   8.073 125.661  0.00  0.00    +0.000 OA
BRANCH  39  41
ATOM     41  O   UNL     1     -12.194   6.614 126.472  0.00  0.00    +0.000 OA
ATOM     42  H   UNL     1     -12.711   6.912 125.697  0.00  0.00    +0.000 HD
ENDBRANCH  39  41
BRANCH  39  43
ATOM     43  O   UNL     1     -11.685   8.788 127.660  0.00  0.00    +0.000 OA
ATOM     44  H   UNL     1     -11.390   9.634 127.289  0.00  0.00    +0.000 HD
ENDBRANCH  39  43
ENDBRANCH  36  39
ENDBRANCH  31  32
ENDBRANCH   5  31
TORSDOF 11
ENDMDL
MODEL 5
REMARK VINA RESULT:      -8.8      3.696      6.410
REMARK  Name = Fosaprepitant
REMARK  12 active torsions:
REMARK  status: ('A' for Active; 'I' for Inactive)
REMARK    1  A    between atoms: C_1  and  C_2
REMARK    2  A    between atoms: C_2  and  O_3
REMARK    3  A    between atoms: C_2  and  C_28
REMARK    4  A    between atoms: O_3  and  C_4
REMARK    5  A    between atoms: N_8  and  C_9
REMARK    6  A    between atoms: C_9  and  C_10
REMARK    7  A    between atoms: N_14  and  P_16
REMARK    8  A    between atoms: P_16  and  O_17
REMARK    9  A    between atoms: P_16  and  O_18
REMARK   10  A    between atoms: C_20  and  C_21
REMARK   11  A    between atoms: C_30  and  C_38
REMARK   12  A    between atoms: C_32  and  C_34
REMARK                            x       y       z     vdW  Elec       q    Type
REMARK                         _______ _______ _______ _____ _____    ______ ____
ROOT
ATOM      1  C   UNL     1      -5.850   1.412 128.619  0.00  0.00    +0.000 C 
ATOM      2  O   UNL     1      -4.447   1.556 128.845  0.00  0.00    +0.000 OA
ATOM      3  C   UNL     1      -4.124   2.730 129.602  0.00  0.00    +0.000 C 
ATOM      4  C   UNL     1      -4.787   4.034 129.098  0.00  0.00    +0.000 C 
ATOM      5  N   UNL     1      -6.247   3.898 128.879  0.00  0.00    +0.000 NA
ATOM      6  C   UNL     1      -6.479   2.744 127.970  0.00  0.00    +0.000 C 
ENDROOT
BRANCH   6   7
ATOM      7  C   UNL     1      -6.136   3.156 126.517  0.00  0.00    +0.000 A 
ATOM      8  C   UNL     1      -5.938   2.185 125.499  0.00  0.00    +0.000 A 
ATOM      9  C   UNL     1      -6.024   2.496 124.148  0.00  0.00    +0.000 A 
ATOM     10  C   UNL     1      -6.234   3.810 123.788  0.00  0.00    +0.000 A 
ATOM     11  F   UNL     1      -6.449   4.095 122.500  0.00  0.00    +0.000 F 
ATOM     12  C   UNL     1      -6.358   4.812 124.752  0.00  0.00    +0.000 A 
ATOM     13  C   UNL     1      -6.296   4.498 126.117  0.00  0.00    +0.000 A 
ENDBRANCH   6   7
BRANCH   1  14
ATOM     14  O   UNL     1      -6.229   0.170 128.005  0.00  0.00    +0.000 OA
BRANCH  14  16
ATOM     15  C   UNL     1      -7.616  -1.557 128.864  0.00  0.00    +0.000 C 
ATOM     16  C   UNL     1      -7.586  -0.198 128.259  0.00  0.00    +0.000 C 
BRANCH  16  17
ATOM     17  C   UNL     1      -8.372  -0.458 127.024  0.00  0.00    +0.000 A 
ATOM     18  C   UNL     1      -8.268  -1.738 126.473  0.00  0.00    +0.000 A 
ATOM     19  C   UNL     1      -8.583  -1.929 125.136  0.00  0.00    +0.000 A 
ATOM     20  C   UNL     1      -9.126  -0.862 124.407  0.00  0.00    +0.000 A 
ATOM     21  C   UNL     1      -9.209   0.426 124.951  0.00  0.00    +0.000 A 
ATOM     22  C   UNL     1      -8.816   0.623 126.264  0.00  0.00    +0.000 A 
BRANCH  21  23
ATOM     23  C   UNL     1      -9.648   1.592 124.118  0.00  0.00    +0.000 C 
ATOM     24  F   UNL     1     -10.990   1.594 123.898  0.00  0.00    +0.000 F 
ATOM     25  F   UNL     1      -9.347   2.774 124.712  0.00  0.00    +0.000 F 
ATOM     26  F   UNL     1      -9.066   1.621 122.886  0.00  0.00    +0.000 F 
ENDBRANCH  21  23
BRANCH  19  27
ATOM     27  C   UNL     1      -8.216  -3.223 124.469  0.00  0.00    +0.000 C 
ATOM     28  F   UNL     1      -8.236  -4.270 125.343  0.00  0.00    +0.000 F 
ATOM     29  F   UNL     1      -9.068  -3.553 123.465  0.00  0.00    +0.000 F 
ATOM     30  F   UNL     1      -6.968  -3.207 123.933  0.00  0.00    +0.000 F 
ENDBRANCH  19  27
ENDBRANCH  16  17
ENDBRANCH  14  16
ENDBRANCH   1  14
BRANCH   5  31
ATOM     31  C   UNL     1      -6.851   3.739 130.212  0.00  0.00    +0.000 C 
BRANCH  31  32
ATOM     32  C   UNL     1      -8.292   4.121 130.229  0.00  0.00    +0.000 A 
ATOM     33  N   UNL     1      -9.203   3.200 130.326  0.00  0.00    +0.000 NA
ATOM     34  C   UNL     1     -10.388   3.888 130.329  0.00  0.00    +0.000 A 
ATOM     35  O   UNL     1     -11.474   3.356 130.280  0.00  0.00    +0.000 OA
ATOM     36  N   UNL     1     -10.119   5.259 130.334  0.00  0.00    +0.000 N 
ATOM     37  N   UNL     1      -8.780   5.402 130.115  0.00  0.00    +0.000 N 
ATOM     38  H   UNL     1      -8.316   6.300 130.146  0.00  0.00    +0.000 HD
BRANCH  36  39
ATOM     39  P   UNL     1     -11.331   6.562 130.395  0.00  0.00    +0.000 P 
ATOM     40  O   UNL     1     -12.385   7.695 130.448  0.00  0.00    +0.000 OA
BRANCH  39  41
ATOM     41  O   UNL     1     -12.220   5.836 129.234  0.00  0.00    +0.000 OA
ATOM     42  H   UNL     1     -12.990   5.268 129.437  0.00  0.00    +0.000 HD
ENDBRANCH  39  41
BRANCH  39  43
ATOM     43  O   UNL     1     -11.898   5.817 131.742  0.00  0.00    +0.000 OA
ATOM     44  H   UNL     1     -11.228   5.598 132.409  0.00  0.00    +0.000 HD
ENDBRANCH  39  43
ENDBRANCH  36  39
ENDBRANCH  31  32
ENDBRANCH   5  31
TORSDOF 11
ENDMDL
MODEL 6
REMARK VINA RESULT:      -8.6      1.522      3.040
REMARK  Name = Fosaprepitant
REMARK  12 active torsions:
REMARK  status: ('A' for Active; 'I' for Inactive)
REMARK    1  A    between atoms: C_1  and  C_2
REMARK    2  A    between atoms: C_2  and  O_3
REMARK    3  A    between atoms: C_2  and  C_28
REMARK    4  A    between atoms: O_3  and  C_4
REMARK    5  A    between atoms: N_8  and  C_9
REMARK    6  A    between atoms: C_9  and  C_10
REMARK    7  A    between atoms: N_14  and  P_16
REMARK    8  A    between atoms: P_16  and  O_17
REMARK    9  A    between atoms: P_16  and  O_18
REMARK   10  A    between atoms: C_20  and  C_21
REMARK   11  A    between atoms: C_30  and  C_38
REMARK   12  A    between atoms: C_32  and  C_34
REMARK                            x       y       z     vdW  Elec       q    Type
REMARK                         _______ _______ _______ _____ _____    ______ ____
ROOT
ATOM      1  C   UNL     1      -6.681   2.863 130.984  0.00  0.00    +0.000 C 
ATOM      2  O   UNL     1      -6.362   2.662 132.362  0.00  0.00    +0.000 OA
ATOM      3  C   UNL     1      -7.127   3.501 133.237  0.00  0.00    +0.000 C 
ATOM      4  C   UNL     1      -7.162   4.997 132.842  0.00  0.00    +0.000 C 
ATOM      5  N   UNL     1      -7.511   5.214 131.417  0.00  0.00    +0.000 NA
ATOM      6  C   UNL     1      -6.577   4.417 130.579  0.00  0.00    +0.000 C 
ENDROOT
BRANCH   6   7
ATOM      7  C   UNL     1      -5.204   5.130 130.518  0.00  0.00    +0.000 A 
ATOM      8  C   UNL     1      -3.994   4.431 130.774  0.00  0.00    +0.000 A 
ATOM      9  C   UNL     1      -2.757   4.905 130.355  0.00  0.00    +0.000 A 
ATOM     10  C   UNL     1      -2.702   6.135 129.735  0.00  0.00    +0.000 A 
ATOM     11  F   UNL     1      -1.538   6.537 129.212  0.00  0.00    +0.000 F 
ATOM     12  C   UNL     1      -3.855   6.895 129.531  0.00  0.00    +0.000 A 
ATOM     13  C   UNL     1      -5.107   6.408 129.930  0.00  0.00    +0.000 A 
ENDBRANCH   6   7
BRANCH   1  14
ATOM     14  O   UNL     1      -6.055   1.932 130.086  0.00  0.00    +0.000 OA
BRANCH  14  16
ATOM     15  C   UNL     1      -6.874   0.254 128.618  0.00  0.00    +0.000 C 
ATOM     16  C   UNL     1      -6.797   1.716 128.885  0.00  0.00    +0.000 C 
BRANCH  16  17
ATOM     17  C   UNL     1      -6.081   2.155 127.658  0.00  0.00    +0.000 A 
ATOM     18  C   UNL     1      -4.684   2.146 127.710  0.00  0.00    +0.000 A 
ATOM     19  C   UNL     1      -3.967   2.934 126.822  0.00  0.00    +0.000 A 
ATOM     20  C   UNL     1      -4.656   3.614 125.808  0.00  0.00    +0.000 A 
ATOM     21  C   UNL     1      -6.056   3.642 125.770  0.00  0.00    +0.000 A 
ATOM     22  C   UNL     1      -6.765   2.916 126.711  0.00  0.00    +0.000 A 
BRANCH  21  23
ATOM     23  C   UNL     1      -6.786   4.494 124.775  0.00  0.00    +0.000 C 
ATOM     24  F   UNL     1      -6.278   4.374 123.520  0.00  0.00    +0.000 F 
ATOM     25  F   UNL     1      -8.099   4.162 124.700  0.00  0.00    +0.000 F 
ATOM     26  F   UNL     1      -6.742   5.824 125.073  0.00  0.00    +0.000 F 
ENDBRANCH  21  23
BRANCH  19  27
ATOM     27  C   UNL     1      -2.497   3.146 127.044  0.00  0.00    +0.000 C 
ATOM     28  F   UNL     1      -2.170   4.470 127.061  0.00  0.00    +0.000 F 
ATOM     29  F   UNL     1      -2.069   2.637 128.228  0.00  0.00    +0.000 F 
ATOM     30  F   UNL     1      -1.730   2.583 126.076  0.00  0.00    +0.000 F 
ENDBRANCH  19  27
ENDBRANCH  16  17
ENDBRANCH  14  16
ENDBRANCH   1  14
BRANCH   5  31
ATOM     31  C   UNL     1      -8.924   4.822 131.275  0.00  0.00    +0.000 C 
BRANCH  31  32
ATOM     32  C   UNL     1      -9.682   5.754 130.391  0.00  0.00    +0.000 A 
ATOM     33  N   UNL     1     -10.476   6.637 130.914  0.00  0.00    +0.000 NA
ATOM     34  C   UNL     1     -10.986   7.320 129.841  0.00  0.00    +0.000 A 
ATOM     35  O   UNL     1     -11.867   8.145 129.926  0.00  0.00    +0.000 OA
ATOM     36  N   UNL     1     -10.373   6.858 128.674  0.00  0.00    +0.000 N 
ATOM     37  N   UNL     1      -9.651   5.751 129.015  0.00  0.00    +0.000 N 
ATOM     38  H   UNL     1      -9.051   5.269 128.359  0.00  0.00    +0.000 HD
BRANCH  36  39
ATOM     39  P   UNL     1     -10.659   7.474 127.028  0.00  0.00    +0.000 P 
ATOM     40  O   UNL     1     -10.908   8.010 125.597  0.00  0.00    +0.000 OA
BRANCH  39  41
ATOM     41  O   UNL     1      -9.720   6.301 126.389  0.00  0.00    +0.000 OA
ATOM     42  H   UNL     1      -8.828   6.477 126.028  0.00  0.00    +0.000 HD
ENDBRANCH  39  41
BRANCH  39  43
ATOM     43  O   UNL     1     -12.108   6.709 127.116  0.00  0.00    +0.000 OA
ATOM     44  H   UNL     1     -12.794   7.176 127.619  0.00  0.00    +0.000 HD
ENDBRANCH  39  43
ENDBRANCH  36  39
ENDBRANCH  31  32
ENDBRANCH   5  31
TORSDOF 11
ENDMDL
MODEL 7
REMARK VINA RESULT:      -8.6      5.355      8.538
REMARK  Name = Fosaprepitant
REMARK  12 active torsions:
REMARK  status: ('A' for Active; 'I' for Inactive)
REMARK    1  A    between atoms: C_1  and  C_2
REMARK    2  A    between atoms: C_2  and  O_3
REMARK    3  A    between atoms: C_2  and  C_28
REMARK    4  A    between atoms: O_3  and  C_4
REMARK    5  A    between atoms: N_8  and  C_9
REMARK    6  A    between atoms: C_9  and  C_10
REMARK    7  A    between atoms: N_14  and  P_16
REMARK    8  A    between atoms: P_16  and  O_17
REMARK    9  A    between atoms: P_16  and  O_18
REMARK   10  A    between atoms: C_20  and  C_21
REMARK   11  A    between atoms: C_30  and  C_38
REMARK   12  A    between atoms: C_32  and  C_34
REMARK                            x       y       z     vdW  Elec       q    Type
REMARK                         _______ _______ _______ _____ _____    ______ ____
ROOT
ATOM      1  C   UNL     1      -5.641   3.489 125.563  0.00  0.00    +0.000 C 
ATOM      2  O   UNL     1      -6.355   4.626 126.052  0.00  0.00    +0.000 OA
ATOM      3  C   UNL     1      -7.768   4.400 126.136  0.00  0.00    +0.000 C 
ATOM      4  C   UNL     1      -8.408   3.792 124.866  0.00  0.00    +0.000 C 
ATOM      5  N   UNL     1      -7.684   2.600 124.363  0.00  0.00    +0.000 NA
ATOM      6  C   UNL     1      -6.256   2.966 124.170  0.00  0.00    +0.000 C 
ENDROOT
BRANCH   6   7
ATOM      7  C   UNL     1      -6.109   3.802 122.875  0.00  0.00    +0.000 A 
ATOM      8  C   UNL     1      -4.986   4.645 122.660  0.00  0.00    +0.000 A 
ATOM      9  C   UNL     1      -4.619   5.088 121.396  0.00  0.00    +0.000 A 
ATOM     10  C   UNL     1      -5.421   4.755 120.325  0.00  0.00    +0.000 A 
ATOM     11  F   UNL     1      -5.004   5.064 119.093  0.00  0.00    +0.000 F 
ATOM     12  C   UNL     1      -6.577   3.993 120.498  0.00  0.00    +0.000 A 
ATOM     13  C   UNL     1      -6.938   3.524 121.769  0.00  0.00    +0.000 A 
ENDBRANCH   6   7
BRANCH   1  14
ATOM     14  O   UNL     1      -4.211   3.617 125.614  0.00  0.00    +0.000 OA
BRANCH  14  16
ATOM     15  C   UNL     1      -4.590   1.634 126.865  0.00  0.00    +0.000 C 
ATOM     16  C   UNL     1      -3.585   2.656 126.466  0.00  0.00    +0.000 C 
BRANCH  16  17
ATOM     17  C   UNL     1      -3.233   3.193 127.807  0.00  0.00    +0.000 A 
ATOM     18  C   UNL     1      -3.832   2.576 128.908  0.00  0.00    +0.000 A 
ATOM     19  C   UNL     1      -3.921   3.264 130.108  0.00  0.00    +0.000 A 
ATOM     20  C   UNL     1      -3.286   4.509 130.225  0.00  0.00    +0.000 A 
ATOM     21  C   UNL     1      -2.705   5.139 129.117  0.00  0.00    +0.000 A 
ATOM     22  C   UNL     1      -2.694   4.476 127.902  0.00  0.00    +0.000 A 
BRANCH  21  23
ATOM     23  C   UNL     1      -2.164   6.534 129.215  0.00  0.00    +0.000 C 
ATOM     24  F   UNL     1      -1.070   6.608 130.018  0.00  0.00    +0.000 F 
ATOM     25  F   UNL     1      -1.793   7.012 128.002  0.00  0.00    +0.000 F 
ATOM     26  F   UNL     1      -3.063   7.424 129.722  0.00  0.00    +0.000 F 
ENDBRANCH  21  23
BRANCH  19  27
ATOM     27  C   UNL     1      -4.796   2.729 131.204  0.00  0.00    +0.000 C 
ATOM     28  F   UNL     1      -5.194   1.448 130.957  0.00  0.00    +0.000 F 
ATOM     29  F   UNL     1      -4.169   2.704 132.408  0.00  0.00    +0.000 F 
ATOM     30  F   UNL     1      -5.935   3.449 131.371  0.00  0.00    +0.000 F 
ENDBRANCH  19  27
ENDBRANCH  16  17
ENDBRANCH  14  16
ENDBRANCH   1  14
BRANCH   5  31
ATOM     31  C   UNL     1      -7.899   1.536 125.359  0.00  0.00    +0.000 C 
BRANCH  31  32
ATOM     32  C   UNL     1      -7.618   0.180 124.806  0.00  0.00    +0.000 A 
ATOM     33  N   UNL     1      -8.414  -0.332 123.917  0.00  0.00    +0.000 NA
ATOM     34  C   UNL     1      -7.863  -1.552 123.623  0.00  0.00    +0.000 A 
ATOM     35  O   UNL     1      -8.397  -2.380 122.921  0.00  0.00    +0.000 OA
ATOM     36  N   UNL     1      -6.652  -1.681 124.308  0.00  0.00    +0.000 N 
ATOM     37  N   UNL     1      -6.576  -0.636 125.182  0.00  0.00    +0.000 N 
ATOM     38  H   UNL     1      -5.757  -0.458 125.748  0.00  0.00    +0.000 HD
BRANCH  36  39
ATOM     39  P   UNL     1      -5.537  -3.065 124.208  0.00  0.00    +0.000 P 
ATOM     40  O   UNL     1      -4.567  -4.269 124.120  0.00  0.00    +0.000 OA
BRANCH  39  41
ATOM     41  O   UNL     1      -6.785  -4.117 124.238  0.00  0.00    +0.000 OA
ATOM     42  H   UNL     1      -7.107  -4.577 123.436  0.00  0.00    +0.000 HD
ENDBRANCH  39  41
BRANCH  39  43
ATOM     43  O   UNL     1      -5.443  -2.728 122.605  0.00  0.00    +0.000 OA
ATOM     44  H   UNL     1      -5.115  -1.842 122.385  0.00  0.00    +0.000 HD
ENDBRANCH  39  43
ENDBRANCH  36  39
ENDBRANCH  31  32
ENDBRANCH   5  31
TORSDOF 11
ENDMDL
MODEL 8
REMARK VINA RESULT:      -8.6      6.627      9.882
REMARK  Name = Fosaprepitant
REMARK  12 active torsions:
REMARK  status: ('A' for Active; 'I' for Inactive)
REMARK    1  A    between atoms: C_1  and  C_2
REMARK    2  A    between atoms: C_2  and  O_3
REMARK    3  A    between atoms: C_2  and  C_28
REMARK    4  A    between atoms: O_3  and  C_4
REMARK    5  A    between atoms: N_8  and  C_9
REMARK    6  A    between atoms: C_9  and  C_10
REMARK    7  A    between atoms: N_14  and  P_16
REMARK    8  A    between atoms: P_16  and  O_17
REMARK    9  A    between atoms: P_16  and  O_18
REMARK   10  A    between atoms: C_20  and  C_21
REMARK   11  A    between atoms: C_30  and  C_38
REMARK   12  A    between atoms: C_32  and  C_34
REMARK                            x       y       z     vdW  Elec       q    Type
REMARK                         _______ _______ _______ _____ _____    ______ ____
ROOT
ATOM      1  C   UNL     1      -6.764   0.840 128.900  0.00  0.00    +0.000 C 
ATOM      2  O   UNL     1      -7.901   1.331 129.610  0.00  0.00    +0.000 OA
ATOM      3  C   UNL     1      -8.077   0.699 130.884  0.00  0.00    +0.000 C 
ATOM      4  C   UNL     1      -8.007  -0.846 130.861  0.00  0.00    +0.000 C 
ATOM      5  N   UNL     1      -6.818  -1.364 130.142  0.00  0.00    +0.000 NA
ATOM      6  C   UNL     1      -6.796  -0.765 128.781  0.00  0.00    +0.000 C 
ENDROOT
BRANCH   6   7
ATOM      7  C   UNL     1      -7.845  -1.473 127.889  0.00  0.00    +0.000 A 
ATOM      8  C   UNL     1      -8.691  -0.739 127.015  0.00  0.00    +0.000 A 
ATOM      9  C   UNL     1      -9.344  -1.330 125.941  0.00  0.00    +0.000 A 
ATOM     10  C   UNL     1      -9.220  -2.693 125.767  0.00  0.00    +0.000 A 
ATOM     11  F   UNL     1      -9.735  -3.246 124.663  0.00  0.00    +0.000 F 
ATOM     12  C   UNL     1      -8.462  -3.468 126.645  0.00  0.00    +0.000 A 
ATOM     13  C   UNL     1      -7.782  -2.871 127.716  0.00  0.00    +0.000 A 
ENDBRANCH   6   7
BRANCH   1  14
ATOM     14  O   UNL     1      -6.460   1.557 127.692  0.00  0.00    +0.000 OA
BRANCH  14  16
ATOM     15  C   UNL     1      -4.430   2.173 126.624  0.00  0.00    +0.000 C 
ATOM     16  C   UNL     1      -5.322   1.043 126.998  0.00  0.00    +0.000 C 
BRANCH  16  17
ATOM     17  C   UNL     1      -5.640   0.518 125.643  0.00  0.00    +0.000 A 
ATOM     18  C   UNL     1      -6.577   1.237 124.897  0.00  0.00    +0.000 A 
ATOM     19  C   UNL     1      -7.248   0.605 123.861  0.00  0.00    +0.000 A 
ATOM     20  C   UNL     1      -6.871  -0.696 123.501  0.00  0.00    +0.000 A 
ATOM     21  C   UNL     1      -5.949  -1.425 124.263  0.00  0.00    +0.000 A 
ATOM     22  C   UNL     1      -5.344  -0.811 125.346  0.00  0.00    +0.000 A 
BRANCH  21  23
ATOM     23  C   UNL     1      -5.664  -2.866 123.963  0.00  0.00    +0.000 C 
ATOM     24  F   UNL     1      -6.801  -3.596 123.808  0.00  0.00    +0.000 F 
ATOM     25  F   UNL     1      -4.949  -3.009 122.821  0.00  0.00    +0.000 F 
ATOM     26  F   UNL     1      -4.951  -3.488 124.945  0.00  0.00    +0.000 F 
ENDBRANCH  21  23
BRANCH  19  27
ATOM     27  C   UNL     1      -8.440   1.272 123.238  0.00  0.00    +0.000 C 
ATOM     28  F   UNL     1      -8.075   2.219 122.326  0.00  0.00    +0.000 F 
ATOM     29  F   UNL     1      -9.240   0.399 122.575  0.00  0.00    +0.000 F 
ATOM     30  F   UNL     1      -9.224   1.909 124.145  0.00  0.00    +0.000 F 
ENDBRANCH  19  27
ENDBRANCH  16  17
ENDBRANCH  14  16
ENDBRANCH   1  14
BRANCH   5  31
ATOM     31  C   UNL     1      -5.651  -1.014 130.968  0.00  0.00    +0.000 C 
BRANCH  31  32
ATOM     32  C   UNL     1      -5.109  -2.190 131.708  0.00  0.00    +0.000 A 
ATOM     33  N   UNL     1      -5.454  -3.390 131.354  0.00  0.00    +0.000 NA
ATOM     34  C   UNL     1      -4.774  -4.211 132.216  0.00  0.00    +0.000 A 
ATOM     35  O   UNL     1      -4.941  -5.408 132.275  0.00  0.00    +0.000 OA
ATOM     36  N   UNL     1      -3.938  -3.435 133.021  0.00  0.00    +0.000 N 
ATOM     37  N   UNL     1      -4.269  -2.130 132.797  0.00  0.00    +0.000 N 
ATOM     38  H   UNL     1      -3.758  -1.360 133.206  0.00  0.00    +0.000 HD
BRANCH  36  39
ATOM     39  P   UNL     1      -2.813  -4.048 134.258  0.00  0.00    +0.000 P 
ATOM     40  O   UNL     1      -1.835  -4.581 135.333  0.00  0.00    +0.000 OA
BRANCH  39  41
ATOM     41  O   UNL     1      -2.197  -5.134 133.206  0.00  0.00    +0.000 OA
ATOM     42  H   UNL     1      -1.702  -5.927 133.496  0.00  0.00    +0.000 HD
ENDBRANCH  39  41
BRANCH  39  43
ATOM     43  O   UNL     1      -1.901  -2.726 133.921  0.00  0.00    +0.000 OA
ATOM     44  H   UNL     1      -1.819  -2.507 132.979  0.00  0.00    +0.000 HD
ENDBRANCH  39  43
ENDBRANCH  36  39
ENDBRANCH  31  32
ENDBRANCH   5  31
TORSDOF 11
ENDMDL
MODEL 9
REMARK VINA RESULT:      -8.2      4.489      6.991
REMARK  Name = Fosaprepitant
REMARK  12 active torsions:
REMARK  status: ('A' for Active; 'I' for Inactive)
REMARK    1  A    between atoms: C_1  and  C_2
REMARK    2  A    between atoms: C_2  and  O_3
REMARK    3  A    between atoms: C_2  and  C_28
REMARK    4  A    between atoms: O_3  and  C_4
REMARK    5  A    between atoms: N_8  and  C_9
REMARK    6  A    between atoms: C_9  and  C_10
REMARK    7  A    between atoms: N_14  and  P_16
REMARK    8  A    between atoms: P_16  and  O_17
REMARK    9  A    between atoms: P_16  and  O_18
REMARK   10  A    between atoms: C_20  and  C_21
REMARK   11  A    between atoms: C_30  and  C_38
REMARK   12  A    between atoms: C_32  and  C_34
REMARK                            x       y       z     vdW  Elec       q    Type
REMARK                         _______ _______ _______ _____ _____    ______ ____
ROOT
ATOM      1  C   UNL     1      -4.505   2.005 130.428  0.00  0.00    +0.000 C 
ATOM      2  O   UNL     1      -4.132   0.787 131.073  0.00  0.00    +0.000 OA
ATOM      3  C   UNL     1      -4.520  -0.376 130.331  0.00  0.00    +0.000 C 
ATOM      4  C   UNL     1      -5.990  -0.380 129.847  0.00  0.00    +0.000 C 
ATOM      5  N   UNL     1      -6.379   0.874 129.159  0.00  0.00    +0.000 NA
ATOM      6  C   UNL     1      -6.072   2.017 130.058  0.00  0.00    +0.000 C 
ENDROOT
BRANCH   6   7
ATOM      7  C   UNL     1      -7.147   2.102 131.169  0.00  0.00    +0.000 A 
ATOM      8  C   UNL     1      -6.803   1.994 132.544  0.00  0.00    +0.000 A 
ATOM      9  C   UNL     1      -7.637   2.448 133.557  0.00  0.00    +0.000 A 
ATOM     10  C   UNL     1      -8.873   2.953 133.214  0.00  0.00    +0.000 A 
ATOM     11  F   UNL     1      -9.624   3.513 134.169  0.00  0.00    +0.000 F 
ATOM     12  C   UNL     1      -9.287   3.009 131.882  0.00  0.00    +0.000 A 
ATOM     13  C   UNL     1      -8.438   2.574 130.855  0.00  0.00    +0.000 A 
ENDBRANCH   6   7
BRANCH   1  14
ATOM     14  O   UNL     1      -3.995   3.193 131.056  0.00  0.00    +0.000 OA
BRANCH  14  16
ATOM     15  C   UNL     1      -3.162   5.282 130.291  0.00  0.00    +0.000 C 
ATOM     16  C   UNL     1      -4.354   4.395 130.374  0.00  0.00    +0.000 C 
BRANCH  16  17
ATOM     17  C   UNL     1      -5.263   5.274 131.157  0.00  0.00    +0.000 A 
ATOM     18  C   UNL     1      -5.085   5.283 132.543  0.00  0.00    +0.000 A 
ATOM     19  C   UNL     1      -6.128   5.695 133.358  0.00  0.00    +0.000 A 
ATOM     20  C   UNL     1      -7.286   6.219 132.767  0.00  0.00    +0.000 A 
ATOM     21  C   UNL     1      -7.475   6.188 131.380  0.00  0.00    +0.000 A 
ATOM     22  C   UNL     1      -6.458   5.700 130.578  0.00  0.00    +0.000 A 
BRANCH  21  23
ATOM     23  C   UNL     1      -8.776   6.609 130.765  0.00  0.00    +0.000 C 
ATOM     24  F   UNL     1      -8.699   7.833 130.180  0.00  0.00    +0.000 F 
ATOM     25  F   UNL     1      -9.180   5.741 129.805  0.00  0.00    +0.000 F 
ATOM     26  F   UNL     1      -9.795   6.688 131.668  0.00  0.00    +0.000 F 
ENDBRANCH  21  23
BRANCH  19  27
ATOM     27  C   UNL     1      -6.049   5.452 134.838  0.00  0.00    +0.000 C 
ATOM     28  F   UNL     1      -7.283   5.275 135.391  0.00  0.00    +0.000 F 
ATOM     29  F   UNL     1      -5.335   4.339 135.147  0.00  0.00    +0.000 F 
ATOM     30  F   UNL     1      -5.480   6.482 135.514  0.00  0.00    +0.000 F 
ENDBRANCH  19  27
ENDBRANCH  16  17
ENDBRANCH  14  16
ENDBRANCH   1  14
BRANCH   5  31
ATOM     31  C   UNL     1      -5.634   0.896 127.889  0.00  0.00    +0.000 C 
BRANCH  31  32
ATOM     32  C   UNL     1      -6.470   1.377 126.752  0.00  0.00    +0.000 A 
ATOM     33  N   UNL     1      -7.756   1.487 126.896  0.00  0.00    +0.000 NA
ATOM     34  C   UNL     1      -8.198   1.961 125.689  0.00  0.00    +0.000 A 
ATOM     35  O   UNL     1      -9.368   2.071 125.398  0.00  0.00    +0.000 OA
ATOM     36  N   UNL     1      -7.097   2.220 124.870  0.00  0.00    +0.000 N 
ATOM     37  N   UNL     1      -6.003   1.701 125.498  0.00  0.00    +0.000 N 
ATOM     38  H   UNL     1      -5.063   1.822 125.145  0.00  0.00    +0.000 HD
BRANCH  36  39
ATOM     39  P   UNL     1      -7.154   2.901 123.225  0.00  0.00    +0.000 P 
ATOM     40  O   UNL     1      -7.204   3.493 121.796  0.00  0.00    +0.000 OA
BRANCH  39  41
ATOM     41  O   UNL     1      -8.352   1.874 122.805  0.00  0.00    +0.000 OA
ATOM     42  H   UNL     1      -8.182   1.019 122.360  0.00  0.00    +0.000 HD
ENDBRANCH  39  41
BRANCH  39  43
ATOM     43  O   UNL     1      -8.010   4.134 123.888  0.00  0.00    +0.000 OA
ATOM     44  H   UNL     1      -7.986   4.183 124.857  0.00  0.00    +0.000 HD
ENDBRANCH  39  43
ENDBRANCH  36  39
ENDBRANCH  31  32
ENDBRANCH   5  31
TORSDOF 11
ENDMDL
