MODEL 1
REMARK VINA RESULT:      -4.0      0.000      0.000
REMARK  Name = Foscarnet
REMARK  4 active torsions:
REMARK  status: ('A' for Active; 'I' for Inactive)
REMARK    1  A    between atoms: O_1  and  C_2
REMARK    2  A    between atoms: C_2  and  P_4
REMARK    3  A    between atoms: P_4  and  O_5
REMARK    4  A    between atoms: P_4  and  O_6
REMARK                            x       y       z     vdW  Elec       q    Type
REMARK                         _______ _______ _______ _____ _____    ______ ____
ROOT
ATOM      1  P   UNL     1     -11.102   7.586 126.876  0.00  0.00    +0.000 P 
ATOM      2  O   UNL     1     -10.753   8.003 125.427  0.00  0.00    +0.000 OA
ENDROOT
BRANCH   1   3
ATOM      3  C   UNL     1     -11.513   7.093 128.590  0.00  0.00    +0.000 C 
ATOM      4  O   UNL     1     -12.180   6.074 128.758  0.00  0.00    +0.000 OA
BRANCH   3   5
ATOM      5  O   UNL     1     -11.088   7.842 129.651  0.00  0.00    +0.000 OA
ATOM      6  H   UNL     1     -11.406   7.541 130.517  0.00  0.00    +0.000 HD
ENDBRANCH   3   5
ENDBRANCH   1   3
BRANCH   1   7
ATOM      7  O   UNL     1      -9.840   6.504 126.921  0.00  0.00    +0.000 OA
ATOM      8  H   UNL     1      -9.758   5.930 127.708  0.00  0.00    +0.000 HD
ENDBRANCH   1   7
BRANCH   1   9
ATOM      9  O   UNL     1     -12.319   6.582 126.346  0.00  0.00    +0.000 OA
ATOM     10  H   UNL     1     -12.932   6.984 125.691  0.00  0.00    +0.000 HD
ENDBRANCH   1   9
TORSDOF 4
ENDMDL
MODEL 2
REMARK VINA RESULT:      -4.0      1.450      3.225
REMARK  Name = Foscarnet
REMARK  4 active torsions:
REMARK  status: ('A' for Active; 'I' for Inactive)
REMARK    1  A    between atoms: O_1  and  C_2
REMARK    2  A    between atoms: C_2  and  P_4
REMARK    3  A    between atoms: P_4  and  O_5
REMARK    4  A    between atoms: P_4  and  O_6
REMARK                            x       y       z     vdW  Elec       q    Type
REMARK                         _______ _______ _______ _____ _____    ______ ____
ROOT
ATOM      1  P   UNL     1     -11.490   8.119 127.862  0.00  0.00    +0.000 P 
ATOM      2  O   UNL     1     -12.126   8.663 129.164  0.00  0.00    +0.000 OA
ENDROOT
BRANCH   1   3
ATOM      3  C   UNL     1     -10.738   7.476 126.323  0.00  0.00    +0.000 C 
ATOM      4  O   UNL     1     -10.134   6.406 126.373  0.00  0.00    +0.000 OA
BRANCH   3   5
ATOM      5  O   UNL     1     -10.844   8.172 125.151  0.00  0.00    +0.000 OA
ATOM      6  H   UNL     1     -10.515   9.084 125.186  0.00  0.00    +0.000 HD
ENDBRANCH   3   5
ENDBRANCH   1   3
BRANCH   1   7
ATOM      7  O   UNL     1     -11.732   6.546 128.341  0.00  0.00    +0.000 OA
ATOM      8  H   UNL     1     -11.225   5.846 127.885  0.00  0.00    +0.000 HD
ENDBRANCH   1   7
BRANCH   1   9
ATOM      9  O   UNL     1      -9.953   8.363 128.454  0.00  0.00    +0.000 OA
ATOM     10  H   UNL     1      -9.860   9.132 129.059  0.00  0.00    +0.000 HD
ENDBRANCH   1   9
TORSDOF 4
ENDMDL
MODEL 3
REMARK VINA RESULT:      -3.9      1.290      2.694
REMARK  Name = Foscarnet
REMARK  4 active torsions:
REMARK  status: ('A' for Active; 'I' for Inactive)
REMARK    1  A    between atoms: O_1  and  C_2
REMARK    2  A    between atoms: C_2  and  P_4
REMARK    3  A    between atoms: P_4  and  O_5
REMARK    4  A    between atoms: P_4  and  O_6
REMARK                            x       y       z     vdW  Elec       q    Type
REMARK                         _______ _______ _______ _____ _____    ______ ____
ROOT
ATOM      1  P   UNL     1     -12.341   7.411 127.649  0.00  0.00    +0.000 P 
ATOM      2  O   UNL     1     -13.887   7.424 127.570  0.00  0.00    +0.000 OA
ENDROOT
BRANCH   1   3
ATOM      3  C   UNL     1     -10.514   7.397 127.741  0.00  0.00    +0.000 C 
ATOM      4  O   UNL     1      -9.961   8.225 128.462  0.00  0.00    +0.000 OA
BRANCH   3   5
ATOM      5  O   UNL     1      -9.787   6.488 127.023  0.00  0.00    +0.000 OA
ATOM      6  H   UNL     1     -10.287   5.714 126.720  0.00  0.00    +0.000 HD
ENDBRANCH   3   5
ENDBRANCH   1   3
BRANCH   1   7
ATOM      7  O   UNL     1     -12.225   6.592 126.207  0.00  0.00    +0.000 OA
ATOM      8  H   UNL     1     -12.028   7.111 125.402  0.00  0.00    +0.000 HD
ENDBRANCH   1   7
BRANCH   1   9
ATOM      9  O   UNL     1     -12.357   6.125 128.706  0.00  0.00    +0.000 OA
ATOM     10  H   UNL     1     -12.971   5.397 128.462  0.00  0.00    +0.000 HD
ENDBRANCH   1   9
TORSDOF 4
ENDMDL
MODEL 4
REMARK VINA RESULT:      -3.9      1.451      1.893
REMARK  Name = Foscarnet
REMARK  4 active torsions:
REMARK  status: ('A' for Active; 'I' for Inactive)
REMARK    1  A    between atoms: O_1  and  C_2
REMARK    2  A    between atoms: C_2  and  P_4
REMARK    3  A    between atoms: P_4  and  O_5
REMARK    4  A    between atoms: P_4  and  O_6
REMARK                            x       y       z     vdW  Elec       q    Type
REMARK                         _______ _______ _______ _____ _____    ______ ____
ROOT
ATOM      1  P   UNL     1     -11.080   7.348 127.386  0.00  0.00    +0.000 P 
ATOM      2  O   UNL     1      -9.842   6.561 126.890  0.00  0.00    +0.000 OA
ENDROOT
BRANCH   1   3
ATOM      3  C   UNL     1     -12.542   8.277 127.973  0.00  0.00    +0.000 C 
ATOM      4  O   UNL     1     -13.656   7.800 127.768  0.00  0.00    +0.000 OA
BRANCH   3   5
ATOM      5  O   UNL     1     -12.394   9.473 128.621  0.00  0.00    +0.000 OA
ATOM      6  H   UNL     1     -12.228   9.403 129.574  0.00  0.00    +0.000 HD
ENDBRANCH   3   5
ENDBRANCH   1   3
BRANCH   1   7
ATOM      7  O   UNL     1     -11.363   6.239 128.592  0.00  0.00    +0.000 OA
ATOM      8  H   UNL     1     -12.028   5.543 128.425  0.00  0.00    +0.000 HD
ENDBRANCH   1   7
BRANCH   1   9
ATOM      9  O   UNL     1     -12.031   6.706 126.180  0.00  0.00    +0.000 OA
ATOM     10  H   UNL     1     -11.536   6.317 125.425  0.00  0.00    +0.000 HD
ENDBRANCH   1   9
TORSDOF 4
ENDMDL
MODEL 5
REMARK VINA RESULT:      -3.7      1.346      2.809
REMARK  Name = Foscarnet
REMARK  4 active torsions:
REMARK  status: ('A' for Active; 'I' for Inactive)
REMARK    1  A    between atoms: O_1  and  C_2
REMARK    2  A    between atoms: C_2  and  P_4
REMARK    3  A    between atoms: P_4  and  O_5
REMARK    4  A    between atoms: P_4  and  O_6
REMARK                            x       y       z     vdW  Elec       q    Type
REMARK                         _______ _______ _______ _____ _____    ______ ____
ROOT
ATOM      1  P   UNL     1     -10.805   7.390 128.292  0.00  0.00    +0.000 P 
ATOM      2  O   UNL     1      -9.548   7.517 129.187  0.00  0.00    +0.000 OA
ENDROOT
BRANCH   1   3
ATOM      3  C   UNL     1     -12.292   7.239 127.236  0.00  0.00    +0.000 C 
ATOM      4  O   UNL     1     -13.354   7.692 127.658  0.00  0.00    +0.000 OA
BRANCH   3   5
ATOM      5  O   UNL     1     -12.218   6.634 126.012  0.00  0.00    +0.000 OA
ATOM      6  H   UNL     1     -13.075   6.448 125.597  0.00  0.00    +0.000 HD
ENDBRANCH   3   5
ENDBRANCH   1   3
BRANCH   1   7
ATOM      7  O   UNL     1     -11.339   6.065 129.145  0.00  0.00    +0.000 OA
ATOM      8  H   UNL     1     -11.351   6.125 130.120  0.00  0.00    +0.000 HD
ENDBRANCH   1   7
BRANCH   1   9
ATOM      9  O   UNL     1      -9.936   6.626 127.095  0.00  0.00    +0.000 OA
ATOM     10  H   UNL     1     -10.478   6.129 126.443  0.00  0.00    +0.000 HD
ENDBRANCH   1   9
TORSDOF 4
ENDMDL
MODEL 6
REMARK VINA RESULT:      -3.6      2.318      3.170
REMARK  Name = Foscarnet
REMARK  4 active torsions:
REMARK  status: ('A' for Active; 'I' for Inactive)
REMARK    1  A    between atoms: O_1  and  C_2
REMARK    2  A    between atoms: C_2  and  P_4
REMARK    3  A    between atoms: P_4  and  O_5
REMARK    4  A    between atoms: P_4  and  O_6
REMARK                            x       y       z     vdW  Elec       q    Type
REMARK                         _______ _______ _______ _____ _____    ______ ____
ROOT
ATOM      1  P   UNL     1     -12.230   6.644 129.397  0.00  0.00    +0.000 P 
ATOM      2  O   UNL     1     -12.110   6.562 127.856  0.00  0.00    +0.000 OA
ENDROOT
BRANCH   1   3
ATOM      3  C   UNL     1     -12.371   6.743 131.219  0.00  0.00    +0.000 C 
ATOM      4  O   UNL     1     -13.213   7.499 131.697  0.00  0.00    +0.000 OA
BRANCH   3   5
ATOM      5  O   UNL     1     -11.556   5.994 132.022  0.00  0.00    +0.000 OA
ATOM      6  H   UNL     1     -11.187   6.469 132.783  0.00  0.00    +0.000 HD
ENDBRANCH   3   5
ENDBRANCH   1   3
BRANCH   1   7
ATOM      7  O   UNL     1     -11.108   7.869 129.468  0.00  0.00    +0.000 OA
ATOM      8  H   UNL     1     -11.042   8.380 130.298  0.00  0.00    +0.000 HD
ENDBRANCH   1   7
BRANCH   1   9
ATOM      9  O   UNL     1     -11.228   5.329 129.593  0.00  0.00    +0.000 OA
ATOM     10  H   UNL     1     -10.467   5.475 130.197  0.00  0.00    +0.000 HD
ENDBRANCH   1   9
TORSDOF 4
ENDMDL
MODEL 7
REMARK VINA RESULT:      -3.6      1.620      3.417
REMARK  Name = Foscarnet
REMARK  4 active torsions:
REMARK  status: ('A' for Active; 'I' for Inactive)
REMARK    1  A    between atoms: O_1  and  C_2
REMARK    2  A    between atoms: C_2  and  P_4
REMARK    3  A    between atoms: P_4  and  O_5
REMARK    4  A    between atoms: P_4  and  O_6
REMARK                            x       y       z     vdW  Elec       q    Type
REMARK                         _______ _______ _______ _____ _____    ______ ____
ROOT
ATOM      1  P   UNL     1     -12.047   7.650 128.718  0.00  0.00    +0.000 P 
ATOM      2  O   UNL     1     -12.403   7.802 130.217  0.00  0.00    +0.000 OA
ENDROOT
BRANCH   1   3
ATOM      3  C   UNL     1     -11.625   7.471 126.946  0.00  0.00    +0.000 C 
ATOM      4  O   UNL     1     -10.767   8.214 126.474  0.00  0.00    +0.000 OA
BRANCH   3   5
ATOM      5  O   UNL     1     -12.254   6.537 126.171  0.00  0.00    +0.000 OA
ATOM      6  H   UNL     1     -13.206   6.444 126.335  0.00  0.00    +0.000 HD
ENDBRANCH   3   5
ENDBRANCH   1   3
BRANCH   1   7
ATOM      7  O   UNL     1     -12.306   9.269 128.441  0.00  0.00    +0.000 OA
ATOM      8  H   UNL     1     -12.946   9.516 127.746  0.00  0.00    +0.000 HD
ENDBRANCH   1   7
BRANCH   1   9
ATOM      9  O   UNL     1     -13.562   7.055 128.368  0.00  0.00    +0.000 OA
ATOM     10  H   UNL     1     -14.057   6.703 129.141  0.00  0.00    +0.000 HD
ENDBRANCH   1   9
TORSDOF 4
ENDMDL
MODEL 8
REMARK VINA RESULT:      -3.5      3.372      4.068
REMARK  Name = Foscarnet
REMARK  4 active torsions:
REMARK  status: ('A' for Active; 'I' for Inactive)
REMARK    1  A    between atoms: O_1  and  C_2
REMARK    2  A    between atoms: C_2  and  P_4
REMARK    3  A    between atoms: P_4  and  O_5
REMARK    4  A    between atoms: P_4  and  O_6
REMARK                            x       y       z     vdW  Elec       q    Type
REMARK                         _______ _______ _______ _____ _____    ______ ____
ROOT
ATOM      1  P   UNL     1     -10.391   5.289 130.409  0.00  0.00    +0.000 P 
ATOM      2  O   UNL     1      -9.730   4.537 129.229  0.00  0.00    +0.000 OA
ENDROOT
BRANCH   1   3
ATOM      3  C   UNL     1     -11.172   6.177 131.805  0.00  0.00    +0.000 C 
ATOM      4  O   UNL     1     -12.352   6.503 131.700  0.00  0.00    +0.000 OA
BRANCH   3   5
ATOM      5  O   UNL     1     -10.456   6.470 132.933  0.00  0.00    +0.000 OA
ATOM      6  H   UNL     1     -10.397   7.415 133.144  0.00  0.00    +0.000 HD
ENDBRANCH   3   5
ENDBRANCH   1   3
BRANCH   1   7
ATOM      7  O   UNL     1     -10.866   3.861 131.118  0.00  0.00    +0.000 OA
ATOM      8  H   UNL     1     -11.001   3.855 132.085  0.00  0.00    +0.000 HD
ENDBRANCH   1   7
BRANCH   1   9
ATOM      9  O   UNL     1     -11.747   5.621 129.502  0.00  0.00    +0.000 OA
ATOM     10  H   UNL     1     -12.553   5.126 129.767  0.00  0.00    +0.000 HD
ENDBRANCH   1   9
TORSDOF 4
ENDMDL
MODEL 9
REMARK VINA RESULT:      -3.5      4.841      6.104
REMARK  Name = Foscarnet
REMARK  4 active torsions:
REMARK  status: ('A' for Active; 'I' for Inactive)
REMARK    1  A    between atoms: O_1  and  C_2
REMARK    2  A    between atoms: C_2  and  P_4
REMARK    3  A    between atoms: P_4  and  O_5
REMARK    4  A    between atoms: P_4  and  O_6
REMARK                            x       y       z     vdW  Elec       q    Type
REMARK                         _______ _______ _______ _____ _____    ______ ____
ROOT
ATOM      1  P   UNL     1      -7.926   3.723 125.041  0.00  0.00    +0.000 P 
ATOM      2  O   UNL     1      -9.162   2.809 125.221  0.00  0.00    +0.000 OA
ENDROOT
BRANCH   1   3
ATOM      3  C   UNL     1      -6.466   4.805 124.830  0.00  0.00    +0.000 C 
ATOM      4  O   UNL     1      -6.080   5.458 125.797  0.00  0.00    +0.000 OA
BRANCH   3   5
ATOM      5  O   UNL     1      -5.825   4.884 123.624  0.00  0.00    +0.000 OA
ATOM      6  H   UNL     1      -5.102   4.248 123.504  0.00  0.00    +0.000 HD
ENDBRANCH   3   5
ENDBRANCH   1   3
BRANCH   1   7
ATOM      7  O   UNL     1      -8.788   5.064 125.514  0.00  0.00    +0.000 OA
ATOM      8  H   UNL     1      -9.734   4.947 125.727  0.00  0.00    +0.000 HD
ENDBRANCH   1   7
BRANCH   1   9
ATOM      9  O   UNL     1      -8.161   3.799 123.395  0.00  0.00    +0.000 OA
ATOM     10  H   UNL     1      -8.719   4.550 123.091  0.00  0.00    +0.000 HD
ENDBRANCH   1   9
TORSDOF 4
ENDMDL
