MODEL 1
REMARK VINA RESULT:      -7.7      0.000      0.000
REMARK  Name = Fosdenopterin
REMARK  3 active torsions:
REMARK  status: ('A' for Active; 'I' for Inactive)
REMARK    1  A    between atoms: P_5  and  O_6
REMARK    2  A    between atoms: C_11  and  O_12
REMARK    3  A    between atoms: C_11  and  O_13
REMARK                            x       y       z     vdW  Elec       q    Type
REMARK                         _______ _______ _______ _____ _____    ______ ____
ROOT
ATOM      1  C   UNL     1      -7.498   0.013 123.760  0.00  0.00    +0.000 C 
ATOM      2  C   UNL     1      -6.666  -0.267 124.916  0.00  0.00    +0.000 C 
ATOM      3  O   UNL     1      -7.162   0.964 125.588  0.00  0.00    +0.000 OA
ATOM      4  P   UNL     1      -6.595   0.784 127.213  0.00  0.00    +0.000 P 
ATOM      5  O   UNL     1      -6.088   0.624 128.666  0.00  0.00    +0.000 OA
ATOM      6  O   UNL     1      -8.389   0.336 126.566  0.00  0.00    +0.000 OA
ATOM      7  C   UNL     1      -8.786   0.413 124.718  0.00  0.00    +0.000 C 
ATOM      8  C   UNL     1      -9.196   1.897 124.432  0.00  0.00    +0.000 C 
ATOM      9  C   UNL     1      -8.308   2.786 123.481  0.00  0.00    +0.000 C 
ATOM     10  N   UNL     1      -8.765   2.957 122.081  0.00  0.00    +0.000 N 
ATOM     11  C   UNL     1      -7.890   3.584 121.168  0.00  0.00    +0.000 A 
ATOM     12  C   UNL     1      -6.569   3.763 121.412  0.00  0.00    +0.000 A 
ATOM     13  N   UNL     1      -5.814   4.494 120.531  0.00  0.00    +0.000 N 
ATOM     14  C   UNL     1      -6.340   4.933 119.357  0.00  0.00    +0.000 A 
ATOM     15  N   UNL     1      -5.480   5.594 118.550  0.00  0.00    +0.000 N 
ATOM     16  N   UNL     1      -7.561   4.767 118.993  0.00  0.00    +0.000 NA
ATOM     17  C   UNL     1      -8.433   4.090 119.841  0.00  0.00    +0.000 A 
ATOM     18  O   UNL     1      -9.596   3.881 119.576  0.00  0.00    +0.000 OA
ATOM     19  N   UNL     1      -6.012   3.175 122.536  0.00  0.00    +0.000 N 
ATOM     20  C   UNL     1      -6.822   2.331 123.437  0.00  0.00    +0.000 C 
ATOM     21  O   UNL     1      -6.806   0.987 122.948  0.00  0.00    +0.000 OA
ATOM     22  H   UNL     1      -9.647   2.644 121.697  0.00  0.00    +0.000 HD
ATOM     23  H   UNL     1      -4.833   4.581 120.730  0.00  0.00    +0.000 HD
ATOM     24  H   UNL     1      -4.499   5.730 118.733  0.00  0.00    +0.000 HD
ATOM     25  H   UNL     1      -5.846   5.909 117.659  0.00  0.00    +0.000 HD
ATOM     26  H   UNL     1      -5.208   3.631 122.950  0.00  0.00    +0.000 HD
ENDROOT
BRANCH   4  27
ATOM     27  O   UNL     1      -5.767   2.090 126.764  0.00  0.00    +0.000 OA
ATOM     28  H   UNL     1      -6.428   2.820 126.761  0.00  0.00    +0.000 HD
ENDBRANCH   4  27
BRANCH   8  29
ATOM     29  O   UNL     1     -10.578   1.855 124.081  0.00  0.00    +0.000 OA
ATOM     30  H   UNL     1     -11.074   1.459 124.811  0.00  0.00    +0.000 HD
ENDBRANCH   8  29
BRANCH   8  31
ATOM     31  O   UNL     1      -9.139   2.553 125.708  0.00  0.00    +0.000 OA
ATOM     32  H   UNL     1      -8.627   3.361 125.483  0.00  0.00    +0.000 HD
ENDBRANCH   8  31
TORSDOF 3
ENDMDL
MODEL 2
REMARK VINA RESULT:      -7.6      7.886      9.070
REMARK  Name = Fosdenopterin
REMARK  3 active torsions:
REMARK  status: ('A' for Active; 'I' for Inactive)
REMARK    1  A    between atoms: P_5  and  O_6
REMARK    2  A    between atoms: C_11  and  O_12
REMARK    3  A    between atoms: C_11  and  O_13
REMARK                            x       y       z     vdW  Elec       q    Type
REMARK                         _______ _______ _______ _____ _____    ______ ____
ROOT
ATOM      1  C   UNL     1      -9.652   2.209 130.943  0.00  0.00    +0.000 C 
ATOM      2  C   UNL     1      -8.388   1.618 130.542  0.00  0.00    +0.000 C 
ATOM      3  O   UNL     1      -7.649   2.588 131.394  0.00  0.00    +0.000 OA
ATOM      4  P   UNL     1      -6.041   1.951 131.417  0.00  0.00    +0.000 P 
ATOM      5  O   UNL     1      -4.602   1.381 131.437  0.00  0.00    +0.000 OA
ATOM      6  O   UNL     1      -7.404   1.678 132.797  0.00  0.00    +0.000 OA
ATOM      7  C   UNL     1      -9.174   2.285 132.525  0.00  0.00    +0.000 C 
ATOM      8  C   UNL     1      -9.188   3.780 132.992  0.00  0.00    +0.000 C 
ATOM      9  C   UNL     1      -9.467   4.925 131.946  0.00  0.00    +0.000 C 
ATOM     10  N   UNL     1     -10.837   5.491 131.899  0.00  0.00    +0.000 N 
ATOM     11  C   UNL     1     -11.156   6.374 130.847  0.00  0.00    +0.000 A 
ATOM     12  C   UNL     1     -10.398   6.499 129.730  0.00  0.00    +0.000 A 
ATOM     13  N   UNL     1     -10.707   7.470 128.812  0.00  0.00    +0.000 N 
ATOM     14  C   UNL     1     -11.830   8.225 128.943  0.00  0.00    +0.000 A 
ATOM     15  N   UNL     1     -12.051   9.109 127.944  0.00  0.00    +0.000 N 
ATOM     16  N   UNL     1     -12.654   8.149 129.926  0.00  0.00    +0.000 NA
ATOM     17  C   UNL     1     -12.404   7.237 130.947  0.00  0.00    +0.000 A 
ATOM     18  O   UNL     1     -13.128   7.092 131.907  0.00  0.00    +0.000 OA
ATOM     19  N   UNL     1      -9.347   5.619 129.534  0.00  0.00    +0.000 N 
ATOM     20  C   UNL     1      -9.073   4.532 130.495  0.00  0.00    +0.000 C 
ATOM     21  O   UNL     1      -9.858   3.390 130.139  0.00  0.00    +0.000 OA
ATOM     22  H   UNL     1     -11.590   5.287 132.543  0.00  0.00    +0.000 HD
ATOM     23  H   UNL     1     -10.141   7.514 127.983  0.00  0.00    +0.000 HD
ATOM     24  H   UNL     1     -11.487   9.204 127.117  0.00  0.00    +0.000 HD
ATOM     25  H   UNL     1     -12.896   9.664 128.011  0.00  0.00    +0.000 HD
ATOM     26  H   UNL     1      -8.559   5.948 128.991  0.00  0.00    +0.000 HD
ENDROOT
BRANCH   4  27
ATOM     27  O   UNL     1      -5.785   3.346 130.655  0.00  0.00    +0.000 OA
ATOM     28  H   UNL     1      -6.201   4.028 131.231  0.00  0.00    +0.000 HD
ENDBRANCH   4  27
BRANCH   8  29
ATOM     29  O   UNL     1     -10.027   3.817 134.146  0.00  0.00    +0.000 OA
ATOM     30  H   UNL     1      -9.678   4.473 134.766  0.00  0.00    +0.000 HD
ENDBRANCH   8  29
BRANCH   8  31
ATOM     31  O   UNL     1      -7.859   4.034 133.470  0.00  0.00    +0.000 OA
ATOM     32  H   UNL     1      -7.548   3.122 133.662  0.00  0.00    +0.000 HD
ENDBRANCH   8  31
TORSDOF 3
ENDMDL
MODEL 3
REMARK VINA RESULT:      -7.1      6.330      8.354
REMARK  Name = Fosdenopterin
REMARK  3 active torsions:
REMARK  status: ('A' for Active; 'I' for Inactive)
REMARK    1  A    between atoms: P_5  and  O_6
REMARK    2  A    between atoms: C_11  and  O_12
REMARK    3  A    between atoms: C_11  and  O_13
REMARK                            x       y       z     vdW  Elec       q    Type
REMARK                         _______ _______ _______ _____ _____    ______ ____
ROOT
ATOM      1  C   UNL     1      -8.817   6.150 130.927  0.00  0.00    +0.000 C 
ATOM      2  C   UNL     1      -9.669   7.164 130.334  0.00  0.00    +0.000 C 
ATOM      3  O   UNL     1     -10.601   6.112 129.845  0.00  0.00    +0.000 OA
ATOM      4  P   UNL     1     -11.985   7.016 129.332  0.00  0.00    +0.000 P 
ATOM      5  O   UNL     1     -13.222   7.824 128.873  0.00  0.00    +0.000 OA
ATOM      6  O   UNL     1     -11.775   6.119 131.061  0.00  0.00    +0.000 OA
ATOM      7  C   UNL     1     -10.121   5.335 131.537  0.00  0.00    +0.000 C 
ATOM      8  C   UNL     1     -10.146   3.889 130.936  0.00  0.00    +0.000 C 
ATOM      9  C   UNL     1      -9.120   3.490 129.809  0.00  0.00    +0.000 C 
ATOM     10  N   UNL     1      -7.922   2.718 130.216  0.00  0.00    +0.000 N 
ATOM     11  C   UNL     1      -6.902   2.520 129.261  0.00  0.00    +0.000 A 
ATOM     12  C   UNL     1      -6.815   3.234 128.113  0.00  0.00    +0.000 A 
ATOM     13  N   UNL     1      -5.870   2.894 127.179  0.00  0.00    +0.000 N 
ATOM     14  C   UNL     1      -4.941   1.937 127.440  0.00  0.00    +0.000 A 
ATOM     15  N   UNL     1      -4.030   1.733 126.462  0.00  0.00    +0.000 N 
ATOM     16  N   UNL     1      -4.889   1.241 128.519  0.00  0.00    +0.000 NA
ATOM     17  C   UNL     1      -5.839   1.461 129.511  0.00  0.00    +0.000 A 
ATOM     18  O   UNL     1      -5.862   0.859 130.561  0.00  0.00    +0.000 OA
ATOM     19  N   UNL     1      -7.669   4.309 127.928  0.00  0.00    +0.000 N 
ATOM     20  C   UNL     1      -8.632   4.706 128.974  0.00  0.00    +0.000 C 
ATOM     21  O   UNL     1      -7.986   5.608 129.878  0.00  0.00    +0.000 OA
ATOM     22  H   UNL     1      -7.744   2.329 131.133  0.00  0.00    +0.000 HD
ATOM     23  H   UNL     1      -5.816   3.464 126.353  0.00  0.00    +0.000 HD
ATOM     24  H   UNL     1      -3.968   2.261 125.607  0.00  0.00    +0.000 HD
ATOM     25  H   UNL     1      -3.314   1.040 126.646  0.00  0.00    +0.000 HD
ATOM     26  H   UNL     1      -7.915   4.551 126.976  0.00  0.00    +0.000 HD
ENDROOT
BRANCH   4  27
ATOM     27  O   UNL     1     -11.509   6.399 127.924  0.00  0.00    +0.000 OA
ATOM     28  H   UNL     1     -12.327   6.359 127.376  0.00  0.00    +0.000 HD
ENDBRANCH   4  27
BRANCH   8  29
ATOM     29  O   UNL     1     -10.165   3.006 132.057  0.00  0.00    +0.000 OA
ATOM     30  H   UNL     1      -9.305   3.045 132.501  0.00  0.00    +0.000 HD
ENDBRANCH   8  29
BRANCH   8  31
ATOM     31  O   UNL     1     -11.437   3.763 130.321  0.00  0.00    +0.000 OA
ATOM     32  H   UNL     1     -11.239   3.135 129.592  0.00  0.00    +0.000 HD
ENDBRANCH   8  31
TORSDOF 3
ENDMDL
MODEL 4
REMARK VINA RESULT:      -7.1      8.730      9.844
REMARK  Name = Fosdenopterin
REMARK  3 active torsions:
REMARK  status: ('A' for Active; 'I' for Inactive)
REMARK    1  A    between atoms: P_5  and  O_6
REMARK    2  A    between atoms: C_11  and  O_12
REMARK    3  A    between atoms: C_11  and  O_13
REMARK                            x       y       z     vdW  Elec       q    Type
REMARK                         _______ _______ _______ _____ _____    ______ ____
ROOT
ATOM      1  C   UNL     1      -7.528   3.145 131.919  0.00  0.00    +0.000 C 
ATOM      2  C   UNL     1      -6.084   3.036 131.815  0.00  0.00    +0.000 C 
ATOM      3  O   UNL     1      -5.917   4.176 132.755  0.00  0.00    +0.000 OA
ATOM      4  P   UNL     1      -4.231   4.130 133.139  0.00  0.00    +0.000 P 
ATOM      5  O   UNL     1      -2.722   4.089 133.482  0.00  0.00    +0.000 OA
ATOM      6  O   UNL     1      -5.676   3.367 134.219  0.00  0.00    +0.000 OA
ATOM      7  C   UNL     1      -7.448   3.337 133.560  0.00  0.00    +0.000 C 
ATOM      8  C   UNL     1      -8.069   4.722 133.944  0.00  0.00    +0.000 C 
ATOM      9  C   UNL     1      -8.496   5.730 132.812  0.00  0.00    +0.000 C 
ATOM     10  N   UNL     1      -9.935   5.792 132.457  0.00  0.00    +0.000 N 
ATOM     11  C   UNL     1     -10.308   6.541 131.321  0.00  0.00    +0.000 A 
ATOM     12  C   UNL     1      -9.422   6.950 130.380  0.00  0.00    +0.000 A 
ATOM     13  N   UNL     1      -9.844   7.782 129.375  0.00  0.00    +0.000 N 
ATOM     14  C   UNL     1     -11.158   8.100 129.235  0.00  0.00    +0.000 A 
ATOM     15  N   UNL     1     -11.453   8.883 128.173  0.00  0.00    +0.000 N 
ATOM     16  N   UNL     1     -12.093   7.719 130.030  0.00  0.00    +0.000 NA
ATOM     17  C   UNL     1     -11.767   6.920 131.121  0.00  0.00    +0.000 A 
ATOM     18  O   UNL     1     -12.583   6.508 131.916  0.00  0.00    +0.000 OA
ATOM     19  N   UNL     1      -8.117   6.490 130.446  0.00  0.00    +0.000 N 
ATOM     20  C   UNL     1      -7.696   5.538 131.493  0.00  0.00    +0.000 C 
ATOM     21  O   UNL     1      -7.951   4.206 131.035  0.00  0.00    +0.000 OA
ATOM     22  H   UNL     1     -10.690   5.324 132.940  0.00  0.00    +0.000 HD
ATOM     23  H   UNL     1      -9.167   8.041 128.679  0.00  0.00    +0.000 HD
ATOM     24  H   UNL     1     -10.795   9.189 127.476  0.00  0.00    +0.000 HD
ATOM     25  H   UNL     1     -12.431   9.112 128.037  0.00  0.00    +0.000 HD
ATOM     26  H   UNL     1      -7.393   7.085 130.063  0.00  0.00    +0.000 HD
ENDROOT
BRANCH   4  27
ATOM     27  O   UNL     1      -4.312   5.549 132.383  0.00  0.00    +0.000 OA
ATOM     28  H   UNL     1      -4.371   6.217 133.105  0.00  0.00    +0.000 HD
ENDBRANCH   4  27
BRANCH   8  29
ATOM     29  O   UNL     1      -9.092   4.435 134.897  0.00  0.00    +0.000 OA
ATOM     30  H   UNL     1      -9.421   5.269 135.262  0.00  0.00    +0.000 HD
ENDBRANCH   8  29
BRANCH   8  31
ATOM     31  O   UNL     1      -7.038   5.404 134.674  0.00  0.00    +0.000 OA
ATOM     32  H   UNL     1      -7.535   5.708 135.465  0.00  0.00    +0.000 HD
ENDBRANCH   8  31
TORSDOF 3
ENDMDL
MODEL 5
REMARK VINA RESULT:      -7.0      7.305      8.771
REMARK  Name = Fosdenopterin
REMARK  3 active torsions:
REMARK  status: ('A' for Active; 'I' for Inactive)
REMARK    1  A    between atoms: P_5  and  O_6
REMARK    2  A    between atoms: C_11  and  O_12
REMARK    3  A    between atoms: C_11  and  O_13
REMARK                            x       y       z     vdW  Elec       q    Type
REMARK                         _______ _______ _______ _____ _____    ______ ____
ROOT
ATOM      1  C   UNL     1      -6.370   6.338 130.839  0.00  0.00    +0.000 C 
ATOM      2  C   UNL     1      -6.064   6.170 132.248  0.00  0.00    +0.000 C 
ATOM      3  O   UNL     1      -6.977   4.998 132.319  0.00  0.00    +0.000 OA
ATOM      4  P   UNL     1      -6.607   4.301 133.859  0.00  0.00    +0.000 P 
ATOM      5  O   UNL     1      -6.276   3.678 135.237  0.00  0.00    +0.000 OA
ATOM      6  O   UNL     1      -5.888   3.719 132.133  0.00  0.00    +0.000 OA
ATOM      7  C   UNL     1      -6.247   4.712 130.564  0.00  0.00    +0.000 C 
ATOM      8  C   UNL     1      -7.617   4.179 130.026  0.00  0.00    +0.000 C 
ATOM      9  C   UNL     1      -8.867   5.137 129.980  0.00  0.00    +0.000 C 
ATOM     10  N   UNL     1      -9.209   5.753 128.675  0.00  0.00    +0.000 N 
ATOM     11  C   UNL     1     -10.200   6.758 128.653  0.00  0.00    +0.000 A 
ATOM     12  C   UNL     1     -10.634   7.394 129.768  0.00  0.00    +0.000 A 
ATOM     13  N   UNL     1     -11.688   8.266 129.679  0.00  0.00    +0.000 N 
ATOM     14  C   UNL     1     -12.221   8.597 128.473  0.00  0.00    +0.000 A 
ATOM     15  N   UNL     1     -13.219   9.509 128.514  0.00  0.00    +0.000 N 
ATOM     16  N   UNL     1     -11.848   8.105 127.346  0.00  0.00    +0.000 NA
ATOM     17  C   UNL     1     -10.825   7.162 127.327  0.00  0.00    +0.000 A 
ATOM     18  O   UNL     1     -10.404   6.652 126.312  0.00  0.00    +0.000 OA
ATOM     19  N   UNL     1      -9.977   7.164 130.966  0.00  0.00    +0.000 N 
ATOM     20  C   UNL     1      -8.798   6.278 131.032  0.00  0.00    +0.000 C 
ATOM     21  O   UNL     1      -7.625   7.046 130.745  0.00  0.00    +0.000 OA
ATOM     22  H   UNL     1      -8.782   5.540 127.783  0.00  0.00    +0.000 HD
ATOM     23  H   UNL     1     -11.962   8.741 130.520  0.00  0.00    +0.000 HD
ATOM     24  H   UNL     1     -13.543   9.979 129.342  0.00  0.00    +0.000 HD
ATOM     25  H   UNL     1     -13.614   9.787 127.623  0.00  0.00    +0.000 HD
ATOM     26  H   UNL     1     -10.515   7.260 131.818  0.00  0.00    +0.000 HD
ENDROOT
BRANCH   4  27
ATOM     27  O   UNL     1      -8.135   4.743 134.106  0.00  0.00    +0.000 OA
ATOM     28  H   UNL     1      -8.161   5.052 135.041  0.00  0.00    +0.000 HD
ENDBRANCH   4  27
BRANCH   8  29
ATOM     29  O   UNL     1      -7.322   3.533 128.788  0.00  0.00    +0.000 OA
ATOM     30  H   UNL     1      -7.943   3.846 128.116  0.00  0.00    +0.000 HD
ENDBRANCH   8  29
BRANCH   8  31
ATOM     31  O   UNL     1      -7.992   3.130 130.932  0.00  0.00    +0.000 OA
ATOM     32  H   UNL     1      -7.153   2.621 130.990  0.00  0.00    +0.000 HD
ENDBRANCH   8  31
TORSDOF 3
ENDMDL
MODEL 6
REMARK VINA RESULT:      -6.9      3.565      5.632
REMARK  Name = Fosdenopterin
REMARK  3 active torsions:
REMARK  status: ('A' for Active; 'I' for Inactive)
REMARK    1  A    between atoms: P_5  and  O_6
REMARK    2  A    between atoms: C_11  and  O_12
REMARK    3  A    between atoms: C_11  and  O_13
REMARK                            x       y       z     vdW  Elec       q    Type
REMARK                         _______ _______ _______ _____ _____    ______ ____
ROOT
ATOM      1  C   UNL     1      -7.909   3.259 126.728  0.00  0.00    +0.000 C 
ATOM      2  C   UNL     1      -6.826   3.768 127.550  0.00  0.00    +0.000 C 
ATOM      3  O   UNL     1      -5.906   3.733 126.381  0.00  0.00    +0.000 OA
ATOM      4  P   UNL     1      -4.527   4.619 126.935  0.00  0.00    +0.000 P 
ATOM      5  O   UNL     1      -3.293   5.411 127.431  0.00  0.00    +0.000 OA
ATOM      6  O   UNL     1      -5.989   5.333 125.845  0.00  0.00    +0.000 OA
ATOM      7  C   UNL     1      -7.518   4.279 125.486  0.00  0.00    +0.000 C 
ATOM      8  C   UNL     1      -7.162   3.430 124.219  0.00  0.00    +0.000 C 
ATOM      9  C   UNL     1      -7.069   1.861 124.328  0.00  0.00    +0.000 C 
ATOM     10  N   UNL     1      -8.236   1.073 123.864  0.00  0.00    +0.000 N 
ATOM     11  C   UNL     1      -8.251  -0.313 124.131  0.00  0.00    +0.000 A 
ATOM     12  C   UNL     1      -7.426  -0.903 125.030  0.00  0.00    +0.000 A 
ATOM     13  N   UNL     1      -7.414  -2.270 125.138  0.00  0.00    +0.000 N 
ATOM     14  C   UNL     1      -8.304  -3.033 124.449  0.00  0.00    +0.000 A 
ATOM     15  N   UNL     1      -8.227  -4.362 124.684  0.00  0.00    +0.000 N 
ATOM     16  N   UNL     1      -9.172  -2.577 123.618  0.00  0.00    +0.000 NA
ATOM     17  C   UNL     1      -9.230  -1.207 123.386  0.00  0.00    +0.000 A 
ATOM     18  O   UNL     1     -10.020  -0.690 122.627  0.00  0.00    +0.000 OA
ATOM     19  N   UNL     1      -6.635  -0.101 125.837  0.00  0.00    +0.000 N 
ATOM     20  C   UNL     1      -6.712   1.371 125.759  0.00  0.00    +0.000 C 
ATOM     21  O   UNL     1      -7.750   1.827 126.633  0.00  0.00    +0.000 OA
ATOM     22  H   UNL     1      -9.051   1.435 123.387  0.00  0.00    +0.000 HD
ATOM     23  H   UNL     1      -6.812  -2.670 125.835  0.00  0.00    +0.000 HD
ATOM     24  H   UNL     1      -7.612  -4.801 125.349  0.00  0.00    +0.000 HD
ATOM     25  H   UNL     1      -8.898  -4.947 124.198  0.00  0.00    +0.000 HD
ATOM     26  H   UNL     1      -5.759  -0.488 126.163  0.00  0.00    +0.000 HD
ENDROOT
BRANCH   4  27
ATOM     27  O   UNL     1      -3.869   3.164 126.733  0.00  0.00    +0.000 OA
ATOM     28  H   UNL     1      -3.123   3.309 126.106  0.00  0.00    +0.000 HD
ENDBRANCH   4  27
BRANCH   8  29
ATOM     29  O   UNL     1      -8.025   3.901 123.185  0.00  0.00    +0.000 OA
ATOM     30  H   UNL     1      -7.861   3.385 122.383  0.00  0.00    +0.000 HD
ENDBRANCH   8  29
BRANCH   8  31
ATOM     31  O   UNL     1      -5.842   3.852 123.846  0.00  0.00    +0.000 OA
ATOM     32  H   UNL     1      -5.509   3.050 123.386  0.00  0.00    +0.000 HD
ENDBRANCH   8  31
TORSDOF 3
ENDMDL
MODEL 7
REMARK VINA RESULT:      -6.8      4.852      7.191
REMARK  Name = Fosdenopterin
REMARK  3 active torsions:
REMARK  status: ('A' for Active; 'I' for Inactive)
REMARK    1  A    between atoms: P_5  and  O_6
REMARK    2  A    between atoms: C_11  and  O_12
REMARK    3  A    between atoms: C_11  and  O_13
REMARK                            x       y       z     vdW  Elec       q    Type
REMARK                         _______ _______ _______ _____ _____    ______ ____
ROOT
ATOM      1  C   UNL     1      -6.460   1.311 125.152  0.00  0.00    +0.000 C 
ATOM      2  C   UNL     1      -7.378   0.390 124.508  0.00  0.00    +0.000 C 
ATOM      3  O   UNL     1      -8.400   1.465 124.398  0.00  0.00    +0.000 OA
ATOM      4  P   UNL     1      -9.583   0.781 123.335  0.00  0.00    +0.000 P 
ATOM      5  O   UNL     1     -10.640   0.169 122.385  0.00  0.00    +0.000 OA
ATOM      6  O   UNL     1      -8.144   2.006 122.817  0.00  0.00    +0.000 OA
ATOM      7  C   UNL     1      -6.820   2.509 124.069  0.00  0.00    +0.000 C 
ATOM      8  C   UNL     1      -7.409   3.737 124.842  0.00  0.00    +0.000 C 
ATOM      9  C   UNL     1      -7.711   3.621 126.384  0.00  0.00    +0.000 C 
ATOM     10  N   UNL     1      -6.715   4.195 127.322  0.00  0.00    +0.000 N 
ATOM     11  C   UNL     1      -6.870   3.932 128.699  0.00  0.00    +0.000 A 
ATOM     12  C   UNL     1      -7.682   2.959 129.181  0.00  0.00    +0.000 A 
ATOM     13  N   UNL     1      -7.875   2.851 130.534  0.00  0.00    +0.000 N 
ATOM     14  C   UNL     1      -7.171   3.622 131.404  0.00  0.00    +0.000 A 
ATOM     15  N   UNL     1      -7.411   3.382 132.713  0.00  0.00    +0.000 N 
ATOM     16  N   UNL     1      -6.329   4.532 131.063  0.00  0.00    +0.000 NA
ATOM     17  C   UNL     1      -6.101   4.767 129.711  0.00  0.00    +0.000 A 
ATOM     18  O   UNL     1      -5.322   5.597 129.299  0.00  0.00    +0.000 OA
ATOM     19  N   UNL     1      -8.272   2.079 128.288  0.00  0.00    +0.000 N 
ATOM     20  C   UNL     1      -7.997   2.163 126.840  0.00  0.00    +0.000 C 
ATOM     21  O   UNL     1      -6.827   1.392 126.546  0.00  0.00    +0.000 OA
ATOM     22  H   UNL     1      -5.906   4.747 127.070  0.00  0.00    +0.000 HD
ATOM     23  H   UNL     1      -8.459   2.100 130.855  0.00  0.00    +0.000 HD
ATOM     24  H   UNL     1      -8.016   2.662 133.070  0.00  0.00    +0.000 HD
ATOM     25  H   UNL     1      -6.878   3.930 133.379  0.00  0.00    +0.000 HD
ATOM     26  H   UNL     1      -9.160   1.672 128.553  0.00  0.00    +0.000 HD
ENDROOT
BRANCH   4  27
ATOM     27  O   UNL     1     -10.455   0.922 124.681  0.00  0.00    +0.000 OA
ATOM     28  H   UNL     1      -9.879   0.562 125.394  0.00  0.00    +0.000 HD
ENDBRANCH   4  27
BRANCH   8  29
ATOM     29  O   UNL     1      -6.590   4.849 124.483  0.00  0.00    +0.000 OA
ATOM     30  H   UNL     1      -6.833   5.141 123.593  0.00  0.00    +0.000 HD
ENDBRANCH   8  29
BRANCH   8  31
ATOM     31  O   UNL     1      -8.686   3.983 124.235  0.00  0.00    +0.000 OA
ATOM     32  H   UNL     1      -9.073   3.080 124.235  0.00  0.00    +0.000 HD
ENDBRANCH   8  31
TORSDOF 3
ENDMDL
MODEL 8
REMARK VINA RESULT:      -6.8      3.784      5.057
REMARK  Name = Fosdenopterin
REMARK  3 active torsions:
REMARK  status: ('A' for Active; 'I' for Inactive)
REMARK    1  A    between atoms: P_5  and  O_6
REMARK    2  A    between atoms: C_11  and  O_12
REMARK    3  A    between atoms: C_11  and  O_13
REMARK                            x       y       z     vdW  Elec       q    Type
REMARK                         _______ _______ _______ _____ _____    ______ ____
ROOT
ATOM      1  C   UNL     1      -4.262   2.450 127.639  0.00  0.00    +0.000 C 
ATOM      2  C   UNL     1      -3.073   3.232 127.926  0.00  0.00    +0.000 C 
ATOM      3  O   UNL     1      -3.916   4.403 128.290  0.00  0.00    +0.000 OA
ATOM      4  P   UNL     1      -2.789   5.487 129.031  0.00  0.00    +0.000 P 
ATOM      5  O   UNL     1      -1.780   6.457 129.692  0.00  0.00    +0.000 OA
ATOM      6  O   UNL     1      -3.982   4.252 129.972  0.00  0.00    +0.000 OA
ATOM      7  C   UNL     1      -5.016   2.998 129.006  0.00  0.00    +0.000 C 
ATOM      8  C   UNL     1      -6.328   3.750 128.600  0.00  0.00    +0.000 C 
ATOM      9  C   UNL     1      -6.644   4.009 127.078  0.00  0.00    +0.000 C 
ATOM     10  N   UNL     1      -7.604   3.095 126.413  0.00  0.00    +0.000 N 
ATOM     11  C   UNL     1      -7.752   3.189 125.013  0.00  0.00    +0.000 A 
ATOM     12  C   UNL     1      -6.869   3.842 124.218  0.00  0.00    +0.000 A 
ATOM     13  N   UNL     1      -7.151   3.997 122.885  0.00  0.00    +0.000 N 
ATOM     14  C   UNL     1      -8.237   3.401 122.326  0.00  0.00    +0.000 A 
ATOM     15  N   UNL     1      -8.374   3.584 120.993  0.00  0.00    +0.000 N 
ATOM     16  N   UNL     1      -9.106   2.708 122.970  0.00  0.00    +0.000 NA
ATOM     17  C   UNL     1      -8.950   2.537 124.342  0.00  0.00    +0.000 A 
ATOM     18  O   UNL     1      -9.715   1.894 125.027  0.00  0.00    +0.000 OA
ATOM     19  N   UNL     1      -5.689   4.309 124.773  0.00  0.00    +0.000 N 
ATOM     20  C   UNL     1      -5.367   4.070 126.194  0.00  0.00    +0.000 C 
ATOM     21  O   UNL     1      -4.710   2.805 126.313  0.00  0.00    +0.000 OA
ATOM     22  H   UNL     1      -8.159   2.380 126.865  0.00  0.00    +0.000 HD
ATOM     23  H   UNL     1      -6.460   4.460 122.321  0.00  0.00    +0.000 HD
ATOM     24  H   UNL     1      -7.720   4.071 120.403  0.00  0.00    +0.000 HD
ATOM     25  H   UNL     1      -9.164   3.128 120.552  0.00  0.00    +0.000 HD
ATOM     26  H   UNL     1      -5.264   5.123 124.347  0.00  0.00    +0.000 HD
ENDROOT
BRANCH   4  27
ATOM     27  O   UNL     1      -3.209   6.351 127.739  0.00  0.00    +0.000 OA
ATOM     28  H   UNL     1      -2.400   6.859 127.500  0.00  0.00    +0.000 HD
ENDBRANCH   4  27
BRANCH   8  29
ATOM     29  O   UNL     1      -7.380   3.109 129.321  0.00  0.00    +0.000 OA
ATOM     30  H   UNL     1      -8.229   3.451 129.006  0.00  0.00    +0.000 HD
ENDBRANCH   8  29
BRANCH   8  31
ATOM     31  O   UNL     1      -6.203   5.058 129.177  0.00  0.00    +0.000 OA
ATOM     32  H   UNL     1      -5.787   5.553 128.438  0.00  0.00    +0.000 HD
ENDBRANCH   8  31
TORSDOF 3
ENDMDL
MODEL 9
REMARK VINA RESULT:      -6.8      6.889      8.732
REMARK  Name = Fosdenopterin
REMARK  3 active torsions:
REMARK  status: ('A' for Active; 'I' for Inactive)
REMARK    1  A    between atoms: P_5  and  O_6
REMARK    2  A    between atoms: C_11  and  O_12
REMARK    3  A    between atoms: C_11  and  O_13
REMARK                            x       y       z     vdW  Elec       q    Type
REMARK                         _______ _______ _______ _____ _____    ______ ____
ROOT
ATOM      1  C   UNL     1      -6.848   3.095 131.568  0.00  0.00    +0.000 C 
ATOM      2  C   UNL     1      -6.855   1.865 132.339  0.00  0.00    +0.000 C 
ATOM      3  O   UNL     1      -7.722   1.216 131.319  0.00  0.00    +0.000 OA
ATOM      4  P   UNL     1      -7.679  -0.455 131.767  0.00  0.00    +0.000 P 
ATOM      5  O   UNL     1      -7.641  -1.949 132.168  0.00  0.00    +0.000 OA
ATOM      6  O   UNL     1      -6.578   0.393 130.386  0.00  0.00    +0.000 OA
ATOM      7  C   UNL     1      -6.613   2.270 130.154  0.00  0.00    +0.000 C 
ATOM      8  C   UNL     1      -7.813   2.557 129.189  0.00  0.00    +0.000 C 
ATOM      9  C   UNL     1      -9.052   3.382 129.704  0.00  0.00    +0.000 C 
ATOM     10  N   UNL     1      -9.117   4.818 129.339  0.00  0.00    +0.000 N 
ATOM     11  C   UNL     1     -10.111   5.614 129.948  0.00  0.00    +0.000 A 
ATOM     12  C   UNL     1     -10.801   5.225 131.047  0.00  0.00    +0.000 A 
ATOM     13  N   UNL     1     -11.838   5.999 131.501  0.00  0.00    +0.000 N 
ATOM     14  C   UNL     1     -12.102   7.210 130.943  0.00  0.00    +0.000 A 
ATOM     15  N   UNL     1     -13.113   7.902 131.516  0.00  0.00    +0.000 N 
ATOM     16  N   UNL     1     -11.474   7.708 129.939  0.00  0.00    +0.000 NA
ATOM     17  C   UNL     1     -10.440   6.977 129.360  0.00  0.00    +0.000 A 
ATOM     18  O   UNL     1      -9.790   7.371 128.417  0.00  0.00    +0.000 OA
ATOM     19  N   UNL     1     -10.418   4.064 131.700  0.00  0.00    +0.000 N 
ATOM     20  C   UNL     1      -9.255   3.280 131.241  0.00  0.00    +0.000 C 
ATOM     21  O   UNL     1      -8.074   3.801 131.858  0.00  0.00    +0.000 OA
ATOM     22  H   UNL     1      -8.497   5.303 128.704  0.00  0.00    +0.000 HD
ATOM     23  H   UNL     1     -12.307   5.694 132.335  0.00  0.00    +0.000 HD
ATOM     24  H   UNL     1     -13.628   7.611 132.330  0.00  0.00    +0.000 HD
ATOM     25  H   UNL     1     -13.311   8.817 131.130  0.00  0.00    +0.000 HD
ATOM     26  H   UNL     1     -11.134   3.554 132.202  0.00  0.00    +0.000 HD
ENDROOT
BRANCH   4  27
ATOM     27  O   UNL     1      -9.238  -0.134 132.011  0.00  0.00    +0.000 OA
ATOM     28  H   UNL     1      -9.333  -0.072 132.989  0.00  0.00    +0.000 HD
ENDBRANCH   4  27
BRANCH   8  29
ATOM     29  O   UNL     1      -7.230   3.055 127.985  0.00  0.00    +0.000 OA
ATOM     30  H   UNL     1      -6.573   2.419 127.669  0.00  0.00    +0.000 HD
ENDBRANCH   8  29
BRANCH   8  31
ATOM     31  O   UNL     1      -8.343   1.265 128.857  0.00  0.00    +0.000 OA
ATOM     32  H   UNL     1      -7.656   0.674 129.237  0.00  0.00    +0.000 HD
ENDBRANCH   8  31
TORSDOF 3
ENDMDL
