MODEL 1
REMARK VINA RESULT:      -4.6      0.000      0.000
REMARK  Name = Fosfomycin
REMARK  4 active torsions:
REMARK  status: ('A' for Active; 'I' for Inactive)
REMARK    1  A    between atoms: C_1  and  C_2
REMARK    2  A    between atoms: C_4  and  P_5
REMARK    3  A    between atoms: P_5  and  O_6
REMARK    4  A    between atoms: P_5  and  O_7
REMARK                            x       y       z     vdW  Elec       q    Type
REMARK                         _______ _______ _______ _____ _____    ______ ____
ROOT
ATOM      1  P   UNL     1     -11.179   7.601 126.906  0.00  0.00    +0.000 P 
ATOM      2  O   UNL     1     -10.785   8.064 125.481  0.00  0.00    +0.000 OA
ENDROOT
BRANCH   1   6
ATOM      3  C   UNL     1     -12.916   9.330 128.955  0.00  0.00    +0.000 C 
ATOM      4  C   UNL     1     -12.541   7.963 129.411  0.00  0.00    +0.000 C 
ATOM      5  O   UNL     1     -11.166   7.761 129.751  0.00  0.00    +0.000 OA
ATOM      6  C   UNL     1     -11.645   7.053 128.589  0.00  0.00    +0.000 C 
ENDBRANCH   1   6
BRANCH   1   7
ATOM      7  O   UNL     1      -9.899   6.568 127.031  0.00  0.00    +0.000 OA
ATOM      8  H   UNL     1      -9.031   6.904 126.738  0.00  0.00    +0.000 HD
ENDBRANCH   1   7
BRANCH   1   9
ATOM      9  O   UNL     1     -12.307   6.533 126.360  0.00  0.00    +0.000 OA
ATOM     10  H   UNL     1     -12.986   6.165 126.940  0.00  0.00    +0.000 HD
ENDBRANCH   1   9
TORSDOF 3
ENDMDL
MODEL 2
REMARK VINA RESULT:      -4.2      2.112      2.768
REMARK  Name = Fosfomycin
REMARK  4 active torsions:
REMARK  status: ('A' for Active; 'I' for Inactive)
REMARK    1  A    between atoms: C_1  and  C_2
REMARK    2  A    between atoms: C_4  and  P_5
REMARK    3  A    between atoms: P_5  and  O_6
REMARK    4  A    between atoms: P_5  and  O_7
REMARK                            x       y       z     vdW  Elec       q    Type
REMARK                         _______ _______ _______ _____ _____    ______ ____
ROOT
ATOM      1  P   UNL     1     -10.187   7.365 129.341  0.00  0.00    +0.000 P 
ATOM      2  O   UNL     1      -8.786   7.652 129.935  0.00  0.00    +0.000 OA
ENDROOT
BRANCH   1   6
ATOM      3  C   UNL     1     -12.896   7.320 131.034  0.00  0.00    +0.000 C 
ATOM      4  C   UNL     1     -13.042   7.117 129.567  0.00  0.00    +0.000 C 
ATOM      5  O   UNL     1     -12.591   5.862 129.051  0.00  0.00    +0.000 OA
ATOM      6  C   UNL     1     -11.843   7.024 128.640  0.00  0.00    +0.000 C 
ENDBRANCH   1   6
BRANCH   1   7
ATOM      7  O   UNL     1      -9.639   6.134 128.389  0.00  0.00    +0.000 OA
ATOM      8  H   UNL     1      -9.929   5.232 128.622  0.00  0.00    +0.000 HD
ENDBRANCH   1   7
BRANCH   1   9
ATOM      9  O   UNL     1     -10.090   8.589 128.246  0.00  0.00    +0.000 OA
ATOM     10  H   UNL     1      -9.793   8.442 127.339  0.00  0.00    +0.000 HD
ENDBRANCH   1   9
TORSDOF 3
ENDMDL
MODEL 3
REMARK VINA RESULT:      -4.1      2.463      2.819
REMARK  Name = Fosfomycin
REMARK  4 active torsions:
REMARK  status: ('A' for Active; 'I' for Inactive)
REMARK    1  A    between atoms: C_1  and  C_2
REMARK    2  A    between atoms: C_4  and  P_5
REMARK    3  A    between atoms: P_5  and  O_6
REMARK    4  A    between atoms: P_5  and  O_7
REMARK                            x       y       z     vdW  Elec       q    Type
REMARK                         _______ _______ _______ _____ _____    ______ ____
ROOT
ATOM      1  P   UNL     1     -10.299   7.463 129.261  0.00  0.00    +0.000 P 
ATOM      2  O   UNL     1     -10.077   8.508 128.140  0.00  0.00    +0.000 OA
ENDROOT
BRANCH   1   6
ATOM      3  C   UNL     1     -12.784   7.462 131.268  0.00  0.00    +0.000 C 
ATOM      4  C   UNL     1     -11.836   6.324 131.407  0.00  0.00    +0.000 C 
ATOM      5  O   UNL     1     -10.557   6.626 131.973  0.00  0.00    +0.000 OA
ATOM      6  C   UNL     1     -10.560   6.229 130.587  0.00  0.00    +0.000 C 
ENDBRANCH   1   6
BRANCH   1   7
ATOM      7  O   UNL     1      -8.834   7.759 129.961  0.00  0.00    +0.000 OA
ATOM      8  H   UNL     1      -8.144   8.148 129.392  0.00  0.00    +0.000 HD
ENDBRANCH   1   7
BRANCH   1   9
ATOM      9  O   UNL     1      -9.867   6.193 128.308  0.00  0.00    +0.000 OA
ATOM     10  H   UNL     1      -9.395   6.316 127.474  0.00  0.00    +0.000 HD
ENDBRANCH   1   9
TORSDOF 3
ENDMDL
MODEL 4
REMARK VINA RESULT:      -4.1      1.471      2.239
REMARK  Name = Fosfomycin
REMARK  4 active torsions:
REMARK  status: ('A' for Active; 'I' for Inactive)
REMARK    1  A    between atoms: C_1  and  C_2
REMARK    2  A    between atoms: C_4  and  P_5
REMARK    3  A    between atoms: P_5  and  O_6
REMARK    4  A    between atoms: P_5  and  O_7
REMARK                            x       y       z     vdW  Elec       q    Type
REMARK                         _______ _______ _______ _____ _____    ______ ____
ROOT
ATOM      1  P   UNL     1     -11.140   7.131 127.624  0.00  0.00    +0.000 P 
ATOM      2  O   UNL     1      -9.767   6.557 127.195  0.00  0.00    +0.000 OA
ENDROOT
BRANCH   1   6
ATOM      3  C   UNL     1     -12.368   6.880 130.562  0.00  0.00    +0.000 C 
ATOM      4  C   UNL     1     -13.167   7.672 129.588  0.00  0.00    +0.000 C 
ATOM      5  O   UNL     1     -13.826   6.933 128.556  0.00  0.00    +0.000 OA
ATOM      6  C   UNL     1     -12.762   7.810 128.131  0.00  0.00    +0.000 C 
ENDBRANCH   1   6
BRANCH   1   7
ATOM      7  O   UNL     1     -11.865   6.727 126.198  0.00  0.00    +0.000 OA
ATOM      8  H   UNL     1     -11.417   6.056 125.650  0.00  0.00    +0.000 HD
ENDBRANCH   1   7
BRANCH   1   9
ATOM      9  O   UNL     1     -10.723   8.682 127.260  0.00  0.00    +0.000 OA
ATOM     10  H   UNL     1      -9.854   9.042 127.476  0.00  0.00    +0.000 HD
ENDBRANCH   1   9
TORSDOF 3
ENDMDL
MODEL 5
REMARK VINA RESULT:      -4.0      2.963      4.145
REMARK  Name = Fosfomycin
REMARK  4 active torsions:
REMARK  status: ('A' for Active; 'I' for Inactive)
REMARK    1  A    between atoms: C_1  and  C_2
REMARK    2  A    between atoms: C_4  and  P_5
REMARK    3  A    between atoms: P_5  and  O_6
REMARK    4  A    between atoms: P_5  and  O_7
REMARK                            x       y       z     vdW  Elec       q    Type
REMARK                         _______ _______ _______ _____ _____    ______ ____
ROOT
ATOM      1  P   UNL     1     -11.335   6.472 130.999  0.00  0.00    +0.000 P 
ATOM      2  O   UNL     1     -10.577   6.571 132.346  0.00  0.00    +0.000 OA
ENDROOT
BRANCH   1   6
ATOM      3  C   UNL     1     -10.732   8.296 128.447  0.00  0.00    +0.000 C 
ATOM      4  C   UNL     1     -11.770   7.245 128.265  0.00  0.00    +0.000 C 
ATOM      5  O   UNL     1     -13.019   7.464 128.925  0.00  0.00    +0.000 OA
ATOM      6  C   UNL     1     -12.231   6.357 129.408  0.00  0.00    +0.000 C 
ENDBRANCH   1   6
BRANCH   1   7
ATOM      7  O   UNL     1     -12.797   6.809 131.685  0.00  0.00    +0.000 OA
ATOM      8  H   UNL     1     -13.448   7.278 131.130  0.00  0.00    +0.000 HD
ENDBRANCH   1   7
BRANCH   1   9
ATOM      9  O   UNL     1     -11.413   4.829 131.043  0.00  0.00    +0.000 OA
ATOM     10  H   UNL     1     -10.879   4.307 131.655  0.00  0.00    +0.000 HD
ENDBRANCH   1   9
TORSDOF 3
ENDMDL
MODEL 6
REMARK VINA RESULT:      -3.9      1.881      3.223
REMARK  Name = Fosfomycin
REMARK  4 active torsions:
REMARK  status: ('A' for Active; 'I' for Inactive)
REMARK    1  A    between atoms: C_1  and  C_2
REMARK    2  A    between atoms: C_4  and  P_5
REMARK    3  A    between atoms: P_5  and  O_6
REMARK    4  A    between atoms: P_5  and  O_7
REMARK                            x       y       z     vdW  Elec       q    Type
REMARK                         _______ _______ _______ _____ _____    ______ ____
ROOT
ATOM      1  P   UNL     1     -10.423   6.787 129.074  0.00  0.00    +0.000 P 
ATOM      2  O   UNL     1     -10.058   6.154 130.439  0.00  0.00    +0.000 OA
ENDROOT
BRANCH   1   6
ATOM      3  C   UNL     1     -13.390   6.983 127.905  0.00  0.00    +0.000 C 
ATOM      4  C   UNL     1     -12.324   7.618 127.085  0.00  0.00    +0.000 C 
ATOM      5  O   UNL     1     -11.428   6.732 126.408  0.00  0.00    +0.000 OA
ATOM      6  C   UNL     1     -10.854   7.534 127.460  0.00  0.00    +0.000 C 
ENDBRANCH   1   6
BRANCH   1   7
ATOM      7  O   UNL     1      -9.396   5.807 128.234  0.00  0.00    +0.000 OA
ATOM      8  H   UNL     1      -8.770   6.241 127.624  0.00  0.00    +0.000 HD
ENDBRANCH   1   7
BRANCH   1   9
ATOM      9  O   UNL     1      -9.420   8.075 129.284  0.00  0.00    +0.000 OA
ATOM     10  H   UNL     1      -8.572   8.143 128.828  0.00  0.00    +0.000 HD
ENDBRANCH   1   9
TORSDOF 3
ENDMDL
MODEL 7
REMARK VINA RESULT:      -3.9      1.856      2.272
REMARK  Name = Fosfomycin
REMARK  4 active torsions:
REMARK  status: ('A' for Active; 'I' for Inactive)
REMARK    1  A    between atoms: C_1  and  C_2
REMARK    2  A    between atoms: C_4  and  P_5
REMARK    3  A    between atoms: P_5  and  O_6
REMARK    4  A    between atoms: P_5  and  O_7
REMARK                            x       y       z     vdW  Elec       q    Type
REMARK                         _______ _______ _______ _____ _____    ______ ____
ROOT
ATOM      1  P   UNL     1     -10.626   7.071 128.460  0.00  0.00    +0.000 P 
ATOM      2  O   UNL     1      -9.628   6.360 127.513  0.00  0.00    +0.000 OA
ENDROOT
BRANCH   1   6
ATOM      3  C   UNL     1     -13.686   7.657 127.755  0.00  0.00    +0.000 C 
ATOM      4  C   UNL     1     -13.248   8.044 129.123  0.00  0.00    +0.000 C 
ATOM      5  O   UNL     1     -12.385   9.181 129.217  0.00  0.00    +0.000 OA
ATOM      6  C   UNL     1     -11.805   7.911 129.579  0.00  0.00    +0.000 C 
ENDBRANCH   1   6
BRANCH   1   7
ATOM      7  O   UNL     1      -9.430   7.783 129.346  0.00  0.00    +0.000 OA
ATOM      8  H   UNL     1      -9.469   8.754 129.440  0.00  0.00    +0.000 HD
ENDBRANCH   1   7
BRANCH   1   9
ATOM      9  O   UNL     1     -10.860   5.733 129.390  0.00  0.00    +0.000 OA
ATOM     10  H   UNL     1     -11.482   5.038 129.140  0.00  0.00    +0.000 HD
ENDBRANCH   1   9
TORSDOF 3
ENDMDL
MODEL 8
REMARK VINA RESULT:      -3.8      2.080      2.668
REMARK  Name = Fosfomycin
REMARK  4 active torsions:
REMARK  status: ('A' for Active; 'I' for Inactive)
REMARK    1  A    between atoms: C_1  and  C_2
REMARK    2  A    between atoms: C_4  and  P_5
REMARK    3  A    between atoms: P_5  and  O_6
REMARK    4  A    between atoms: P_5  and  O_7
REMARK                            x       y       z     vdW  Elec       q    Type
REMARK                         _______ _______ _______ _____ _____    ______ ____
ROOT
ATOM      1  P   UNL     1     -12.296   7.196 128.099  0.00  0.00    +0.000 P 
ATOM      2  O   UNL     1     -13.834   7.311 127.952  0.00  0.00    +0.000 OA
ENDROOT
BRANCH   1   6
ATOM      3  C   UNL     1     -10.775   6.693 130.863  0.00  0.00    +0.000 C 
ATOM      4  C   UNL     1      -9.918   6.742 129.647  0.00  0.00    +0.000 C 
ATOM      5  O   UNL     1      -9.740   8.027 129.045  0.00  0.00    +0.000 OA
ATOM      6  C   UNL     1     -10.479   7.060 128.272  0.00  0.00    +0.000 C 
ENDBRANCH   1   6
BRANCH   1   7
ATOM      7  O   UNL     1     -12.055   8.812 127.873  0.00  0.00    +0.000 OA
ATOM      8  H   UNL     1     -12.845   9.383 127.890  0.00  0.00    +0.000 HD
ENDBRANCH   1   7
BRANCH   1   9
ATOM      9  O   UNL     1     -12.080   6.693 126.546  0.00  0.00    +0.000 OA
ATOM     10  H   UNL     1     -11.214   6.706 126.120  0.00  0.00    +0.000 HD
ENDBRANCH   1   9
TORSDOF 3
ENDMDL
MODEL 9
REMARK VINA RESULT:      -3.7      2.880      3.350
REMARK  Name = Fosfomycin
REMARK  4 active torsions:
REMARK  status: ('A' for Active; 'I' for Inactive)
REMARK    1  A    between atoms: C_1  and  C_2
REMARK    2  A    between atoms: C_4  and  P_5
REMARK    3  A    between atoms: P_5  and  O_6
REMARK    4  A    between atoms: P_5  and  O_7
REMARK                            x       y       z     vdW  Elec       q    Type
REMARK                         _______ _______ _______ _____ _____    ______ ____
ROOT
ATOM      1  P   UNL     1     -10.072   6.868 130.305  0.00  0.00    +0.000 P 
ATOM      2  O   UNL     1      -8.630   7.395 130.100  0.00  0.00    +0.000 OA
ENDROOT
BRANCH   1   6
ATOM      3  C   UNL     1     -12.712   8.621 129.904  0.00  0.00    +0.000 C 
ATOM      4  C   UNL     1     -12.927   7.188 130.242  0.00  0.00    +0.000 C 
ATOM      5  O   UNL     1     -12.619   6.797 131.582  0.00  0.00    +0.000 OA
ATOM      6  C   UNL     1     -11.776   6.247 130.549  0.00  0.00    +0.000 C 
ENDBRANCH   1   6
BRANCH   1   7
ATOM      7  O   UNL     1      -9.670   6.008 131.655  0.00  0.00    +0.000 OA
ATOM      8  H   UNL     1      -8.720   5.932 131.863  0.00  0.00    +0.000 HD
ENDBRANCH   1   7
BRANCH   1   9
ATOM      9  O   UNL     1      -9.907   5.670 129.189  0.00  0.00    +0.000 OA
ATOM     10  H   UNL     1      -9.240   4.977 129.277  0.00  0.00    +0.000 HD
ENDBRANCH   1   9
TORSDOF 3
ENDMDL
