MODEL 1
REMARK VINA RESULT:      -8.7      0.000      0.000
REMARK  Name = Fosinopril
REMARK  19 active torsions:
REMARK  status: ('A' for Active; 'I' for Inactive)
REMARK    1  A    between atoms: C_1  and  C_2
REMARK    2  A    between atoms: C_2  and  C_3
REMARK    3  A    between atoms: C_3  and  O_5
REMARK    4  A    between atoms: O_5  and  C_6
REMARK    5  A    between atoms: C_6  and  O_7
REMARK    6  A    between atoms: C_6  and  C_37
REMARK    7  A    between atoms: O_7  and  P_8
REMARK    8  A    between atoms: P_8  and  C_10
REMARK    9  A    between atoms: P_8  and  C_20
REMARK   10  A    between atoms: C_10  and  C_11
REMARK   11  A    between atoms: C_11  and  C_12
REMARK   12  A    between atoms: C_12  and  C_13
REMARK   13  A    between atoms: C_13  and  C_14
REMARK   14  A    between atoms: C_20  and  C_21
REMARK   15  A    between atoms: C_25  and  C_31
REMARK   16  A    between atoms: C_27  and  C_28
REMARK   17  A    between atoms: C_28  and  O_29
REMARK   18  A    between atoms: C_37  and  C_38
REMARK   19  A    between atoms: C_37  and  C_39
REMARK                            x       y       z     vdW  Elec       q    Type
REMARK                         _______ _______ _______ _____ _____    ______ ____
ROOT
ATOM      1  P   UNL     1      -7.841   4.197 128.201  0.00  0.00    +0.000 P 
ATOM      2  O   UNL     1      -6.691   4.838 128.968  0.00  0.00    +0.000 OA
ENDROOT
BRANCH   1   3
ATOM      3  C   UNL     1      -8.632   2.206 128.730  0.00  0.00    +0.000 C 
BRANCH   3   4
ATOM      4  C   UNL     1      -7.888   1.526 129.966  0.00  0.00    +0.000 C 
BRANCH   4   5
ATOM      5  C   UNL     1      -8.668   0.869 131.084  0.00  0.00    +0.000 C 
BRANCH   5   6
ATOM      6  C   UNL     1      -8.011   0.727 132.433  0.00  0.00    +0.000 C 
BRANCH   6   7
ATOM      7  C   UNL     1      -7.968   2.089 133.090  0.00  0.00    +0.000 A 
ATOM      8  C   UNL     1      -6.820   2.657 133.692  0.00  0.00    +0.000 A 
ATOM      9  C   UNL     1      -6.930   3.766 134.515  0.00  0.00    +0.000 A 
ATOM     10  C   UNL     1      -8.159   4.401 134.626  0.00  0.00    +0.000 A 
ATOM     11  C   UNL     1      -9.269   3.917 133.931  0.00  0.00    +0.000 A 
ATOM     12  C   UNL     1      -9.174   2.770 133.158  0.00  0.00    +0.000 A 
ENDBRANCH   6   7
ENDBRANCH   5   6
ENDBRANCH   4   5
ENDBRANCH   3   4
ENDBRANCH   1   3
BRANCH   1  13
ATOM     13  C   UNL     1      -6.658   3.148 127.259  0.00  0.00    +0.000 C 
BRANCH  13  14
ATOM     14  C   UNL     1      -6.784   3.269 125.695  0.00  0.00    +0.000 C 
ATOM     15  O   UNL     1      -6.253   4.224 125.121  0.00  0.00    +0.000 OA
ATOM     16  N   UNL     1      -7.490   2.356 124.856  0.00  0.00    +0.000 N 
ATOM     17  C   UNL     1      -8.598   1.454 125.162  0.00  0.00    +0.000 C 
ATOM     18  C   UNL     1      -8.295   0.075 124.499  0.00  0.00    +0.000 C 
ATOM     19  C   UNL     1      -7.654   0.568 123.187  0.00  0.00    +0.000 C 
ATOM     20  C   UNL     1      -6.922   1.909 123.542  0.00  0.00    +0.000 C 
BRANCH  18  21
ATOM     21  C   UNL     1      -7.454  -1.047 125.228  0.00  0.00    +0.000 C 
ATOM     22  C   UNL     1      -6.995  -2.161 124.250  0.00  0.00    +0.000 C 
ATOM     23  C   UNL     1      -8.121  -3.013 123.724  0.00  0.00    +0.000 C 
ATOM     24  C   UNL     1      -8.918  -3.482 124.914  0.00  0.00    +0.000 C 
ATOM     25  C   UNL     1      -9.246  -2.492 126.004  0.00  0.00    +0.000 C 
ATOM     26  C   UNL     1      -8.119  -1.654 126.469  0.00  0.00    +0.000 C 
ENDBRANCH  18  21
BRANCH  20  27
ATOM     27  C   UNL     1      -7.194   2.943 122.451  0.00  0.00    +0.000 C 
ATOM     28  O   UNL     1      -6.501   3.087 121.454  0.00  0.00    +0.000 OA
BRANCH  27  29
ATOM     29  O   UNL     1      -8.331   3.651 122.654  0.00  0.00    +0.000 OA
ATOM     30  H   UNL     1      -8.538   4.137 121.825  0.00  0.00    +0.000 HD
ENDBRANCH  27  29
ENDBRANCH  20  27
ENDBRANCH  13  14
ENDBRANCH   1  13
BRANCH   1  31
ATOM     31  O   UNL     1      -8.854   4.450 129.409  0.00  0.00    +0.000 OA
BRANCH  31  32
ATOM     32  C   UNL     1      -9.877   5.488 129.460  0.00  0.00    +0.000 C 
BRANCH  32  33
ATOM     33  C   UNL     1      -9.790   5.834 131.010  0.00  0.00    +0.000 C 
ATOM     34  C   UNL     1      -8.551   6.640 131.331  0.00  0.00    +0.000 C 
ATOM     35  C   UNL     1     -11.066   6.540 131.499  0.00  0.00    +0.000 C 
ENDBRANCH  32  33
BRANCH  32  36
ATOM     36  O   UNL     1      -9.603   6.732 128.620  0.00  0.00    +0.000 OA
BRANCH  36  37
ATOM     37  C   UNL     1     -10.470   7.148 127.609  0.00  0.00    +0.000 C 
ATOM     38  O   UNL     1     -10.457   6.686 126.512  0.00  0.00    +0.000 OA
BRANCH  37  40
ATOM     39  C   UNL     1     -12.745   8.296 128.465  0.00  0.00    +0.000 C 
ATOM     40  C   UNL     1     -11.339   8.460 127.953  0.00  0.00    +0.000 C 
ENDBRANCH  37  40
ENDBRANCH  36  37
ENDBRANCH  32  36
ENDBRANCH  31  32
ENDBRANCH   1  31
TORSDOF 16
ENDMDL
MODEL 2
REMARK VINA RESULT:      -8.6      2.617      3.606
REMARK  Name = Fosinopril
REMARK  19 active torsions:
REMARK  status: ('A' for Active; 'I' for Inactive)
REMARK    1  A    between atoms: C_1  and  C_2
REMARK    2  A    between atoms: C_2  and  C_3
REMARK    3  A    between atoms: C_3  and  O_5
REMARK    4  A    between atoms: O_5  and  C_6
REMARK    5  A    between atoms: C_6  and  O_7
REMARK    6  A    between atoms: C_6  and  C_37
REMARK    7  A    between atoms: O_7  and  P_8
REMARK    8  A    between atoms: P_8  and  C_10
REMARK    9  A    between atoms: P_8  and  C_20
REMARK   10  A    between atoms: C_10  and  C_11
REMARK   11  A    between atoms: C_11  and  C_12
REMARK   12  A    between atoms: C_12  and  C_13
REMARK   13  A    between atoms: C_13  and  C_14
REMARK   14  A    between atoms: C_20  and  C_21
REMARK   15  A    between atoms: C_25  and  C_31
REMARK   16  A    between atoms: C_27  and  C_28
REMARK   17  A    between atoms: C_28  and  O_29
REMARK   18  A    between atoms: C_37  and  C_38
REMARK   19  A    between atoms: C_37  and  C_39
REMARK                            x       y       z     vdW  Elec       q    Type
REMARK                         _______ _______ _______ _____ _____    ______ ____
ROOT
ATOM      1  P   UNL     1      -7.906   3.976 128.690  0.00  0.00    +0.000 P 
ATOM      2  O   UNL     1      -8.672   4.538 127.500  0.00  0.00    +0.000 OA
ENDROOT
BRANCH   1   3
ATOM      3  C   UNL     1      -5.834   4.588 129.140  0.00  0.00    +0.000 C 
BRANCH   3   4
ATOM      4  C   UNL     1      -5.217   3.875 130.425  0.00  0.00    +0.000 C 
BRANCH   4   5
ATOM      5  C   UNL     1      -3.729   3.623 130.543  0.00  0.00    +0.000 C 
BRANCH   5   6
ATOM      6  C   UNL     1      -2.880   4.644 131.256  0.00  0.00    +0.000 C 
BRANCH   6   7
ATOM      7  C   UNL     1      -2.981   5.956 130.509  0.00  0.00    +0.000 A 
ATOM      8  C   UNL     1      -3.625   7.115 131.001  0.00  0.00    +0.000 A 
ATOM      9  C   UNL     1      -3.924   8.170 130.154  0.00  0.00    +0.000 A 
ATOM     10  C   UNL     1      -3.453   8.138 128.850  0.00  0.00    +0.000 A 
ATOM     11  C   UNL     1      -2.704   7.050 128.396  0.00  0.00    +0.000 A 
ATOM     12  C   UNL     1      -2.460   5.965 129.224  0.00  0.00    +0.000 A 
ENDBRANCH   6   7
ENDBRANCH   5   6
ENDBRANCH   4   5
ENDBRANCH   3   4
ENDBRANCH   1   3
BRANCH   1  13
ATOM     13  C   UNL     1      -7.005   2.808 127.589  0.00  0.00    +0.000 C 
BRANCH  13  14
ATOM     14  C   UNL     1      -7.202   3.080 126.052  0.00  0.00    +0.000 C 
ATOM     15  O   UNL     1      -6.717   4.100 125.555  0.00  0.00    +0.000 OA
ATOM     16  N   UNL     1      -7.925   2.237 125.156  0.00  0.00    +0.000 N 
ATOM     17  C   UNL     1      -8.999   1.282 125.417  0.00  0.00    +0.000 C 
ATOM     18  C   UNL     1      -8.696  -0.017 124.607  0.00  0.00    +0.000 C 
ATOM     19  C   UNL     1      -8.124   0.618 123.325  0.00  0.00    +0.000 C 
ATOM     20  C   UNL     1      -7.405   1.936 123.782  0.00  0.00    +0.000 C 
BRANCH  18  21
ATOM     21  C   UNL     1      -7.801  -1.184 125.185  0.00  0.00    +0.000 C 
ATOM     22  C   UNL     1      -7.308  -2.147 124.072  0.00  0.00    +0.000 C 
ATOM     23  C   UNL     1      -8.402  -2.974 123.450  0.00  0.00    +0.000 C 
ATOM     24  C   UNL     1      -9.165  -3.621 124.578  0.00  0.00    +0.000 C 
ATOM     25  C   UNL     1      -9.523  -2.790 125.784  0.00  0.00    +0.000 C 
ATOM     26  C   UNL     1      -8.427  -1.969 126.344  0.00  0.00    +0.000 C 
ENDBRANCH  18  21
BRANCH  20  27
ATOM     27  C   UNL     1      -7.746   3.066 122.812  0.00  0.00    +0.000 C 
ATOM     28  O   UNL     1      -8.842   3.215 122.291  0.00  0.00    +0.000 OA
BRANCH  27  29
ATOM     29  O   UNL     1      -6.731   3.945 122.633  0.00  0.00    +0.000 OA
ATOM     30  H   UNL     1      -7.116   4.795 122.325  0.00  0.00    +0.000 HD
ENDBRANCH  27  29
ENDBRANCH  20  27
ENDBRANCH  13  14
ENDBRANCH   1  13
BRANCH   1  31
ATOM     31  O   UNL     1      -8.033   5.355 129.486  0.00  0.00    +0.000 OA
BRANCH  31  32
ATOM     32  C   UNL     1      -9.281   6.024 129.837  0.00  0.00    +0.000 C 
BRANCH  32  33
ATOM     33  C   UNL     1      -8.824   6.678 131.212  0.00  0.00    +0.000 C 
ATOM     34  C   UNL     1      -9.315   5.880 132.398  0.00  0.00    +0.000 C 
ATOM     35  C   UNL     1      -7.299   6.878 131.257  0.00  0.00    +0.000 C 
ENDBRANCH  32  33
BRANCH  32  36
ATOM     36  O   UNL     1      -9.751   7.103 128.865  0.00  0.00    +0.000 OA
BRANCH  36  37
ATOM     37  C   UNL     1     -11.075   7.180 128.429  0.00  0.00    +0.000 C 
ATOM     38  O   UNL     1     -11.451   6.700 127.407  0.00  0.00    +0.000 OA
BRANCH  37  40
ATOM     39  C   UNL     1     -12.606   7.672 130.583  0.00  0.00    +0.000 C 
ATOM     40  C   UNL     1     -12.018   8.164 129.288  0.00  0.00    +0.000 C 
ENDBRANCH  37  40
ENDBRANCH  36  37
ENDBRANCH  32  36
ENDBRANCH  31  32
ENDBRANCH   1  31
TORSDOF 16
ENDMDL
MODEL 3
REMARK VINA RESULT:      -8.6      2.978      8.734
REMARK  Name = Fosinopril
REMARK  19 active torsions:
REMARK  status: ('A' for Active; 'I' for Inactive)
REMARK    1  A    between atoms: C_1  and  C_2
REMARK    2  A    between atoms: C_2  and  C_3
REMARK    3  A    between atoms: C_3  and  O_5
REMARK    4  A    between atoms: O_5  and  C_6
REMARK    5  A    between atoms: C_6  and  O_7
REMARK    6  A    between atoms: C_6  and  C_37
REMARK    7  A    between atoms: O_7  and  P_8
REMARK    8  A    between atoms: P_8  and  C_10
REMARK    9  A    between atoms: P_8  and  C_20
REMARK   10  A    between atoms: C_10  and  C_11
REMARK   11  A    between atoms: C_11  and  C_12
REMARK   12  A    between atoms: C_12  and  C_13
REMARK   13  A    between atoms: C_13  and  C_14
REMARK   14  A    between atoms: C_20  and  C_21
REMARK   15  A    between atoms: C_25  and  C_31
REMARK   16  A    between atoms: C_27  and  C_28
REMARK   17  A    between atoms: C_28  and  O_29
REMARK   18  A    between atoms: C_37  and  C_38
REMARK   19  A    between atoms: C_37  and  C_39
REMARK                            x       y       z     vdW  Elec       q    Type
REMARK                         _______ _______ _______ _____ _____    ______ ____
ROOT
ATOM      1  P   UNL     1      -7.742   1.964 128.299  0.00  0.00    +0.000 P 
ATOM      2  O   UNL     1      -9.137   2.501 128.595  0.00  0.00    +0.000 OA
ENDROOT
BRANCH   1   3
ATOM      3  C   UNL     1      -7.292  -0.195 128.323  0.00  0.00    +0.000 C 
BRANCH   3   4
ATOM      4  C   UNL     1      -5.867  -0.563 127.707  0.00  0.00    +0.000 C 
BRANCH   4   5
ATOM      5  C   UNL     1      -5.716  -1.677 126.694  0.00  0.00    +0.000 C 
BRANCH   5   6
ATOM      6  C   UNL     1      -5.605  -1.314 125.236  0.00  0.00    +0.000 C 
BRANCH   6   7
ATOM      7  C   UNL     1      -6.721  -2.007 124.484  0.00  0.00    +0.000 A 
ATOM      8  C   UNL     1      -7.087  -1.724 123.147  0.00  0.00    +0.000 A 
ATOM      9  C   UNL     1      -8.287  -2.187 122.631  0.00  0.00    +0.000 A 
ATOM     10  C   UNL     1      -9.056  -3.053 123.394  0.00  0.00    +0.000 A 
ATOM     11  C   UNL     1      -8.634  -3.437 124.669  0.00  0.00    +0.000 A 
ATOM     12  C   UNL     1      -7.466  -2.923 125.211  0.00  0.00    +0.000 A 
ENDBRANCH   6   7
ENDBRANCH   5   6
ENDBRANCH   4   5
ENDBRANCH   3   4
ENDBRANCH   1   3
BRANCH   1  13
ATOM     13  C   UNL     1      -7.417   1.749 130.097  0.00  0.00    +0.000 C 
BRANCH  13  14
ATOM     14  C   UNL     1      -8.093   2.834 131.015  0.00  0.00    +0.000 C 
ATOM     15  O   UNL     1      -9.119   2.543 131.635  0.00  0.00    +0.000 OA
ATOM     16  N   UNL     1      -7.621   4.169 131.189  0.00  0.00    +0.000 N 
ATOM     17  C   UNL     1      -6.804   5.005 130.313  0.00  0.00    +0.000 C 
ATOM     18  C   UNL     1      -5.720   5.707 131.188  0.00  0.00    +0.000 C 
ATOM     19  C   UNL     1      -6.563   5.989 132.447  0.00  0.00    +0.000 C 
ATOM     20  C   UNL     1      -7.599   4.815 132.543  0.00  0.00    +0.000 C 
BRANCH  18  21
ATOM     21  C   UNL     1      -4.323   5.036 131.502  0.00  0.00    +0.000 C 
ATOM     22  C   UNL     1      -3.263   6.079 131.946  0.00  0.00    +0.000 C 
ATOM     23  C   UNL     1      -2.833   7.019 130.851  0.00  0.00    +0.000 C 
ATOM     24  C   UNL     1      -2.454   6.173 129.662  0.00  0.00    +0.000 C 
ATOM     25  C   UNL     1      -3.345   5.019 129.278  0.00  0.00    +0.000 C 
ATOM     26  C   UNL     1      -3.769   4.139 130.390  0.00  0.00    +0.000 C 
ENDBRANCH  18  21
BRANCH  20  27
ATOM     27  C   UNL     1      -8.974   5.377 132.900  0.00  0.00    +0.000 C 
ATOM     28  O   UNL     1      -9.404   6.447 132.494  0.00  0.00    +0.000 OA
BRANCH  27  29
ATOM     29  O   UNL     1      -9.717   4.537 133.659  0.00  0.00    +0.000 OA
ATOM     30  H   UNL     1     -10.396   4.124 133.081  0.00  0.00    +0.000 HD
ENDBRANCH  27  29
ENDBRANCH  20  27
ENDBRANCH  13  14
ENDBRANCH   1  13
BRANCH   1  31
ATOM     31  O   UNL     1      -8.202   1.419 126.870  0.00  0.00    +0.000 OA
BRANCH  31  32
ATOM     32  C   UNL     1      -8.085   2.137 125.606  0.00  0.00    +0.000 C 
BRANCH  32  33
ATOM     33  C   UNL     1      -8.757   1.055 124.653  0.00  0.00    +0.000 C 
ATOM     34  C   UNL     1      -9.671   0.127 125.422  0.00  0.00    +0.000 C 
ATOM     35  C   UNL     1      -9.491   1.723 123.477  0.00  0.00    +0.000 C 
ENDBRANCH  32  33
BRANCH  32  36
ATOM     36  O   UNL     1      -8.840   3.461 125.523  0.00  0.00    +0.000 OA
BRANCH  36  37
ATOM     37  C   UNL     1      -8.196   4.690 125.674  0.00  0.00    +0.000 C 
ATOM     38  O   UNL     1      -8.767   5.688 125.981  0.00  0.00    +0.000 OA
BRANCH  37  40
ATOM     39  C   UNL     1      -5.562   4.748 126.207  0.00  0.00    +0.000 C 
ATOM     40  C   UNL     1      -6.663   4.722 125.181  0.00  0.00    +0.000 C 
ENDBRANCH  37  40
ENDBRANCH  36  37
ENDBRANCH  32  36
ENDBRANCH  31  32
ENDBRANCH   1  31
TORSDOF 16
ENDMDL
MODEL 4
REMARK VINA RESULT:      -8.5      3.095      4.673
REMARK  Name = Fosinopril
REMARK  19 active torsions:
REMARK  status: ('A' for Active; 'I' for Inactive)
REMARK    1  A    between atoms: C_1  and  C_2
REMARK    2  A    between atoms: C_2  and  C_3
REMARK    3  A    between atoms: C_3  and  O_5
REMARK    4  A    between atoms: O_5  and  C_6
REMARK    5  A    between atoms: C_6  and  O_7
REMARK    6  A    between atoms: C_6  and  C_37
REMARK    7  A    between atoms: O_7  and  P_8
REMARK    8  A    between atoms: P_8  and  C_10
REMARK    9  A    between atoms: P_8  and  C_20
REMARK   10  A    between atoms: C_10  and  C_11
REMARK   11  A    between atoms: C_11  and  C_12
REMARK   12  A    between atoms: C_12  and  C_13
REMARK   13  A    between atoms: C_13  and  C_14
REMARK   14  A    between atoms: C_20  and  C_21
REMARK   15  A    between atoms: C_25  and  C_31
REMARK   16  A    between atoms: C_27  and  C_28
REMARK   17  A    between atoms: C_28  and  O_29
REMARK   18  A    between atoms: C_37  and  C_38
REMARK   19  A    between atoms: C_37  and  C_39
REMARK                            x       y       z     vdW  Elec       q    Type
REMARK                         _______ _______ _______ _____ _____    ______ ____
ROOT
ATOM      1  P   UNL     1      -7.075   4.055 126.771  0.00  0.00    +0.000 P 
ATOM      2  O   UNL     1      -8.246   4.966 126.424  0.00  0.00    +0.000 OA
ENDROOT
BRANCH   1   3
ATOM      3  C   UNL     1      -4.980   4.703 126.527  0.00  0.00    +0.000 C 
BRANCH   3   4
ATOM      4  C   UNL     1      -3.915   3.666 127.104  0.00  0.00    +0.000 C 
BRANCH   4   5
ATOM      5  C   UNL     1      -2.889   4.088 128.134  0.00  0.00    +0.000 C 
BRANCH   5   6
ATOM      6  C   UNL     1      -2.331   5.486 128.063  0.00  0.00    +0.000 C 
BRANCH   6   7
ATOM      7  C   UNL     1      -2.872   6.278 129.233  0.00  0.00    +0.000 A 
ATOM      8  C   UNL     1      -3.750   7.381 129.122  0.00  0.00    +0.000 A 
ATOM      9  C   UNL     1      -3.968   8.222 130.201  0.00  0.00    +0.000 A 
ATOM     10  C   UNL     1      -3.428   7.886 131.434  0.00  0.00    +0.000 A 
ATOM     11  C   UNL     1      -2.664   6.726 131.578  0.00  0.00    +0.000 A 
ATOM     12  C   UNL     1      -2.392   5.918 130.484  0.00  0.00    +0.000 A 
ENDBRANCH   6   7
ENDBRANCH   5   6
ENDBRANCH   4   5
ENDBRANCH   3   4
ENDBRANCH   1   3
BRANCH   1  13
ATOM     13  C   UNL     1      -6.841   3.639 124.994  0.00  0.00    +0.000 C 
BRANCH  13  14
ATOM     14  C   UNL     1      -8.037   2.845 124.349  0.00  0.00    +0.000 C 
ATOM     15  O   UNL     1      -8.654   3.348 123.406  0.00  0.00    +0.000 OA
ATOM     16  N   UNL     1      -8.496   1.564 124.777  0.00  0.00    +0.000 N 
ATOM     17  C   UNL     1      -8.384   0.905 126.076  0.00  0.00    +0.000 C 
ATOM     18  C   UNL     1      -7.963  -0.577 125.832  0.00  0.00    +0.000 C 
ATOM     19  C   UNL     1      -8.788  -0.861 124.561  0.00  0.00    +0.000 C 
ATOM     20  C   UNL     1      -8.869   0.501 123.787  0.00  0.00    +0.000 C 
BRANCH  18  21
ATOM     21  C   UNL     1      -6.450  -1.017 125.712  0.00  0.00    +0.000 C 
ATOM     22  C   UNL     1      -6.154  -2.310 126.518  0.00  0.00    +0.000 C 
ATOM     23  C   UNL     1      -6.231  -2.130 128.012  0.00  0.00    +0.000 C 
ATOM     24  C   UNL     1      -5.378  -0.937 128.360  0.00  0.00    +0.000 C 
ATOM     25  C   UNL     1      -5.476   0.301 127.505  0.00  0.00    +0.000 C 
ATOM     26  C   UNL     1      -5.428   0.076 126.043  0.00  0.00    +0.000 C 
ENDBRANCH  18  21
BRANCH  20  27
ATOM     27  C   UNL     1     -10.292   0.712 123.273  0.00  0.00    +0.000 C 
ATOM     28  O   UNL     1     -10.732   0.212 122.248  0.00  0.00    +0.000 OA
BRANCH  27  29
ATOM     29  O   UNL     1     -11.059   1.455 124.106  0.00  0.00    +0.000 OA
ATOM     30  H   UNL     1     -10.556   1.598 124.937  0.00  0.00    +0.000 HD
ENDBRANCH  27  29
ENDBRANCH  20  27
ENDBRANCH  13  14
ENDBRANCH   1  13
BRANCH   1  31
ATOM     31  O   UNL     1      -6.738   4.906 128.080  0.00  0.00    +0.000 OA
BRANCH  31  32
ATOM     32  C   UNL     1      -7.337   4.717 129.397  0.00  0.00    +0.000 C 
BRANCH  32  33
ATOM     33  C   UNL     1      -6.003   4.554 130.246  0.00  0.00    +0.000 C 
ATOM     34  C   UNL     1      -6.102   5.258 131.580  0.00  0.00    +0.000 C 
ATOM     35  C   UNL     1      -5.624   3.072 130.415  0.00  0.00    +0.000 C 
ENDBRANCH  32  33
BRANCH  32  36
ATOM     36  O   UNL     1      -8.164   5.887 129.924  0.00  0.00    +0.000 OA
BRANCH  36  37
ATOM     37  C   UNL     1      -9.557   5.843 129.978  0.00  0.00    +0.000 C 
ATOM     38  O   UNL     1     -10.236   5.591 129.033  0.00  0.00    +0.000 OA
BRANCH  37  40
ATOM     39  C   UNL     1      -9.656   5.892 132.664  0.00  0.00    +0.000 C 
ATOM     40  C   UNL     1     -10.203   6.384 131.351  0.00  0.00    +0.000 C 
ENDBRANCH  37  40
ENDBRANCH  36  37
ENDBRANCH  32  36
ENDBRANCH  31  32
ENDBRANCH   1  31
TORSDOF 16
ENDMDL
MODEL 5
REMARK VINA RESULT:      -8.5      2.298      8.898
REMARK  Name = Fosinopril
REMARK  19 active torsions:
REMARK  status: ('A' for Active; 'I' for Inactive)
REMARK    1  A    between atoms: C_1  and  C_2
REMARK    2  A    between atoms: C_2  and  C_3
REMARK    3  A    between atoms: C_3  and  O_5
REMARK    4  A    between atoms: O_5  and  C_6
REMARK    5  A    between atoms: C_6  and  O_7
REMARK    6  A    between atoms: C_6  and  C_37
REMARK    7  A    between atoms: O_7  and  P_8
REMARK    8  A    between atoms: P_8  and  C_10
REMARK    9  A    between atoms: P_8  and  C_20
REMARK   10  A    between atoms: C_10  and  C_11
REMARK   11  A    between atoms: C_11  and  C_12
REMARK   12  A    between atoms: C_12  and  C_13
REMARK   13  A    between atoms: C_13  and  C_14
REMARK   14  A    between atoms: C_20  and  C_21
REMARK   15  A    between atoms: C_25  and  C_31
REMARK   16  A    between atoms: C_27  and  C_28
REMARK   17  A    between atoms: C_28  and  O_29
REMARK   18  A    between atoms: C_37  and  C_38
REMARK   19  A    between atoms: C_37  and  C_39
REMARK                            x       y       z     vdW  Elec       q    Type
REMARK                         _______ _______ _______ _____ _____    ______ ____
ROOT
ATOM      1  P   UNL     1      -7.726   2.922 127.953  0.00  0.00    +0.000 P 
ATOM      2  O   UNL     1      -8.316   4.170 127.311  0.00  0.00    +0.000 OA
ENDROOT
BRANCH   1   3
ATOM      3  C   UNL     1      -8.334   0.892 127.337  0.00  0.00    +0.000 C 
BRANCH   3   4
ATOM      4  C   UNL     1      -7.557  -0.272 128.102  0.00  0.00    +0.000 C 
BRANCH   4   5
ATOM      5  C   UNL     1      -7.573  -1.695 127.586  0.00  0.00    +0.000 C 
BRANCH   5   6
ATOM      6  C   UNL     1      -6.547  -2.100 126.559  0.00  0.00    +0.000 C 
BRANCH   6   7
ATOM      7  C   UNL     1      -7.261  -2.383 125.255  0.00  0.00    +0.000 A 
ATOM      8  C   UNL     1      -6.872  -1.867 123.997  0.00  0.00    +0.000 A 
ATOM      9  C   UNL     1      -7.730  -1.934 122.911  0.00  0.00    +0.000 A 
ATOM     10  C   UNL     1      -8.916  -2.643 123.035  0.00  0.00    +0.000 A 
ATOM     11  C   UNL     1      -9.245  -3.265 124.242  0.00  0.00    +0.000 A 
ATOM     12  C   UNL     1      -8.417  -3.143 125.347  0.00  0.00    +0.000 A 
ENDBRANCH   6   7
ENDBRANCH   5   6
ENDBRANCH   4   5
ENDBRANCH   3   4
ENDBRANCH   1   3
BRANCH   1  13
ATOM     13  C   UNL     1      -9.221   2.728 129.008  0.00  0.00    +0.000 C 
BRANCH  13  14
ATOM     14  C   UNL     1      -9.163   3.516 130.369  0.00  0.00    +0.000 C 
ATOM     15  O   UNL     1      -8.258   3.268 131.170  0.00  0.00    +0.000 OA
ATOM     16  N   UNL     1     -10.100   4.510 130.779  0.00  0.00    +0.000 N 
ATOM     17  C   UNL     1     -11.492   4.718 130.388  0.00  0.00    +0.000 C 
ATOM     18  C   UNL     1     -11.698   6.241 130.125  0.00  0.00    +0.000 C 
ATOM     19  C   UNL     1     -10.813   6.809 131.252  0.00  0.00    +0.000 C 
ATOM     20  C   UNL     1      -9.647   5.776 131.445  0.00  0.00    +0.000 C 
BRANCH  18  21
ATOM     21  C   UNL     1     -11.422   6.901 128.716  0.00  0.00    +0.000 C 
ATOM     22  C   UNL     1     -11.152   8.425 128.828  0.00  0.00    +0.000 C 
ATOM     23  C   UNL     1     -12.357   9.232 129.235  0.00  0.00    +0.000 C 
ATOM     24  C   UNL     1     -13.486   8.838 128.316  0.00  0.00    +0.000 C 
ATOM     25  C   UNL     1     -13.699   7.377 128.011  0.00  0.00    +0.000 C 
ATOM     26  C   UNL     1     -12.483   6.615 127.646  0.00  0.00    +0.000 C 
ENDBRANCH  18  21
BRANCH  20  27
ATOM     27  C   UNL     1      -9.406   5.551 132.936  0.00  0.00    +0.000 C 
ATOM     28  O   UNL     1      -8.728   6.285 133.640  0.00  0.00    +0.000 OA
BRANCH  27  29
ATOM     29  O   UNL     1     -10.082   4.488 133.435  0.00  0.00    +0.000 OA
ATOM     30  H   UNL     1      -9.842   4.392 134.383  0.00  0.00    +0.000 HD
ENDBRANCH  27  29
ENDBRANCH  20  27
ENDBRANCH  13  14
ENDBRANCH   1  13
BRANCH   1  31
ATOM     31  O   UNL     1      -6.864   2.597 126.647  0.00  0.00    +0.000 OA
BRANCH  31  32
ATOM     32  C   UNL     1      -6.320   3.582 125.719  0.00  0.00    +0.000 C 
BRANCH  32  33
ATOM     33  C   UNL     1      -4.811   3.081 125.695  0.00  0.00    +0.000 C 
ATOM     34  C   UNL     1      -3.899   4.024 126.446  0.00  0.00    +0.000 C 
ATOM     35  C   UNL     1      -4.692   1.640 126.222  0.00  0.00    +0.000 C 
ENDBRANCH  32  33
BRANCH  32  36
ATOM     36  O   UNL     1      -6.909   3.564 124.311  0.00  0.00    +0.000 OA
BRANCH  36  37
ATOM     37  C   UNL     1      -7.486   2.416 123.766  0.00  0.00    +0.000 C 
ATOM     38  O   UNL     1      -6.871   1.618 123.132  0.00  0.00    +0.000 OA
BRANCH  37  40
ATOM     39  C   UNL     1      -9.768   1.023 124.044  0.00  0.00    +0.000 C 
ATOM     40  C   UNL     1      -9.094   2.355 123.852  0.00  0.00    +0.000 C 
ENDBRANCH  37  40
ENDBRANCH  36  37
ENDBRANCH  32  36
ENDBRANCH  31  32
ENDBRANCH   1  31
TORSDOF 16
ENDMDL
MODEL 6
REMARK VINA RESULT:      -8.4      1.817      4.935
REMARK  Name = Fosinopril
REMARK  19 active torsions:
REMARK  status: ('A' for Active; 'I' for Inactive)
REMARK    1  A    between atoms: C_1  and  C_2
REMARK    2  A    between atoms: C_2  and  C_3
REMARK    3  A    between atoms: C_3  and  O_5
REMARK    4  A    between atoms: O_5  and  C_6
REMARK    5  A    between atoms: C_6  and  O_7
REMARK    6  A    between atoms: C_6  and  C_37
REMARK    7  A    between atoms: O_7  and  P_8
REMARK    8  A    between atoms: P_8  and  C_10
REMARK    9  A    between atoms: P_8  and  C_20
REMARK   10  A    between atoms: C_10  and  C_11
REMARK   11  A    between atoms: C_11  and  C_12
REMARK   12  A    between atoms: C_12  and  C_13
REMARK   13  A    between atoms: C_13  and  C_14
REMARK   14  A    between atoms: C_20  and  C_21
REMARK   15  A    between atoms: C_25  and  C_31
REMARK   16  A    between atoms: C_27  and  C_28
REMARK   17  A    between atoms: C_28  and  O_29
REMARK   18  A    between atoms: C_37  and  C_38
REMARK   19  A    between atoms: C_37  and  C_39
REMARK                            x       y       z     vdW  Elec       q    Type
REMARK                         _______ _______ _______ _____ _____    ______ ____
ROOT
ATOM      1  P   UNL     1      -7.107   3.634 129.568  0.00  0.00    +0.000 P 
ATOM      2  O   UNL     1      -5.991   2.665 129.934  0.00  0.00    +0.000 OA
ENDROOT
BRANCH   1   3
ATOM      3  C   UNL     1      -9.119   3.492 130.462  0.00  0.00    +0.000 C 
BRANCH   3   4
ATOM      4  C   UNL     1     -10.100   4.673 130.032  0.00  0.00    +0.000 C 
BRANCH   4   5
ATOM      5  C   UNL     1     -10.949   5.398 131.054  0.00  0.00    +0.000 C 
BRANCH   5   6
ATOM      6  C   UNL     1     -11.060   6.898 130.964  0.00  0.00    +0.000 C 
BRANCH   6   7
ATOM      7  C   UNL     1     -11.501   7.263 129.564  0.00  0.00    +0.000 A 
ATOM      8  C   UNL     1     -12.730   6.875 128.980  0.00  0.00    +0.000 A 
ATOM      9  C   UNL     1     -12.934   7.000 127.616  0.00  0.00    +0.000 A 
ATOM     10  C   UNL     1     -11.975   7.644 126.849  0.00  0.00    +0.000 A 
ATOM     11  C   UNL     1     -10.814   8.144 127.444  0.00  0.00    +0.000 A 
ATOM     12  C   UNL     1     -10.580   7.963 128.799  0.00  0.00    +0.000 A 
ENDBRANCH   6   7
ENDBRANCH   5   6
ENDBRANCH   4   5
ENDBRANCH   3   4
ENDBRANCH   1   3
BRANCH   1  13
ATOM     13  C   UNL     1      -7.848   2.390 128.433  0.00  0.00    +0.000 C 
BRANCH  13  14
ATOM     14  C   UNL     1      -7.844   2.809 126.916  0.00  0.00    +0.000 C 
ATOM     15  O   UNL     1      -7.508   3.956 126.610  0.00  0.00    +0.000 OA
ATOM     16  N   UNL     1      -8.220   1.963 125.831  0.00  0.00    +0.000 N 
ATOM     17  C   UNL     1      -9.099   0.796 125.803  0.00  0.00    +0.000 C 
ATOM     18  C   UNL     1      -8.405  -0.311 124.950  0.00  0.00    +0.000 C 
ATOM     19  C   UNL     1      -7.776   0.576 123.858  0.00  0.00    +0.000 C 
ATOM     20  C   UNL     1      -7.432   1.939 124.555  0.00  0.00    +0.000 C 
BRANCH  18  21
ATOM     21  C   UNL     1      -7.392  -1.350 125.577  0.00  0.00    +0.000 C 
ATOM     22  C   UNL     1      -6.723  -2.238 124.495  0.00  0.00    +0.000 C 
ATOM     23  C   UNL     1      -7.668  -3.203 123.826  0.00  0.00    +0.000 C 
ATOM     24  C   UNL     1      -8.392  -3.945 124.920  0.00  0.00    +0.000 C 
ATOM     25  C   UNL     1      -8.914  -3.169 126.103  0.00  0.00    +0.000 C 
ATOM     26  C   UNL     1      -7.963  -2.211 126.710  0.00  0.00    +0.000 C 
ENDBRANCH  18  21
BRANCH  20  27
ATOM     27  C   UNL     1      -7.839   3.096 123.643  0.00  0.00    +0.000 C 
ATOM     28  O   UNL     1      -8.844   3.100 122.948  0.00  0.00    +0.000 OA
BRANCH  27  29
ATOM     29  O   UNL     1      -7.011   4.164 123.729  0.00  0.00    +0.000 OA
ATOM     30  H   UNL     1      -7.530   4.925 124.073  0.00  0.00    +0.000 HD
ENDBRANCH  27  29
ENDBRANCH  20  27
ENDBRANCH  13  14
ENDBRANCH   1  13
BRANCH   1  31
ATOM     31  O   UNL     1      -6.997   4.372 130.981  0.00  0.00    +0.000 OA
BRANCH  31  32
ATOM     32  C   UNL     1      -5.764   4.621 131.719  0.00  0.00    +0.000 C 
BRANCH  32  33
ATOM     33  C   UNL     1      -5.947   6.181 131.970  0.00  0.00    +0.000 C 
ATOM     34  C   UNL     1      -4.868   6.986 131.282  0.00  0.00    +0.000 C 
ATOM     35  C   UNL     1      -7.353   6.653 131.560  0.00  0.00    +0.000 C 
ENDBRANCH  32  33
BRANCH  32  36
ATOM     36  O   UNL     1      -5.623   3.881 133.046  0.00  0.00    +0.000 OA
BRANCH  36  37
ATOM     37  C   UNL     1      -6.678   3.161 133.606  0.00  0.00    +0.000 C 
ATOM     38  O   UNL     1      -6.869   2.007 133.382  0.00  0.00    +0.000 OA
BRANCH  37  40
ATOM     39  C   UNL     1      -9.217   3.942 134.021  0.00  0.00    +0.000 C 
ATOM     40  C   UNL     1      -7.764   4.049 134.399  0.00  0.00    +0.000 C 
ENDBRANCH  37  40
ENDBRANCH  36  37
ENDBRANCH  32  36
ENDBRANCH  31  32
ENDBRANCH   1  31
TORSDOF 16
ENDMDL
MODEL 7
REMARK VINA RESULT:      -8.4      2.489      7.754
REMARK  Name = Fosinopril
REMARK  19 active torsions:
REMARK  status: ('A' for Active; 'I' for Inactive)
REMARK    1  A    between atoms: C_1  and  C_2
REMARK    2  A    between atoms: C_2  and  C_3
REMARK    3  A    between atoms: C_3  and  O_5
REMARK    4  A    between atoms: O_5  and  C_6
REMARK    5  A    between atoms: C_6  and  O_7
REMARK    6  A    between atoms: C_6  and  C_37
REMARK    7  A    between atoms: O_7  and  P_8
REMARK    8  A    between atoms: P_8  and  C_10
REMARK    9  A    between atoms: P_8  and  C_20
REMARK   10  A    between atoms: C_10  and  C_11
REMARK   11  A    between atoms: C_11  and  C_12
REMARK   12  A    between atoms: C_12  and  C_13
REMARK   13  A    between atoms: C_13  and  C_14
REMARK   14  A    between atoms: C_20  and  C_21
REMARK   15  A    between atoms: C_25  and  C_31
REMARK   16  A    between atoms: C_27  and  C_28
REMARK   17  A    between atoms: C_28  and  O_29
REMARK   18  A    between atoms: C_37  and  C_38
REMARK   19  A    between atoms: C_37  and  C_39
REMARK                            x       y       z     vdW  Elec       q    Type
REMARK                         _______ _______ _______ _____ _____    ______ ____
ROOT
ATOM      1  P   UNL     1      -7.024   3.559 126.213  0.00  0.00    +0.000 P 
ATOM      2  O   UNL     1      -8.260   2.682 126.361  0.00  0.00    +0.000 OA
ENDROOT
BRANCH   1   3
ATOM      3  C   UNL     1      -4.985   2.758 126.482  0.00  0.00    +0.000 C 
BRANCH   3   4
ATOM      4  C   UNL     1      -4.849   1.210 126.122  0.00  0.00    +0.000 C 
BRANCH   4   5
ATOM      5  C   UNL     1      -5.609   0.156 126.898  0.00  0.00    +0.000 C 
BRANCH   5   6
ATOM      6  C   UNL     1      -5.576  -1.267 126.401  0.00  0.00    +0.000 C 
BRANCH   6   7
ATOM      7  C   UNL     1      -6.236  -2.150 127.437  0.00  0.00    +0.000 A 
ATOM      8  C   UNL     1      -7.607  -2.497 127.442  0.00  0.00    +0.000 A 
ATOM      9  C   UNL     1      -8.188  -3.063 128.566  0.00  0.00    +0.000 A 
ATOM     10  C   UNL     1      -7.377  -3.419 129.634  0.00  0.00    +0.000 A 
ATOM     11  C   UNL     1      -6.000  -3.195 129.581  0.00  0.00    +0.000 A 
ATOM     12  C   UNL     1      -5.428  -2.570 128.483  0.00  0.00    +0.000 A 
ENDBRANCH   6   7
ENDBRANCH   5   6
ENDBRANCH   4   5
ENDBRANCH   3   4
ENDBRANCH   1   3
BRANCH   1  13
ATOM     13  C   UNL     1      -6.884   3.710 128.042  0.00  0.00    +0.000 C 
BRANCH  13  14
ATOM     14  C   UNL     1      -8.196   4.206 128.756  0.00  0.00    +0.000 C 
ATOM     15  O   UNL     1      -8.880   5.081 128.217  0.00  0.00    +0.000 OA
ATOM     16  N   UNL     1      -8.673   3.733 130.014  0.00  0.00    +0.000 N 
ATOM     17  C   UNL     1      -7.953   3.125 131.130  0.00  0.00    +0.000 C 
ATOM     18  C   UNL     1      -8.779   1.900 131.628  0.00  0.00    +0.000 C 
ATOM     19  C   UNL     1     -10.199   2.476 131.464  0.00  0.00    +0.000 C 
ATOM     20  C   UNL     1     -10.129   3.450 130.236  0.00  0.00    +0.000 C 
BRANCH  18  21
ATOM     21  C   UNL     1      -8.609   0.457 131.006  0.00  0.00    +0.000 C 
ATOM     22  C   UNL     1      -8.376  -0.624 132.095  0.00  0.00    +0.000 C 
ATOM     23  C   UNL     1      -7.047  -0.510 132.795  0.00  0.00    +0.000 C 
ATOM     24  C   UNL     1      -5.988  -0.426 131.725  0.00  0.00    +0.000 C 
ATOM     25  C   UNL     1      -6.225   0.470 130.536  0.00  0.00    +0.000 C 
ATOM     26  C   UNL     1      -7.555   0.347 129.898  0.00  0.00    +0.000 C 
ENDBRANCH  18  21
BRANCH  20  27
ATOM     27  C   UNL     1     -10.889   4.735 130.561  0.00  0.00    +0.000 C 
ATOM     28  O   UNL     1     -11.668   5.283 129.795  0.00  0.00    +0.000 OA
BRANCH  27  29
ATOM     29  O   UNL     1     -10.676   5.181 131.822  0.00  0.00    +0.000 OA
ATOM     30  H   UNL     1      -9.799   4.851 132.117  0.00  0.00    +0.000 HD
ENDBRANCH  27  29
ENDBRANCH  20  27
ENDBRANCH  13  14
ENDBRANCH   1  13
BRANCH   1  31
ATOM     31  O   UNL     1      -6.647   2.879 124.818  0.00  0.00    +0.000 OA
BRANCH  31  32
ATOM     32  C   UNL     1      -7.580   2.214 123.914  0.00  0.00    +0.000 C 
BRANCH  32  33
ATOM     33  C   UNL     1      -7.496   3.231 122.694  0.00  0.00    +0.000 C 
ATOM     34  C   UNL     1      -6.216   3.054 121.909  0.00  0.00    +0.000 C 
ATOM     35  C   UNL     1      -8.735   3.122 121.788  0.00  0.00    +0.000 C 
ENDBRANCH  32  33
BRANCH  32  36
ATOM     36  O   UNL     1      -7.183   0.810 123.466  0.00  0.00    +0.000 OA
BRANCH  36  37
ATOM     37  C   UNL     1      -7.943  -0.313 123.793  0.00  0.00    +0.000 C 
ATOM     38  O   UNL     1      -8.658  -0.359 124.744  0.00  0.00    +0.000 OA
BRANCH  37  40
ATOM     39  C   UNL     1      -6.187  -2.104 122.825  0.00  0.00    +0.000 C 
ATOM     40  C   UNL     1      -7.613  -1.633 122.931  0.00  0.00    +0.000 C 
ENDBRANCH  37  40
ENDBRANCH  36  37
ENDBRANCH  32  36
ENDBRANCH  31  32
ENDBRANCH   1  31
TORSDOF 16
ENDMDL
MODEL 8
REMARK VINA RESULT:      -8.4      2.776      6.416
REMARK  Name = Fosinopril
REMARK  19 active torsions:
REMARK  status: ('A' for Active; 'I' for Inactive)
REMARK    1  A    between atoms: C_1  and  C_2
REMARK    2  A    between atoms: C_2  and  C_3
REMARK    3  A    between atoms: C_3  and  O_5
REMARK    4  A    between atoms: O_5  and  C_6
REMARK    5  A    between atoms: C_6  and  O_7
REMARK    6  A    between atoms: C_6  and  C_37
REMARK    7  A    between atoms: O_7  and  P_8
REMARK    8  A    between atoms: P_8  and  C_10
REMARK    9  A    between atoms: P_8  and  C_20
REMARK   10  A    between atoms: C_10  and  C_11
REMARK   11  A    between atoms: C_11  and  C_12
REMARK   12  A    between atoms: C_12  and  C_13
REMARK   13  A    between atoms: C_13  and  C_14
REMARK   14  A    between atoms: C_20  and  C_21
REMARK   15  A    between atoms: C_25  and  C_31
REMARK   16  A    between atoms: C_27  and  C_28
REMARK   17  A    between atoms: C_28  and  O_29
REMARK   18  A    between atoms: C_37  and  C_38
REMARK   19  A    between atoms: C_37  and  C_39
REMARK                            x       y       z     vdW  Elec       q    Type
REMARK                         _______ _______ _______ _____ _____    ______ ____
ROOT
ATOM      1  P   UNL     1      -8.418   3.691 129.183  0.00  0.00    +0.000 P 
ATOM      2  O   UNL     1      -9.888   3.616 129.573  0.00  0.00    +0.000 OA
ENDROOT
BRANCH   1   3
ATOM      3  C   UNL     1      -7.775   4.272 127.154  0.00  0.00    +0.000 C 
BRANCH   3   4
ATOM      4  C   UNL     1      -6.216   4.065 126.888  0.00  0.00    +0.000 C 
BRANCH   4   5
ATOM      5  C   UNL     1      -5.723   3.299 125.680  0.00  0.00    +0.000 C 
BRANCH   5   6
ATOM      6  C   UNL     1      -6.729   2.853 124.650  0.00  0.00    +0.000 C 
BRANCH   6   7
ATOM      7  C   UNL     1      -6.357   3.470 123.319  0.00  0.00    +0.000 A 
ATOM      8  C   UNL     1      -7.017   3.205 122.097  0.00  0.00    +0.000 A 
ATOM      9  C   UNL     1      -6.445   3.577 120.891  0.00  0.00    +0.000 A 
ATOM     10  C   UNL     1      -5.288   4.342 120.904  0.00  0.00    +0.000 A 
ATOM     11  C   UNL     1      -4.702   4.716 122.115  0.00  0.00    +0.000 A 
ATOM     12  C   UNL     1      -5.238   4.289 123.321  0.00  0.00    +0.000 A 
ENDBRANCH   6   7
ENDBRANCH   5   6
ENDBRANCH   4   5
ENDBRANCH   3   4
ENDBRANCH   1   3
BRANCH   1  13
ATOM     13  C   UNL     1      -8.530   2.051 128.355  0.00  0.00    +0.000 C 
BRANCH  13  14
ATOM     14  C   UNL     1      -7.976   0.852 129.211  0.00  0.00    +0.000 C 
ATOM     15  O   UNL     1      -8.225   0.809 130.419  0.00  0.00    +0.000 OA
ATOM     16  N   UNL     1      -7.177  -0.216 128.704  0.00  0.00    +0.000 N 
ATOM     17  C   UNL     1      -6.300  -0.269 127.537  0.00  0.00    +0.000 C 
ATOM     18  C   UNL     1      -6.566  -1.615 126.794  0.00  0.00    +0.000 C 
ATOM     19  C   UNL     1      -6.773  -2.534 128.013  0.00  0.00    +0.000 C 
ATOM     20  C   UNL     1      -7.419  -1.635 129.125  0.00  0.00    +0.000 C 
BRANCH  18  21
ATOM     21  C   UNL     1      -7.691  -1.765 125.694  0.00  0.00    +0.000 C 
ATOM     22  C   UNL     1      -7.634  -3.145 124.986  0.00  0.00    +0.000 C 
ATOM     23  C   UNL     1      -6.422  -3.334 124.112  0.00  0.00    +0.000 C 
ATOM     24  C   UNL     1      -6.337  -2.134 123.204  0.00  0.00    +0.000 C 
ATOM     25  C   UNL     1      -6.565  -0.763 123.788  0.00  0.00    +0.000 C 
ATOM     26  C   UNL     1      -7.749  -0.629 124.666  0.00  0.00    +0.000 C 
ENDBRANCH  18  21
BRANCH  20  27
ATOM     27  C   UNL     1      -6.751  -1.926 130.468  0.00  0.00    +0.000 C 
ATOM     28  O   UNL     1      -5.544  -2.029 130.625  0.00  0.00    +0.000 OA
BRANCH  27  29
ATOM     29  O   UNL     1      -7.626  -1.988 131.501  0.00  0.00    +0.000 OA
ATOM     30  H   UNL     1      -7.173  -2.420 132.258  0.00  0.00    +0.000 HD
ENDBRANCH  27  29
ENDBRANCH  20  27
ENDBRANCH  13  14
ENDBRANCH   1  13
BRANCH   1  31
ATOM     31  O   UNL     1      -8.451   5.288 129.168  0.00  0.00    +0.000 OA
BRANCH  31  32
ATOM     32  C   UNL     1      -9.652   6.115 129.156  0.00  0.00    +0.000 C 
BRANCH  32  33
ATOM     33  C   UNL     1      -9.403   6.919 130.504  0.00  0.00    +0.000 C 
ATOM     34  C   UNL     1     -10.274   6.406 131.628  0.00  0.00    +0.000 C 
ATOM     35  C   UNL     1      -7.914   6.911 130.894  0.00  0.00    +0.000 C 
ENDBRANCH  32  33
BRANCH  32  36
ATOM     36  O   UNL     1      -9.784   7.077 127.979  0.00  0.00    +0.000 OA
BRANCH  36  37
ATOM     37  C   UNL     1     -10.996   7.277 127.318  0.00  0.00    +0.000 C 
ATOM     38  O   UNL     1     -11.102   7.247 126.132  0.00  0.00    +0.000 OA
BRANCH  37  40
ATOM     39  C   UNL     1     -13.516   7.042 128.222  0.00  0.00    +0.000 C 
ATOM     40  C   UNL     1     -12.207   7.782 128.253  0.00  0.00    +0.000 C 
ENDBRANCH  37  40
ENDBRANCH  36  37
ENDBRANCH  32  36
ENDBRANCH  31  32
ENDBRANCH   1  31
TORSDOF 16
ENDMDL
MODEL 9
REMARK VINA RESULT:      -8.4      2.123      3.875
REMARK  Name = Fosinopril
REMARK  19 active torsions:
REMARK  status: ('A' for Active; 'I' for Inactive)
REMARK    1  A    between atoms: C_1  and  C_2
REMARK    2  A    between atoms: C_2  and  C_3
REMARK    3  A    between atoms: C_3  and  O_5
REMARK    4  A    between atoms: O_5  and  C_6
REMARK    5  A    between atoms: C_6  and  O_7
REMARK    6  A    between atoms: C_6  and  C_37
REMARK    7  A    between atoms: O_7  and  P_8
REMARK    8  A    between atoms: P_8  and  C_10
REMARK    9  A    between atoms: P_8  and  C_20
REMARK   10  A    between atoms: C_10  and  C_11
REMARK   11  A    between atoms: C_11  and  C_12
REMARK   12  A    between atoms: C_12  and  C_13
REMARK   13  A    between atoms: C_13  and  C_14
REMARK   14  A    between atoms: C_20  and  C_21
REMARK   15  A    between atoms: C_25  and  C_31
REMARK   16  A    between atoms: C_27  and  C_28
REMARK   17  A    between atoms: C_28  and  O_29
REMARK   18  A    between atoms: C_37  and  C_38
REMARK   19  A    between atoms: C_37  and  C_39
REMARK                            x       y       z     vdW  Elec       q    Type
REMARK                         _______ _______ _______ _____ _____    ______ ____
ROOT
ATOM      1  P   UNL     1      -7.756   3.613 128.522  0.00  0.00    +0.000 P 
ATOM      2  O   UNL     1      -8.308   3.828 127.119  0.00  0.00    +0.000 OA
ENDROOT
BRANCH   1   3
ATOM      3  C   UNL     1      -5.822   4.463 129.160  0.00  0.00    +0.000 C 
BRANCH   3   4
ATOM      4  C   UNL     1      -5.526   4.291 130.718  0.00  0.00    +0.000 C 
BRANCH   4   5
ATOM      5  C   UNL     1      -5.158   2.944 131.302  0.00  0.00    +0.000 C 
BRANCH   5   6
ATOM      6  C   UNL     1      -5.685   2.582 132.666  0.00  0.00    +0.000 C 
BRANCH   6   7
ATOM      7  C   UNL     1      -7.146   2.210 132.531  0.00  0.00    +0.000 A 
ATOM      8  C   UNL     1      -7.654   1.266 131.608  0.00  0.00    +0.000 A 
ATOM      9  C   UNL     1      -9.013   1.193 131.349  0.00  0.00    +0.000 A 
ATOM     10  C   UNL     1      -9.884   1.957 132.112  0.00  0.00    +0.000 A 
ATOM     11  C   UNL     1      -9.395   2.797 133.114  0.00  0.00    +0.000 A 
ATOM     12  C   UNL     1      -8.030   2.919 133.330  0.00  0.00    +0.000 A 
ENDBRANCH   6   7
ENDBRANCH   5   6
ENDBRANCH   4   5
ENDBRANCH   3   4
ENDBRANCH   1   3
BRANCH   1  13
ATOM     13  C   UNL     1      -6.634   2.292 127.905  0.00  0.00    +0.000 C 
BRANCH  13  14
ATOM     14  C   UNL     1      -7.369   1.084 127.215  0.00  0.00    +0.000 C 
ATOM     15  O   UNL     1      -8.041   0.314 127.907  0.00  0.00    +0.000 OA
ATOM     16  N   UNL     1      -7.315   0.779 125.823  0.00  0.00    +0.000 N 
ATOM     17  C   UNL     1      -6.303   1.107 124.821  0.00  0.00    +0.000 C 
ATOM     18  C   UNL     1      -7.037   1.599 123.536  0.00  0.00    +0.000 C 
ATOM     19  C   UNL     1      -8.243   0.639 123.557  0.00  0.00    +0.000 C 
ATOM     20  C   UNL     1      -8.544   0.359 125.071  0.00  0.00    +0.000 C 
BRANCH  18  21
ATOM     21  C   UNL     1      -7.440   3.112 123.320  0.00  0.00    +0.000 C 
ATOM     22  C   UNL     1      -7.555   3.475 121.815  0.00  0.00    +0.000 C 
ATOM     23  C   UNL     1      -6.238   3.474 121.084  0.00  0.00    +0.000 C 
ATOM     24  C   UNL     1      -5.283   4.321 121.886  0.00  0.00    +0.000 C 
ATOM     25  C   UNL     1      -5.246   4.154 123.385  0.00  0.00    +0.000 C 
ATOM     26  C   UNL     1      -6.564   4.129 124.059  0.00  0.00    +0.000 C 
ENDBRANCH  18  21
BRANCH  20  27
ATOM     27  C   UNL     1      -8.820  -1.130 125.270  0.00  0.00    +0.000 C 
ATOM     28  O   UNL     1      -9.849  -1.579 125.752  0.00  0.00    +0.000 OA
BRANCH  27  29
ATOM     29  O   UNL     1      -7.837  -1.928 124.788  0.00  0.00    +0.000 OA
ATOM     30  H   UNL     1      -7.156  -2.029 125.490  0.00  0.00    +0.000 HD
ENDBRANCH  27  29
ENDBRANCH  20  27
ENDBRANCH  13  14
ENDBRANCH   1  13
BRANCH   1  31
ATOM     31  O   UNL     1      -8.070   5.125 128.931  0.00  0.00    +0.000 OA
BRANCH  31  32
ATOM     32  C   UNL     1      -9.388   5.667 129.245  0.00  0.00    +0.000 C 
BRANCH  32  33
ATOM     33  C   UNL     1      -9.239   5.758 130.825  0.00  0.00    +0.000 C 
ATOM     34  C   UNL     1      -8.153   6.730 131.227  0.00  0.00    +0.000 C 
ATOM     35  C   UNL     1     -10.581   6.101 131.496  0.00  0.00    +0.000 C 
ENDBRANCH  32  33
BRANCH  32  36
ATOM     36  O   UNL     1      -9.697   7.042 128.659  0.00  0.00    +0.000 OA
BRANCH  36  37
ATOM     37  C   UNL     1     -10.605   7.214 127.614  0.00  0.00    +0.000 C 
ATOM     38  O   UNL     1     -10.493   6.670 126.560  0.00  0.00    +0.000 OA
BRANCH  37  40
ATOM     39  C   UNL     1     -12.424   8.454 129.155  0.00  0.00    +0.000 C 
ATOM     40  C   UNL     1     -11.693   8.379 127.842  0.00  0.00    +0.000 C 
ENDBRANCH  37  40
ENDBRANCH  36  37
ENDBRANCH  32  36
ENDBRANCH  31  32
ENDBRANCH   1  31
TORSDOF 16
ENDMDL
