MODEL 1
REMARK VINA RESULT:      -9.4      0.000      0.000
REMARK  Name = Fosnetupitant
REMARK  15 active torsions:
REMARK  status: ('A' for Active; 'I' for Inactive)
REMARK    1  A    between atoms: C_1  and  N_2
REMARK    2  A    between atoms: N_2  and  C_22
REMARK    3  A    between atoms: C_3  and  C_5
REMARK    4  A    between atoms: C_5  and  C_6
REMARK    5  A    between atoms: C_5  and  C_7
REMARK    6  A    between atoms: C_5  and  C_8
REMARK    7  A    between atoms: C_10  and  C_18
REMARK    8  A    between atoms: C_12  and  C_14
REMARK    9  A    between atoms: C_27  and  C_28
REMARK   10  A    between atoms: C_33  and  C_34
REMARK   11  A    between atoms: N_38  and  C_39
REMARK   12  A    between atoms: N_38  and  C_40
REMARK   13  A    between atoms: C_40  and  O_41
REMARK   14  A    between atoms: O_41  and  P_42
REMARK   15  A    between atoms: P_42  and  O_43
REMARK                            x       y       z     vdW  Elec       q    Type
REMARK                         _______ _______ _______ _____ _____    ______ ____
ROOT
ATOM      1  C   UNL     1      -7.262   1.199 129.444  0.00  0.00    +0.000 A 
ATOM      2  C   UNL     1      -7.388   1.550 130.796  0.00  0.00    +0.000 A 
ATOM      3  N   UNL     1      -8.165   2.567 131.300  0.00  0.00    +0.000 NA
ATOM      4  C   UNL     1      -8.954   3.255 130.459  0.00  0.00    +0.000 A 
ATOM      5  C   UNL     1      -8.915   2.962 129.099  0.00  0.00    +0.000 A 
ATOM      6  C   UNL     1      -8.078   1.943 128.562  0.00  0.00    +0.000 A 
ATOM      7  N   UNL     1      -9.807   4.207 130.979  0.00  0.00    +0.000 N 
ATOM      8  C   UNL     1     -11.242   4.235 130.713  0.00  0.00    +0.000 C 
ATOM      9  C   UNL     1     -11.614   5.456 129.826  0.00  0.00    +0.000 C 
ATOM     10  N   UNL     1     -11.099   6.804 130.422  0.00  0.00    +0.000 N 
ATOM     11  C   UNL     1     -11.931   7.246 131.619  0.00  0.00    +0.000 C 
ATOM     12  C   UNL     1      -9.581   6.665 130.792  0.00  0.00    +0.000 C 
ATOM     13  C   UNL     1      -9.288   5.398 131.656  0.00  0.00    +0.000 C 
ENDROOT
BRANCH   6  14
ATOM     14  C   UNL     1      -8.230   1.649 127.115  0.00  0.00    +0.000 A 
ATOM     15  C   UNL     1      -9.262   0.788 126.686  0.00  0.00    +0.000 A 
ATOM     16  C   UNL     1      -9.465   0.528 125.328  0.00  0.00    +0.000 A 
ATOM     17  C   UNL     1      -8.715   1.199 124.369  0.00  0.00    +0.000 A 
ATOM     18  C   UNL     1      -7.717   2.082 124.762  0.00  0.00    +0.000 A 
ATOM     19  C   UNL     1      -7.429   2.279 126.121  0.00  0.00    +0.000 A 
ATOM     20  C   UNL     1      -6.371   3.289 126.462  0.00  0.00    +0.000 C 
ENDBRANCH   6  14
BRANCH   1  22
ATOM     21  C   UNL     1      -5.197   0.441 128.244  0.00  0.00    +0.000 C 
ATOM     22  N   UNL     1      -6.393   0.091 129.022  0.00  0.00    +0.000 N 
ATOM     23  C   UNL     1      -6.882  -1.230 129.140  0.00  0.00    +0.000 C 
ATOM     24  O   UNL     1      -7.988  -1.434 129.693  0.00  0.00    +0.000 OA
BRANCH  23  25
ATOM     25  C   UNL     1      -6.113  -2.446 128.461  0.00  0.00    +0.000 C 
ATOM     26  C   UNL     1      -4.572  -2.261 128.591  0.00  0.00    +0.000 C 
ATOM     27  C   UNL     1      -6.608  -3.776 129.055  0.00  0.00    +0.000 C 
BRANCH  25  28
ATOM     28  C   UNL     1      -6.432  -2.552 126.936  0.00  0.00    +0.000 A 
ATOM     29  C   UNL     1      -7.748  -2.527 126.437  0.00  0.00    +0.000 A 
ATOM     30  C   UNL     1      -8.034  -2.781 125.092  0.00  0.00    +0.000 A 
ATOM     31  C   UNL     1      -6.978  -2.907 124.190  0.00  0.00    +0.000 A 
ATOM     32  C   UNL     1      -5.655  -2.892 124.643  0.00  0.00    +0.000 A 
ATOM     33  C   UNL     1      -5.394  -2.704 126.005  0.00  0.00    +0.000 A 
BRANCH  32  34
ATOM     34  C   UNL     1      -4.533  -3.167 123.678  0.00  0.00    +0.000 C 
ATOM     35  F   UNL     1      -4.017  -4.416 123.843  0.00  0.00    +0.000 F 
ATOM     36  F   UNL     1      -4.944  -3.093 122.384  0.00  0.00    +0.000 F 
ATOM     37  F   UNL     1      -3.486  -2.306 123.793  0.00  0.00    +0.000 F 
ENDBRANCH  32  34
BRANCH  30  38
ATOM     38  C   UNL     1      -9.458  -3.054 124.683  0.00  0.00    +0.000 C 
ATOM     39  F   UNL     1      -9.585  -4.291 124.122  0.00  0.00    +0.000 F 
ATOM     40  F   UNL     1     -10.326  -3.027 125.728  0.00  0.00    +0.000 F 
ATOM     41  F   UNL     1      -9.932  -2.177 123.759  0.00  0.00    +0.000 F 
ENDBRANCH  30  38
ENDBRANCH  25  28
ENDBRANCH  23  25
ENDBRANCH   1  22
BRANCH  10  42
ATOM     42  C   UNL     1     -11.258   7.963 129.403  0.00  0.00    +0.000 C 
BRANCH  42  43
ATOM     43  O   UNL     1     -10.170   8.073 128.510  0.00  0.00    +0.000 OA
BRANCH  43  44
ATOM     44  P   UNL     1     -10.701   7.877 126.875  0.00  0.00    +0.000 P 
ATOM     45  O   UNL     1     -12.073   7.783 127.541  0.00  0.00    +0.000 OA
ATOM     46  O   UNL     1     -11.177   7.701 125.411  0.00  0.00    +0.000 OA
BRANCH  44  47
ATOM     47  O   UNL     1      -9.950   6.432 127.045  0.00  0.00    +0.000 OA
ATOM     48  H   UNL     1     -10.460   5.806 126.500  0.00  0.00    +0.000 HD
ENDBRANCH  44  47
ENDBRANCH  43  44
ENDBRANCH  42  43
ENDBRANCH  10  42
TORSDOF 10
ENDMDL
MODEL 2
REMARK VINA RESULT:      -8.7      6.666     10.163
REMARK  Name = Fosnetupitant
REMARK  15 active torsions:
REMARK  status: ('A' for Active; 'I' for Inactive)
REMARK    1  A    between atoms: C_1  and  N_2
REMARK    2  A    between atoms: N_2  and  C_22
REMARK    3  A    between atoms: C_3  and  C_5
REMARK    4  A    between atoms: C_5  and  C_6
REMARK    5  A    between atoms: C_5  and  C_7
REMARK    6  A    between atoms: C_5  and  C_8
REMARK    7  A    between atoms: C_10  and  C_18
REMARK    8  A    between atoms: C_12  and  C_14
REMARK    9  A    between atoms: C_27  and  C_28
REMARK   10  A    between atoms: C_33  and  C_34
REMARK   11  A    between atoms: N_38  and  C_39
REMARK   12  A    between atoms: N_38  and  C_40
REMARK   13  A    between atoms: C_40  and  O_41
REMARK   14  A    between atoms: O_41  and  P_42
REMARK   15  A    between atoms: P_42  and  O_43
REMARK                            x       y       z     vdW  Elec       q    Type
REMARK                         _______ _______ _______ _____ _____    ______ ____
ROOT
ATOM      1  C   UNL     1      -5.594   0.321 131.658  0.00  0.00    +0.000 A 
ATOM      2  C   UNL     1      -5.038  -0.955 131.486  0.00  0.00    +0.000 A 
ATOM      3  N   UNL     1      -5.320  -2.070 132.241  0.00  0.00    +0.000 NA
ATOM      4  C   UNL     1      -6.272  -1.988 133.183  0.00  0.00    +0.000 A 
ATOM      5  C   UNL     1      -6.899  -0.766 133.411  0.00  0.00    +0.000 A 
ATOM      6  C   UNL     1      -6.579   0.405 132.668  0.00  0.00    +0.000 A 
ATOM      7  N   UNL     1      -6.625  -3.132 133.871  0.00  0.00    +0.000 N 
ATOM      8  C   UNL     1      -7.998  -3.614 133.984  0.00  0.00    +0.000 C 
ATOM      9  C   UNL     1      -8.515  -3.469 135.442  0.00  0.00    +0.000 C 
ATOM     10  N   UNL     1      -7.566  -4.146 136.481  0.00  0.00    +0.000 N 
ATOM     11  C   UNL     1      -7.682  -5.664 136.445  0.00  0.00    +0.000 C 
ATOM     12  C   UNL     1      -6.092  -3.672 136.227  0.00  0.00    +0.000 C 
ATOM     13  C   UNL     1      -5.663  -3.822 134.733  0.00  0.00    +0.000 C 
ENDROOT
BRANCH   6  14
ATOM     14  C   UNL     1      -7.413   1.606 132.925  0.00  0.00    +0.000 A 
ATOM     15  C   UNL     1      -8.703   1.689 132.361  0.00  0.00    +0.000 A 
ATOM     16  C   UNL     1      -9.534   2.782 132.622  0.00  0.00    +0.000 A 
ATOM     17  C   UNL     1      -9.138   3.759 133.530  0.00  0.00    +0.000 A 
ATOM     18  C   UNL     1      -7.888   3.682 134.130  0.00  0.00    +0.000 A 
ATOM     19  C   UNL     1      -6.998   2.647 133.803  0.00  0.00    +0.000 A 
ATOM     20  C   UNL     1      -5.688   2.608 134.535  0.00  0.00    +0.000 C 
ENDBRANCH   6  14
BRANCH   1  22
ATOM     21  C   UNL     1      -4.156   2.339 131.285  0.00  0.00    +0.000 C 
ATOM     22  N   UNL     1      -5.210   1.444 130.789  0.00  0.00    +0.000 N 
ATOM     23  C   UNL     1      -6.040   1.756 129.689  0.00  0.00    +0.000 C 
ATOM     24  O   UNL     1      -7.013   1.016 129.417  0.00  0.00    +0.000 OA
BRANCH  23  25
ATOM     25  C   UNL     1      -5.836   3.108 128.875  0.00  0.00    +0.000 C 
ATOM     26  C   UNL     1      -4.383   3.200 128.321  0.00  0.00    +0.000 C 
ATOM     27  C   UNL     1      -6.904   3.223 127.774  0.00  0.00    +0.000 C 
BRANCH  25  28
ATOM     28  C   UNL     1      -6.061   4.364 129.775  0.00  0.00    +0.000 A 
ATOM     29  C   UNL     1      -7.332   4.731 130.254  0.00  0.00    +0.000 A 
ATOM     30  C   UNL     1      -7.550   5.939 130.924  0.00  0.00    +0.000 A 
ATOM     31  C   UNL     1      -6.452   6.728 131.264  0.00  0.00    +0.000 A 
ATOM     32  C   UNL     1      -5.167   6.373 130.844  0.00  0.00    +0.000 A 
ATOM     33  C   UNL     1      -4.981   5.193 130.115  0.00  0.00    +0.000 A 
BRANCH  32  34
ATOM     34  C   UNL     1      -4.014   7.305 131.100  0.00  0.00    +0.000 C 
ATOM     35  F   UNL     1      -2.839   6.802 130.631  0.00  0.00    +0.000 F 
ATOM     36  F   UNL     1      -4.184   8.507 130.486  0.00  0.00    +0.000 F 
ATOM     37  F   UNL     1      -3.810   7.579 132.417  0.00  0.00    +0.000 F 
ENDBRANCH  32  34
BRANCH  30  38
ATOM     38  C   UNL     1      -8.963   6.420 131.128  0.00  0.00    +0.000 C 
ATOM     39  F   UNL     1      -9.870   5.510 130.669  0.00  0.00    +0.000 F 
ATOM     40  F   UNL     1      -9.270   6.629 132.434  0.00  0.00    +0.000 F 
ATOM     41  F   UNL     1      -9.238   7.580 130.473  0.00  0.00    +0.000 F 
ENDBRANCH  30  38
ENDBRANCH  25  28
ENDBRANCH  23  25
ENDBRANCH   1  22
BRANCH  10  42
ATOM     42  C   UNL     1      -7.966  -3.770 137.932  0.00  0.00    +0.000 C 
BRANCH  42  43
ATOM     43  O   UNL     1      -9.258  -3.209 138.027  0.00  0.00    +0.000 OA
BRANCH  43  44
ATOM     44  P   UNL     1      -9.258  -1.858 139.107  0.00  0.00    +0.000 P 
ATOM     45  O   UNL     1     -10.516  -1.485 138.325  0.00  0.00    +0.000 OA
ATOM     46  O   UNL     1      -9.258  -0.647 140.074  0.00  0.00    +0.000 OA
BRANCH  44  47
ATOM     47  O   UNL     1      -7.954  -1.433 138.212  0.00  0.00    +0.000 OA
ATOM     48  H   UNL     1      -7.770  -2.199 137.639  0.00  0.00    +0.000 HD
ENDBRANCH  44  47
ENDBRANCH  43  44
ENDBRANCH  42  43
ENDBRANCH  10  42
TORSDOF 10
ENDMDL
MODEL 3
REMARK VINA RESULT:      -8.6      5.506      8.911
REMARK  Name = Fosnetupitant
REMARK  15 active torsions:
REMARK  status: ('A' for Active; 'I' for Inactive)
REMARK    1  A    between atoms: C_1  and  N_2
REMARK    2  A    between atoms: N_2  and  C_22
REMARK    3  A    between atoms: C_3  and  C_5
REMARK    4  A    between atoms: C_5  and  C_6
REMARK    5  A    between atoms: C_5  and  C_7
REMARK    6  A    between atoms: C_5  and  C_8
REMARK    7  A    between atoms: C_10  and  C_18
REMARK    8  A    between atoms: C_12  and  C_14
REMARK    9  A    between atoms: C_27  and  C_28
REMARK   10  A    between atoms: C_33  and  C_34
REMARK   11  A    between atoms: N_38  and  C_39
REMARK   12  A    between atoms: N_38  and  C_40
REMARK   13  A    between atoms: C_40  and  O_41
REMARK   14  A    between atoms: O_41  and  P_42
REMARK   15  A    between atoms: P_42  and  O_43
REMARK                            x       y       z     vdW  Elec       q    Type
REMARK                         _______ _______ _______ _____ _____    ______ ____
ROOT
ATOM      1  C   UNL     1      -6.588   0.395 130.808  0.00  0.00    +0.000 A 
ATOM      2  C   UNL     1      -6.917  -0.963 130.933  0.00  0.00    +0.000 A 
ATOM      3  N   UNL     1      -7.154  -1.838 129.899  0.00  0.00    +0.000 NA
ATOM      4  C   UNL     1      -6.983  -1.410 128.638  0.00  0.00    +0.000 A 
ATOM      5  C   UNL     1      -6.632  -0.082 128.414  0.00  0.00    +0.000 A 
ATOM      6  C   UNL     1      -6.431   0.844 129.477  0.00  0.00    +0.000 A 
ATOM      7  N   UNL     1      -7.122  -2.315 127.605  0.00  0.00    +0.000 N 
ATOM      8  C   UNL     1      -6.107  -2.532 126.580  0.00  0.00    +0.000 C 
ATOM      9  C   UNL     1      -6.595  -2.008 125.200  0.00  0.00    +0.000 C 
ATOM     10  N   UNL     1      -7.980  -2.604 124.793  0.00  0.00    +0.000 N 
ATOM     11  C   UNL     1      -7.860  -4.057 124.353  0.00  0.00    +0.000 C 
ATOM     12  C   UNL     1      -8.988  -2.441 125.984  0.00  0.00    +0.000 C 
ATOM     13  C   UNL     1      -8.409  -2.961 127.337  0.00  0.00    +0.000 C 
ENDROOT
BRANCH   6  14
ATOM     14  C   UNL     1      -5.936   2.192 129.103  0.00  0.00    +0.000 A 
ATOM     15  C   UNL     1      -4.554   2.394 128.906  0.00  0.00    +0.000 A 
ATOM     16  C   UNL     1      -4.057   3.637 128.505  0.00  0.00    +0.000 A 
ATOM     17  C   UNL     1      -4.933   4.671 128.192  0.00  0.00    +0.000 A 
ATOM     18  C   UNL     1      -6.303   4.488 128.340  0.00  0.00    +0.000 A 
ATOM     19  C   UNL     1      -6.815   3.280 128.839  0.00  0.00    +0.000 A 
ATOM     20  C   UNL     1      -8.308   3.146 128.919  0.00  0.00    +0.000 C 
ENDBRANCH   6  14
BRANCH   1  22
ATOM     21  C   UNL     1      -7.515   1.985 132.508  0.00  0.00    +0.000 C 
ATOM     22  N   UNL     1      -6.361   1.237 131.991  0.00  0.00    +0.000 N 
ATOM     23  C   UNL     1      -5.029   1.493 132.389  0.00  0.00    +0.000 C 
ATOM     24  O   UNL     1      -4.085   0.920 131.797  0.00  0.00    +0.000 OA
BRANCH  23  25
ATOM     25  C   UNL     1      -4.707   2.601 133.484  0.00  0.00    +0.000 C 
ATOM     26  C   UNL     1      -5.705   2.502 134.675  0.00  0.00    +0.000 C 
ATOM     27  C   UNL     1      -3.237   2.490 133.925  0.00  0.00    +0.000 C 
BRANCH  25  28
ATOM     28  C   UNL     1      -4.835   4.045 132.901  0.00  0.00    +0.000 A 
ATOM     29  C   UNL     1      -6.078   4.685 132.740  0.00  0.00    +0.000 A 
ATOM     30  C   UNL     1      -6.198   5.909 132.073  0.00  0.00    +0.000 A 
ATOM     31  C   UNL     1      -5.040   6.589 131.699  0.00  0.00    +0.000 A 
ATOM     32  C   UNL     1      -3.784   6.004 131.884  0.00  0.00    +0.000 A 
ATOM     33  C   UNL     1      -3.692   4.747 132.492  0.00  0.00    +0.000 A 
BRANCH  32  34
ATOM     34  C   UNL     1      -2.556   6.689 131.349  0.00  0.00    +0.000 C 
ATOM     35  F   UNL     1      -2.445   6.552 129.999  0.00  0.00    +0.000 F 
ATOM     36  F   UNL     1      -2.569   8.026 131.595  0.00  0.00    +0.000 F 
ATOM     37  F   UNL     1      -1.392   6.219 131.874  0.00  0.00    +0.000 F 
ENDBRANCH  32  34
BRANCH  30  38
ATOM     38  C   UNL     1      -7.564   6.384 131.653  0.00  0.00    +0.000 C 
ATOM     39  F   UNL     1      -8.371   6.597 132.733  0.00  0.00    +0.000 F 
ATOM     40  F   UNL     1      -7.533   7.559 130.973  0.00  0.00    +0.000 F 
ATOM     41  F   UNL     1      -8.226   5.496 130.865  0.00  0.00    +0.000 F 
ENDBRANCH  30  38
ENDBRANCH  25  28
ENDBRANCH  23  25
ENDBRANCH   1  22
BRANCH  10  42
ATOM     42  C   UNL     1      -8.557  -1.878 123.549  0.00  0.00    +0.000 C 
BRANCH  42  43
ATOM     43  O   UNL     1      -9.719  -1.127 123.832  0.00  0.00    +0.000 OA
BRANCH  43  44
ATOM     44  P   UNL     1      -9.479   0.539 123.431  0.00  0.00    +0.000 P 
ATOM     45  O   UNL     1     -10.125   0.756 124.799  0.00  0.00    +0.000 OA
ATOM     46  O   UNL     1      -9.266   2.031 123.073  0.00  0.00    +0.000 OA
BRANCH  44  47
ATOM     47  O   UNL     1     -10.666   0.213 122.351  0.00  0.00    +0.000 OA
ATOM     48  H   UNL     1     -11.488   0.539 122.759  0.00  0.00    +0.000 HD
ENDBRANCH  44  47
ENDBRANCH  43  44
ENDBRANCH  42  43
ENDBRANCH  10  42
TORSDOF 10
ENDMDL
MODEL 4
REMARK VINA RESULT:      -8.5      5.591      8.699
REMARK  Name = Fosnetupitant
REMARK  15 active torsions:
REMARK  status: ('A' for Active; 'I' for Inactive)
REMARK    1  A    between atoms: C_1  and  N_2
REMARK    2  A    between atoms: N_2  and  C_22
REMARK    3  A    between atoms: C_3  and  C_5
REMARK    4  A    between atoms: C_5  and  C_6
REMARK    5  A    between atoms: C_5  and  C_7
REMARK    6  A    between atoms: C_5  and  C_8
REMARK    7  A    between atoms: C_10  and  C_18
REMARK    8  A    between atoms: C_12  and  C_14
REMARK    9  A    between atoms: C_27  and  C_28
REMARK   10  A    between atoms: C_33  and  C_34
REMARK   11  A    between atoms: N_38  and  C_39
REMARK   12  A    between atoms: N_38  and  C_40
REMARK   13  A    between atoms: C_40  and  O_41
REMARK   14  A    between atoms: O_41  and  P_42
REMARK   15  A    between atoms: P_42  and  O_43
REMARK                            x       y       z     vdW  Elec       q    Type
REMARK                         _______ _______ _______ _____ _____    ______ ____
ROOT
ATOM      1  C   UNL     1      -6.487  -1.371 130.790  0.00  0.00    +0.000 A 
ATOM      2  C   UNL     1      -6.842  -2.678 130.426  0.00  0.00    +0.000 A 
ATOM      3  N   UNL     1      -7.202  -3.099 129.167  0.00  0.00    +0.000 NA
ATOM      4  C   UNL     1      -7.139  -2.225 128.151  0.00  0.00    +0.000 A 
ATOM      5  C   UNL     1      -6.774  -0.907 128.410  0.00  0.00    +0.000 A 
ATOM      6  C   UNL     1      -6.446  -0.450 129.719  0.00  0.00    +0.000 A 
ATOM      7  N   UNL     1      -7.403  -2.674 126.872  0.00  0.00    +0.000 N 
ATOM      8  C   UNL     1      -6.497  -2.478 125.745  0.00  0.00    +0.000 C 
ATOM      9  C   UNL     1      -7.100  -1.476 124.721  0.00  0.00    +0.000 C 
ATOM     10  N   UNL     1      -8.533  -1.887 124.259  0.00  0.00    +0.000 N 
ATOM     11  C   UNL     1      -8.499  -3.065 123.294  0.00  0.00    +0.000 C 
ATOM     12  C   UNL     1      -9.419  -2.196 125.517  0.00  0.00    +0.000 C 
ATOM     13  C   UNL     1      -8.727  -3.183 126.510  0.00  0.00    +0.000 C 
ENDROOT
BRANCH   6  14
ATOM     14  C   UNL     1      -5.950   0.944 129.832  0.00  0.00    +0.000 A 
ATOM     15  C   UNL     1      -4.641   1.252 129.409  0.00  0.00    +0.000 A 
ATOM     16  C   UNL     1      -4.158   2.563 129.456  0.00  0.00    +0.000 A 
ATOM     17  C   UNL     1      -5.001   3.605 129.826  0.00  0.00    +0.000 A 
ATOM     18  C   UNL     1      -6.309   3.335 130.211  0.00  0.00    +0.000 A 
ATOM     19  C   UNL     1      -6.781   2.015 130.269  0.00  0.00    +0.000 A 
ATOM     20  C   UNL     1      -8.220   1.814 130.646  0.00  0.00    +0.000 C 
ENDBRANCH   6  14
BRANCH   1  22
ATOM     21  C   UNL     1      -7.204  -0.558 133.050  0.00  0.00    +0.000 C 
ATOM     22  N   UNL     1      -6.124  -1.036 132.175  0.00  0.00    +0.000 N 
ATOM     23  C   UNL     1      -4.754  -0.928 132.503  0.00  0.00    +0.000 C 
ATOM     24  O   UNL     1      -3.887  -1.218 131.647  0.00  0.00    +0.000 OA
BRANCH  23  25
ATOM     25  C   UNL     1      -4.298  -0.312 133.897  0.00  0.00    +0.000 C 
ATOM     26  C   UNL     1      -5.211  -0.828 135.049  0.00  0.00    +0.000 C 
ATOM     27  C   UNL     1      -2.807  -0.606 134.138  0.00  0.00    +0.000 C 
BRANCH  25  28
ATOM     28  C   UNL     1      -4.398   1.247 133.902  0.00  0.00    +0.000 A 
ATOM     29  C   UNL     1      -5.567   1.927 134.292  0.00  0.00    +0.000 A 
ATOM     30  C   UNL     1      -5.702   3.310 134.143  0.00  0.00    +0.000 A 
ATOM     31  C   UNL     1      -4.594   4.057 133.745  0.00  0.00    +0.000 A 
ATOM     32  C   UNL     1      -3.400   3.420 133.392  0.00  0.00    +0.000 A 
ATOM     33  C   UNL     1      -3.309   2.026 133.484  0.00  0.00    +0.000 A 
BRANCH  32  34
ATOM     34  C   UNL     1      -2.261   4.227 132.833  0.00  0.00    +0.000 C 
ATOM     35  F   UNL     1      -1.934   5.273 133.641  0.00  0.00    +0.000 F 
ATOM     36  F   UNL     1      -1.129   3.485 132.696  0.00  0.00    +0.000 F 
ATOM     37  F   UNL     1      -2.514   4.761 131.608  0.00  0.00    +0.000 F 
ENDBRANCH  32  34
BRANCH  30  38
ATOM     38  C   UNL     1      -7.068   3.932 134.274  0.00  0.00    +0.000 C 
ATOM     39  F   UNL     1      -8.055   3.010 134.087  0.00  0.00    +0.000 F 
ATOM     40  F   UNL     1      -7.290   4.475 135.499  0.00  0.00    +0.000 F 
ATOM     41  F   UNL     1      -7.303   4.916 133.364  0.00  0.00    +0.000 F 
ENDBRANCH  30  38
ENDBRANCH  25  28
ENDBRANCH  23  25
ENDBRANCH   1  22
BRANCH  10  42
ATOM     42  C   UNL     1      -9.206  -0.751 123.445  0.00  0.00    +0.000 C 
BRANCH  42  43
ATOM     43  O   UNL     1      -9.536   0.376 124.228  0.00  0.00    +0.000 OA
BRANCH  43  44
ATOM     44  P   UNL     1      -9.251   1.837 123.346  0.00  0.00    +0.000 P 
ATOM     45  O   UNL     1      -7.805   1.344 123.384  0.00  0.00    +0.000 OA
ATOM     46  O   UNL     1      -8.995   3.144 122.556  0.00  0.00    +0.000 OA
BRANCH  44  47
ATOM     47  O   UNL     1      -9.600   2.512 124.796  0.00  0.00    +0.000 OA
ATOM     48  H   UNL     1      -8.756   2.864 125.130  0.00  0.00    +0.000 HD
ENDBRANCH  44  47
ENDBRANCH  43  44
ENDBRANCH  42  43
ENDBRANCH  10  42
TORSDOF 10
ENDMDL
MODEL 5
REMARK VINA RESULT:      -8.5      9.175     11.932
REMARK  Name = Fosnetupitant
REMARK  15 active torsions:
REMARK  status: ('A' for Active; 'I' for Inactive)
REMARK    1  A    between atoms: C_1  and  N_2
REMARK    2  A    between atoms: N_2  and  C_22
REMARK    3  A    between atoms: C_3  and  C_5
REMARK    4  A    between atoms: C_5  and  C_6
REMARK    5  A    between atoms: C_5  and  C_7
REMARK    6  A    between atoms: C_5  and  C_8
REMARK    7  A    between atoms: C_10  and  C_18
REMARK    8  A    between atoms: C_12  and  C_14
REMARK    9  A    between atoms: C_27  and  C_28
REMARK   10  A    between atoms: C_33  and  C_34
REMARK   11  A    between atoms: N_38  and  C_39
REMARK   12  A    between atoms: N_38  and  C_40
REMARK   13  A    between atoms: C_40  and  O_41
REMARK   14  A    between atoms: O_41  and  P_42
REMARK   15  A    between atoms: P_42  and  O_43
REMARK                            x       y       z     vdW  Elec       q    Type
REMARK                         _______ _______ _______ _____ _____    ______ ____
ROOT
ATOM      1  C   UNL     1      -4.078   6.185 132.843  0.00  0.00    +0.000 A 
ATOM      2  C   UNL     1      -5.044   5.922 133.826  0.00  0.00    +0.000 A 
ATOM      3  N   UNL     1      -6.380   5.684 133.605  0.00  0.00    +0.000 NA
ATOM      4  C   UNL     1      -6.822   5.605 132.341  0.00  0.00    +0.000 A 
ATOM      5  C   UNL     1      -5.931   5.829 131.294  0.00  0.00    +0.000 A 
ATOM      6  C   UNL     1      -4.556   6.124 131.515  0.00  0.00    +0.000 A 
ATOM      7  N   UNL     1      -8.142   5.267 132.118  0.00  0.00    +0.000 N 
ATOM      8  C   UNL     1      -8.559   4.173 131.245  0.00  0.00    +0.000 C 
ATOM      9  C   UNL     1      -9.257   4.723 129.970  0.00  0.00    +0.000 C 
ATOM     10  N   UNL     1     -10.436   5.690 130.306  0.00  0.00    +0.000 N 
ATOM     11  C   UNL     1     -11.657   4.934 130.816  0.00  0.00    +0.000 C 
ATOM     12  C   UNL     1      -9.949   6.767 131.337  0.00  0.00    +0.000 C 
ATOM     13  C   UNL     1      -9.231   6.135 132.571  0.00  0.00    +0.000 C 
ENDROOT
BRANCH   6  14
ATOM     14  C   UNL     1      -3.692   6.213 130.310  0.00  0.00    +0.000 A 
ATOM     15  C   UNL     1      -3.121   5.039 129.778  0.00  0.00    +0.000 A 
ATOM     16  C   UNL     1      -2.343   5.078 128.617  0.00  0.00    +0.000 A 
ATOM     17  C   UNL     1      -2.206   6.267 127.909  0.00  0.00    +0.000 A 
ATOM     18  C   UNL     1      -2.791   7.432 128.390  0.00  0.00    +0.000 A 
ATOM     19  C   UNL     1      -3.490   7.434 129.607  0.00  0.00    +0.000 A 
ATOM     20  C   UNL     1      -4.134   8.722 130.030  0.00  0.00    +0.000 C 
ENDBRANCH   6  14
BRANCH   1  22
ATOM     21  C   UNL     1      -1.863   5.260 133.563  0.00  0.00    +0.000 C 
ATOM     22  N   UNL     1      -2.674   6.431 133.201  0.00  0.00    +0.000 N 
ATOM     23  C   UNL     1      -2.264   7.762 133.441  0.00  0.00    +0.000 C 
ATOM     24  O   UNL     1      -3.068   8.703 133.244  0.00  0.00    +0.000 OA
BRANCH  23  25
ATOM     25  C   UNL     1      -0.844   8.072 134.087  0.00  0.00    +0.000 C 
ATOM     26  C   UNL     1      -0.743   7.453 135.513  0.00  0.00    +0.000 C 
ATOM     27  C   UNL     1       0.276   7.591 133.147  0.00  0.00    +0.000 C 
BRANCH  25  28
ATOM     28  C   UNL     1      -0.599   9.607 134.238  0.00  0.00    +0.000 A 
ATOM     29  C   UNL     1      -1.088  10.344 135.333  0.00  0.00    +0.000 A 
ATOM     30  C   UNL     1      -1.003  11.739 135.382  0.00  0.00    +0.000 A 
ATOM     31  C   UNL     1      -0.274  12.405 134.398  0.00  0.00    +0.000 A 
ATOM     32  C   UNL     1       0.266  11.700 133.317  0.00  0.00    +0.000 A 
ATOM     33  C   UNL     1       0.110  10.310 133.253  0.00  0.00    +0.000 A 
BRANCH  32  34
ATOM     34  C   UNL     1       0.929  12.449 132.194  0.00  0.00    +0.000 C 
ATOM     35  F   UNL     1       1.604  13.544 132.641  0.00  0.00    +0.000 F 
ATOM     36  F   UNL     1       1.842  11.683 131.538  0.00  0.00    +0.000 F 
ATOM     37  F   UNL     1       0.063  12.900 131.247  0.00  0.00    +0.000 F 
ENDBRANCH  32  34
BRANCH  30  38
ATOM     38  C   UNL     1      -1.815  12.488 136.406  0.00  0.00    +0.000 C 
ATOM     39  F   UNL     1      -1.150  12.588 137.593  0.00  0.00    +0.000 F 
ATOM     40  F   UNL     1      -2.101  13.762 136.030  0.00  0.00    +0.000 F 
ATOM     41  F   UNL     1      -3.002  11.891 136.695  0.00  0.00    +0.000 F 
ENDBRANCH  30  38
ENDBRANCH  25  28
ENDBRANCH  23  25
ENDBRANCH   1  22
BRANCH  10  42
ATOM     42  C   UNL     1     -10.945   6.415 129.032  0.00  0.00    +0.000 C 
BRANCH  42  43
ATOM     43  O   UNL     1      -9.954   6.555 128.037  0.00  0.00    +0.000 OA
BRANCH  43  44
ATOM     44  P   UNL     1     -10.598   7.353 126.643  0.00  0.00    +0.000 P 
ATOM     45  O   UNL     1     -11.833   6.521 126.983  0.00  0.00    +0.000 OA
ATOM     46  O   UNL     1     -11.175   8.067 125.396  0.00  0.00    +0.000 OA
BRANCH  44  47
ATOM     47  O   UNL     1      -9.524   6.385 125.875  0.00  0.00    +0.000 OA
ATOM     48  H   UNL     1     -10.031   5.936 125.175  0.00  0.00    +0.000 HD
ENDBRANCH  44  47
ENDBRANCH  43  44
ENDBRANCH  42  43
ENDBRANCH  10  42
TORSDOF 10
ENDMDL
MODEL 6
REMARK VINA RESULT:      -8.5      5.327      8.482
REMARK  Name = Fosnetupitant
REMARK  15 active torsions:
REMARK  status: ('A' for Active; 'I' for Inactive)
REMARK    1  A    between atoms: C_1  and  N_2
REMARK    2  A    between atoms: N_2  and  C_22
REMARK    3  A    between atoms: C_3  and  C_5
REMARK    4  A    between atoms: C_5  and  C_6
REMARK    5  A    between atoms: C_5  and  C_7
REMARK    6  A    between atoms: C_5  and  C_8
REMARK    7  A    between atoms: C_10  and  C_18
REMARK    8  A    between atoms: C_12  and  C_14
REMARK    9  A    between atoms: C_27  and  C_28
REMARK   10  A    between atoms: C_33  and  C_34
REMARK   11  A    between atoms: N_38  and  C_39
REMARK   12  A    between atoms: N_38  and  C_40
REMARK   13  A    between atoms: C_40  and  O_41
REMARK   14  A    between atoms: O_41  and  P_42
REMARK   15  A    between atoms: P_42  and  O_43
REMARK                            x       y       z     vdW  Elec       q    Type
REMARK                         _______ _______ _______ _____ _____    ______ ____
ROOT
ATOM      1  C   UNL     1      -6.420  -1.476 131.212  0.00  0.00    +0.000 A 
ATOM      2  C   UNL     1      -5.960  -2.797 131.316  0.00  0.00    +0.000 A 
ATOM      3  N   UNL     1      -6.131  -3.631 132.397  0.00  0.00    +0.000 NA
ATOM      4  C   UNL     1      -6.871  -3.205 133.432  0.00  0.00    +0.000 A 
ATOM      5  C   UNL     1      -7.391  -1.913 133.408  0.00  0.00    +0.000 A 
ATOM      6  C   UNL     1      -7.180  -1.026 132.315  0.00  0.00    +0.000 A 
ATOM      7  N   UNL     1      -7.125  -4.077 134.471  0.00  0.00    +0.000 N 
ATOM      8  C   UNL     1      -8.466  -4.378 134.962  0.00  0.00    +0.000 C 
ATOM      9  C   UNL     1      -8.676  -3.791 136.386  0.00  0.00    +0.000 C 
ATOM     10  N   UNL     1      -7.567  -4.244 137.387  0.00  0.00    +0.000 N 
ATOM     11  C   UNL     1      -7.749  -5.697 137.809  0.00  0.00    +0.000 C 
ATOM     12  C   UNL     1      -6.155  -4.001 136.746  0.00  0.00    +0.000 C 
ATOM     13  C   UNL     1      -6.039  -4.593 135.306  0.00  0.00    +0.000 C 
ENDROOT
BRANCH   6  14
ATOM     14  C   UNL     1      -7.896   0.273 132.363  0.00  0.00    +0.000 A 
ATOM     15  C   UNL     1      -9.197   0.368 131.826  0.00  0.00    +0.000 A 
ATOM     16  C   UNL     1      -9.920   1.562 131.897  0.00  0.00    +0.000 A 
ATOM     17  C   UNL     1      -9.405   2.649 132.595  0.00  0.00    +0.000 A 
ATOM     18  C   UNL     1      -8.142   2.571 133.168  0.00  0.00    +0.000 A 
ATOM     19  C   UNL     1      -7.358   1.416 133.019  0.00  0.00    +0.000 A 
ATOM     20  C   UNL     1      -6.027   1.393 133.712  0.00  0.00    +0.000 C 
ENDBRANCH   6  14
BRANCH   1  22
ATOM     21  C   UNL     1      -5.126   0.352 130.087  0.00  0.00    +0.000 C 
ATOM     22  N   UNL     1      -6.173  -0.676 130.003  0.00  0.00    +0.000 N 
ATOM     23  C   UNL     1      -7.111  -0.743 128.949  0.00  0.00    +0.000 C 
ATOM     24  O   UNL     1      -8.066  -1.551 129.020  0.00  0.00    +0.000 OA
BRANCH  23  25
ATOM     25  C   UNL     1      -7.050   0.288 127.739  0.00  0.00    +0.000 C 
ATOM     26  C   UNL     1      -7.676   1.654 128.150  0.00  0.00    +0.000 C 
ATOM     27  C   UNL     1      -5.601   0.421 127.238  0.00  0.00    +0.000 C 
BRANCH  25  28
ATOM     28  C   UNL     1      -7.850  -0.226 126.500  0.00  0.00    +0.000 A 
ATOM     29  C   UNL     1      -7.788  -1.562 126.064  0.00  0.00    +0.000 A 
ATOM     30  C   UNL     1      -8.378  -1.977 124.866  0.00  0.00    +0.000 A 
ATOM     31  C   UNL     1      -9.183  -1.080 124.165  0.00  0.00    +0.000 A 
ATOM     32  C   UNL     1      -9.305   0.246 124.593  0.00  0.00    +0.000 A 
ATOM     33  C   UNL     1      -8.649   0.657 125.759  0.00  0.00    +0.000 A 
BRANCH  32  34
ATOM     34  C   UNL     1     -10.063   1.235 123.750  0.00  0.00    +0.000 C 
ATOM     35  F   UNL     1      -9.402   2.420 123.639  0.00  0.00    +0.000 F 
ATOM     36  F   UNL     1     -10.251   0.785 122.480  0.00  0.00    +0.000 F 
ATOM     37  F   UNL     1     -11.299   1.536 124.233  0.00  0.00    +0.000 F 
ENDBRANCH  32  34
BRANCH  30  38
ATOM     38  C   UNL     1      -8.015  -3.323 124.296  0.00  0.00    +0.000 C 
ATOM     39  F   UNL     1      -8.776  -3.624 123.205  0.00  0.00    +0.000 F 
ATOM     40  F   UNL     1      -6.723  -3.395 123.883  0.00  0.00    +0.000 F 
ATOM     41  F   UNL     1      -8.201  -4.348 125.171  0.00  0.00    +0.000 F 
ENDBRANCH  30  38
ENDBRANCH  25  28
ENDBRANCH  23  25
ENDBRANCH   1  22
BRANCH  10  42
ATOM     42  C   UNL     1      -7.653  -3.450 138.716  0.00  0.00    +0.000 C 
BRANCH  42  43
ATOM     43  O   UNL     1      -8.974  -3.097 139.069  0.00  0.00    +0.000 OA
BRANCH  43  44
ATOM     44  P   UNL     1      -9.036  -1.466 139.644  0.00  0.00    +0.000 P 
ATOM     45  O   UNL     1     -10.072  -1.322 138.532  0.00  0.00    +0.000 OA
ATOM     46  O   UNL     1      -9.092  -0.006 140.159  0.00  0.00    +0.000 OA
BRANCH  44  47
ATOM     47  O   UNL     1      -7.546  -1.412 138.966  0.00  0.00    +0.000 OA
ATOM     48  H   UNL     1      -6.992  -0.913 139.593  0.00  0.00    +0.000 HD
ENDBRANCH  44  47
ENDBRANCH  43  44
ENDBRANCH  42  43
ENDBRANCH  10  42
TORSDOF 10
ENDMDL
MODEL 7
REMARK VINA RESULT:      -8.4      6.644     10.447
REMARK  Name = Fosnetupitant
REMARK  15 active torsions:
REMARK  status: ('A' for Active; 'I' for Inactive)
REMARK    1  A    between atoms: C_1  and  N_2
REMARK    2  A    between atoms: N_2  and  C_22
REMARK    3  A    between atoms: C_3  and  C_5
REMARK    4  A    between atoms: C_5  and  C_6
REMARK    5  A    between atoms: C_5  and  C_7
REMARK    6  A    between atoms: C_5  and  C_8
REMARK    7  A    between atoms: C_10  and  C_18
REMARK    8  A    between atoms: C_12  and  C_14
REMARK    9  A    between atoms: C_27  and  C_28
REMARK   10  A    between atoms: C_33  and  C_34
REMARK   11  A    between atoms: N_38  and  C_39
REMARK   12  A    between atoms: N_38  and  C_40
REMARK   13  A    between atoms: C_40  and  O_41
REMARK   14  A    between atoms: O_41  and  P_42
REMARK   15  A    between atoms: P_42  and  O_43
REMARK                            x       y       z     vdW  Elec       q    Type
REMARK                         _______ _______ _______ _____ _____    ______ ____
ROOT
ATOM      1  C   UNL     1      -5.750   0.259 131.532  0.00  0.00    +0.000 A 
ATOM      2  C   UNL     1      -5.297  -1.049 131.304  0.00  0.00    +0.000 A 
ATOM      3  N   UNL     1      -5.592  -2.153 132.068  0.00  0.00    +0.000 NA
ATOM      4  C   UNL     1      -6.456  -2.023 133.086  0.00  0.00    +0.000 A 
ATOM      5  C   UNL     1      -6.979  -0.765 133.376  0.00  0.00    +0.000 A 
ATOM      6  C   UNL     1      -6.642   0.393 132.620  0.00  0.00    +0.000 A 
ATOM      7  N   UNL     1      -6.829  -3.150 133.790  0.00  0.00    +0.000 N 
ATOM      8  C   UNL     1      -8.218  -3.542 134.010  0.00  0.00    +0.000 C 
ATOM      9  C   UNL     1      -8.603  -3.384 135.508  0.00  0.00    +0.000 C 
ATOM     10  N   UNL     1      -7.621  -4.138 136.459  0.00  0.00    +0.000 N 
ATOM     11  C   UNL     1      -7.843  -5.645 136.418  0.00  0.00    +0.000 C 
ATOM     12  C   UNL     1      -6.144  -3.760 136.089  0.00  0.00    +0.000 C 
ATOM     13  C   UNL     1      -5.849  -3.916 134.564  0.00  0.00    +0.000 C 
ENDROOT
BRANCH   6  14
ATOM     14  C   UNL     1      -7.369   1.643 132.957  0.00  0.00    +0.000 A 
ATOM     15  C   UNL     1      -8.701   1.809 132.523  0.00  0.00    +0.000 A 
ATOM     16  C   UNL     1      -9.432   2.951 132.862  0.00  0.00    +0.000 A 
ATOM     17  C   UNL     1      -8.888   3.897 133.725  0.00  0.00    +0.000 A 
ATOM     18  C   UNL     1      -7.591   3.739 134.199  0.00  0.00    +0.000 A 
ATOM     19  C   UNL     1      -6.806   2.652 133.787  0.00  0.00    +0.000 A 
ATOM     20  C   UNL     1      -5.434   2.528 134.386  0.00  0.00    +0.000 C 
ENDBRANCH   6  14
BRANCH   1  22
ATOM     21  C   UNL     1      -4.178   2.144 131.030  0.00  0.00    +0.000 C 
ATOM     22  N   UNL     1      -5.364   1.366 130.646  0.00  0.00    +0.000 N 
ATOM     23  C   UNL     1      -6.281   1.788 129.657  0.00  0.00    +0.000 C 
ATOM     24  O   UNL     1      -7.345   1.150 129.488  0.00  0.00    +0.000 OA
BRANCH  23  25
ATOM     25  C   UNL     1      -6.043   3.138 128.850  0.00  0.00    +0.000 C 
ATOM     26  C   UNL     1      -4.570   3.227 128.353  0.00  0.00    +0.000 C 
ATOM     27  C   UNL     1      -7.068   3.253 127.708  0.00  0.00    +0.000 C 
BRANCH  25  28
ATOM     28  C   UNL     1      -6.301   4.396 129.739  0.00  0.00    +0.000 A 
ATOM     29  C   UNL     1      -5.271   5.042 130.448  0.00  0.00    +0.000 A 
ATOM     30  C   UNL     1      -5.534   6.066 131.363  0.00  0.00    +0.000 A 
ATOM     31  C   UNL     1      -6.831   6.568 131.460  0.00  0.00    +0.000 A 
ATOM     32  C   UNL     1      -7.873   5.981 130.736  0.00  0.00    +0.000 A 
ATOM     33  C   UNL     1      -7.598   4.911 129.876  0.00  0.00    +0.000 A 
BRANCH  32  34
ATOM     34  C   UNL     1      -9.287   6.443 130.956  0.00  0.00    +0.000 C 
ATOM     35  F   UNL     1      -9.553   7.601 130.291  0.00  0.00    +0.000 F 
ATOM     36  F   UNL     1     -10.197   5.534 130.513  0.00  0.00    +0.000 F 
ATOM     37  F   UNL     1      -9.592   6.679 132.261  0.00  0.00    +0.000 F 
ENDBRANCH  32  34
BRANCH  30  38
ATOM     38  C   UNL     1      -4.448   6.495 132.315  0.00  0.00    +0.000 C 
ATOM     39  F   UNL     1      -3.417   5.602 132.329  0.00  0.00    +0.000 F 
ATOM     40  F   UNL     1      -3.899   7.695 131.991  0.00  0.00    +0.000 F 
ATOM     41  F   UNL     1      -4.869   6.596 133.605  0.00  0.00    +0.000 F 
ENDBRANCH  30  38
ENDBRANCH  25  28
ENDBRANCH  23  25
ENDBRANCH   1  22
BRANCH  10  42
ATOM     42  C   UNL     1      -7.876  -3.759 137.941  0.00  0.00    +0.000 C 
BRANCH  42  43
ATOM     43  O   UNL     1      -9.192  -3.311 138.184  0.00  0.00    +0.000 OA
BRANCH  43  44
ATOM     44  P   UNL     1      -9.179  -1.864 139.132  0.00  0.00    +0.000 P 
ATOM     45  O   UNL     1     -10.435  -1.555 138.319  0.00  0.00    +0.000 OA
ATOM     46  O   UNL     1      -9.168  -0.568 139.981  0.00  0.00    +0.000 OA
BRANCH  44  47
ATOM     47  O   UNL     1      -7.873  -1.537 138.199  0.00  0.00    +0.000 OA
ATOM     48  H   UNL     1      -8.230  -1.190 137.362  0.00  0.00    +0.000 HD
ENDBRANCH  44  47
ENDBRANCH  43  44
ENDBRANCH  42  43
ENDBRANCH  10  42
TORSDOF 10
ENDMDL
MODEL 8
REMARK VINA RESULT:      -8.4      5.267      8.318
REMARK  Name = Fosnetupitant
REMARK  15 active torsions:
REMARK  status: ('A' for Active; 'I' for Inactive)
REMARK    1  A    between atoms: C_1  and  N_2
REMARK    2  A    between atoms: N_2  and  C_22
REMARK    3  A    between atoms: C_3  and  C_5
REMARK    4  A    between atoms: C_5  and  C_6
REMARK    5  A    between atoms: C_5  and  C_7
REMARK    6  A    between atoms: C_5  and  C_8
REMARK    7  A    between atoms: C_10  and  C_18
REMARK    8  A    between atoms: C_12  and  C_14
REMARK    9  A    between atoms: C_27  and  C_28
REMARK   10  A    between atoms: C_33  and  C_34
REMARK   11  A    between atoms: N_38  and  C_39
REMARK   12  A    between atoms: N_38  and  C_40
REMARK   13  A    between atoms: C_40  and  O_41
REMARK   14  A    between atoms: O_41  and  P_42
REMARK   15  A    between atoms: P_42  and  O_43
REMARK                            x       y       z     vdW  Elec       q    Type
REMARK                         _______ _______ _______ _____ _____    ______ ____
ROOT
ATOM      1  C   UNL     1      -6.406  -1.282 131.153  0.00  0.00    +0.000 A 
ATOM      2  C   UNL     1      -5.922  -2.596 131.229  0.00  0.00    +0.000 A 
ATOM      3  N   UNL     1      -6.080  -3.458 132.289  0.00  0.00    +0.000 NA
ATOM      4  C   UNL     1      -6.831  -3.070 133.331  0.00  0.00    +0.000 A 
ATOM      5  C   UNL     1      -7.375  -1.788 133.336  0.00  0.00    +0.000 A 
ATOM      6  C   UNL     1      -7.177  -0.872 132.264  0.00  0.00    +0.000 A 
ATOM      7  N   UNL     1      -7.072  -3.971 134.348  0.00  0.00    +0.000 N 
ATOM      8  C   UNL     1      -8.409  -4.308 134.828  0.00  0.00    +0.000 C 
ATOM      9  C   UNL     1      -8.633  -3.758 136.264  0.00  0.00    +0.000 C 
ATOM     10  N   UNL     1      -7.519  -4.214 137.258  0.00  0.00    +0.000 N 
ATOM     11  C   UNL     1      -7.675  -5.679 137.647  0.00  0.00    +0.000 C 
ATOM     12  C   UNL     1      -6.110  -3.929 136.629  0.00  0.00    +0.000 C 
ATOM     13  C   UNL     1      -5.978  -4.485 135.176  0.00  0.00    +0.000 C 
ENDROOT
BRANCH   6  14
ATOM     14  C   UNL     1      -7.919   0.412 132.340  0.00  0.00    +0.000 A 
ATOM     15  C   UNL     1      -9.221   0.494 131.805  0.00  0.00    +0.000 A 
ATOM     16  C   UNL     1      -9.966   1.672 131.901  0.00  0.00    +0.000 A 
ATOM     17  C   UNL     1      -9.472   2.754 132.622  0.00  0.00    +0.000 A 
ATOM     18  C   UNL     1      -8.207   2.687 133.193  0.00  0.00    +0.000 A 
ATOM     19  C   UNL     1      -7.402   1.551 133.020  0.00  0.00    +0.000 A 
ATOM     20  C   UNL     1      -6.070   1.539 133.712  0.00  0.00    +0.000 C 
ENDBRANCH   6  14
BRANCH   1  22
ATOM     21  C   UNL     1      -5.155   0.606 130.081  0.00  0.00    +0.000 C 
ATOM     22  N   UNL     1      -6.170  -0.449 129.965  0.00  0.00    +0.000 N 
ATOM     23  C   UNL     1      -7.096  -0.521 128.899  0.00  0.00    +0.000 C 
ATOM     24  O   UNL     1      -8.027  -1.358 128.943  0.00  0.00    +0.000 OA
BRANCH  23  25
ATOM     25  C   UNL     1      -7.052   0.537 127.712  0.00  0.00    +0.000 C 
ATOM     26  C   UNL     1      -7.852   1.819 128.090  0.00  0.00    +0.000 C 
ATOM     27  C   UNL     1      -5.592   0.835 127.329  0.00  0.00    +0.000 C 
BRANCH  25  28
ATOM     28  C   UNL     1      -7.694  -0.032 126.406  0.00  0.00    +0.000 A 
ATOM     29  C   UNL     1      -8.352   0.787 125.471  0.00  0.00    +0.000 A 
ATOM     30  C   UNL     1      -9.059   0.253 124.389  0.00  0.00    +0.000 A 
ATOM     31  C   UNL     1      -8.978  -1.116 124.140  0.00  0.00    +0.000 A 
ATOM     32  C   UNL     1      -8.294  -1.957 125.023  0.00  0.00    +0.000 A 
ATOM     33  C   UNL     1      -7.650  -1.408 126.139  0.00  0.00    +0.000 A 
BRANCH  32  34
ATOM     34  C   UNL     1      -8.333  -3.446 124.817  0.00  0.00    +0.000 C 
ATOM     35  F   UNL     1      -7.162  -3.920 124.310  0.00  0.00    +0.000 F 
ATOM     36  F   UNL     1      -8.542  -4.118 125.981  0.00  0.00    +0.000 F 
ATOM     37  F   UNL     1      -9.309  -3.858 123.962  0.00  0.00    +0.000 F 
ENDBRANCH  32  34
BRANCH  30  38
ATOM     38  C   UNL     1      -9.998   1.142 123.615  0.00  0.00    +0.000 C 
ATOM     39  F   UNL     1     -10.394   0.553 122.450  0.00  0.00    +0.000 F 
ATOM     40  F   UNL     1     -11.138   1.432 124.294  0.00  0.00    +0.000 F 
ATOM     41  F   UNL     1      -9.443   2.332 123.259  0.00  0.00    +0.000 F 
ENDBRANCH  30  38
ENDBRANCH  25  28
ENDBRANCH  23  25
ENDBRANCH   1  22
BRANCH  10  42
ATOM     42  C   UNL     1      -7.624  -3.452 138.605  0.00  0.00    +0.000 C 
BRANCH  42  43
ATOM     43  O   UNL     1      -8.955  -3.171 138.984  0.00  0.00    +0.000 OA
BRANCH  43  44
ATOM     44  P   UNL     1      -9.092  -1.548 139.568  0.00  0.00    +0.000 P 
ATOM     45  O   UNL     1     -10.117  -1.439 138.440  0.00  0.00    +0.000 OA
ATOM     46  O   UNL     1      -9.216  -0.095 140.091  0.00  0.00    +0.000 OA
BRANCH  44  47
ATOM     47  O   UNL     1      -7.596  -1.429 138.914  0.00  0.00    +0.000 OA
ATOM     48  H   UNL     1      -7.004  -1.210 139.655  0.00  0.00    +0.000 HD
ENDBRANCH  44  47
ENDBRANCH  43  44
ENDBRANCH  42  43
ENDBRANCH  10  42
TORSDOF 10
ENDMDL
MODEL 9
REMARK VINA RESULT:      -8.4      5.782      9.031
REMARK  Name = Fosnetupitant
REMARK  15 active torsions:
REMARK  status: ('A' for Active; 'I' for Inactive)
REMARK    1  A    between atoms: C_1  and  N_2
REMARK    2  A    between atoms: N_2  and  C_22
REMARK    3  A    between atoms: C_3  and  C_5
REMARK    4  A    between atoms: C_5  and  C_6
REMARK    5  A    between atoms: C_5  and  C_7
REMARK    6  A    between atoms: C_5  and  C_8
REMARK    7  A    between atoms: C_10  and  C_18
REMARK    8  A    between atoms: C_12  and  C_14
REMARK    9  A    between atoms: C_27  and  C_28
REMARK   10  A    between atoms: C_33  and  C_34
REMARK   11  A    between atoms: N_38  and  C_39
REMARK   12  A    between atoms: N_38  and  C_40
REMARK   13  A    between atoms: C_40  and  O_41
REMARK   14  A    between atoms: O_41  and  P_42
REMARK   15  A    between atoms: P_42  and  O_43
REMARK                            x       y       z     vdW  Elec       q    Type
REMARK                         _______ _______ _______ _____ _____    ______ ____
ROOT
ATOM      1  C   UNL     1      -6.471  -2.642 129.071  0.00  0.00    +0.000 A 
ATOM      2  C   UNL     1      -6.580  -3.958 129.545  0.00  0.00    +0.000 A 
ATOM      3  N   UNL     1      -6.145  -4.417 130.766  0.00  0.00    +0.000 NA
ATOM      4  C   UNL     1      -5.639  -3.538 131.645  0.00  0.00    +0.000 A 
ATOM      5  C   UNL     1      -5.513  -2.202 131.273  0.00  0.00    +0.000 A 
ATOM      6  C   UNL     1      -5.916  -1.726 129.993  0.00  0.00    +0.000 A 
ATOM      7  N   UNL     1      -5.296  -3.982 132.906  0.00  0.00    +0.000 N 
ATOM      8  C   UNL     1      -5.785  -3.370 134.138  0.00  0.00    +0.000 C 
ATOM      9  C   UNL     1      -4.632  -2.646 134.888  0.00  0.00    +0.000 C 
ATOM     10  N   UNL     1      -3.406  -3.579 135.140  0.00  0.00    +0.000 N 
ATOM     11  C   UNL     1      -3.682  -4.584 136.251  0.00  0.00    +0.000 C 
ATOM     12  C   UNL     1      -3.009  -4.292 133.800  0.00  0.00    +0.000 C 
ATOM     13  C   UNL     1      -4.228  -4.966 133.095  0.00  0.00    +0.000 C 
ENDROOT
BRANCH   6  14
ATOM     14  C   UNL     1      -5.845  -0.259 129.775  0.00  0.00    +0.000 A 
ATOM     15  C   UNL     1      -4.695   0.298 129.179  0.00  0.00    +0.000 A 
ATOM     16  C   UNL     1      -4.613   1.668 128.914  0.00  0.00    +0.000 A 
ATOM     17  C   UNL     1      -5.712   2.490 129.141  0.00  0.00    +0.000 A 
ATOM     18  C   UNL     1      -6.872   1.959 129.693  0.00  0.00    +0.000 A 
ATOM     19  C   UNL     1      -6.938   0.607 130.060  0.00  0.00    +0.000 A 
ATOM     20  C   UNL     1      -8.244   0.103 130.601  0.00  0.00    +0.000 C 
ENDBRANCH   6  14
BRANCH   1  22
ATOM     21  C   UNL     1      -8.427  -2.164 127.580  0.00  0.00    +0.000 C 
ATOM     22  N   UNL     1      -6.970  -2.267 127.740  0.00  0.00    +0.000 N 
ATOM     23  C   UNL     1      -6.070  -2.299 126.650  0.00  0.00    +0.000 C 
ATOM     24  O   UNL     1      -4.858  -2.539 126.856  0.00  0.00    +0.000 OA
BRANCH  23  25
ATOM     25  C   UNL     1      -6.598  -2.169 125.156  0.00  0.00    +0.000 C 
ATOM     26  C   UNL     1      -5.450  -2.452 124.142  0.00  0.00    +0.000 C 
ATOM     27  C   UNL     1      -7.818  -3.084 124.949  0.00  0.00    +0.000 C 
BRANCH  25  28
ATOM     28  C   UNL     1      -7.129  -0.731 124.853  0.00  0.00    +0.000 A 
ATOM     29  C   UNL     1      -8.357  -0.502 124.204  0.00  0.00    +0.000 A 
ATOM     30  C   UNL     1      -8.750   0.776 123.796  0.00  0.00    +0.000 A 
ATOM     31  C   UNL     1      -7.981   1.873 124.181  0.00  0.00    +0.000 A 
ATOM     32  C   UNL     1      -6.776   1.688 124.866  0.00  0.00    +0.000 A 
ATOM     33  C   UNL     1      -6.368   0.393 125.206  0.00  0.00    +0.000 A 
BRANCH  32  34
ATOM     34  C   UNL     1      -5.891   2.870 125.152  0.00  0.00    +0.000 C 
ATOM     35  F   UNL     1      -6.457   3.725 126.047  0.00  0.00    +0.000 F 
ATOM     36  F   UNL     1      -4.697   2.497 125.687  0.00  0.00    +0.000 F 
ATOM     37  F   UNL     1      -5.596   3.615 124.052  0.00  0.00    +0.000 F 
ENDBRANCH  32  34
BRANCH  30  38
ATOM     38  C   UNL     1      -9.904   0.918 122.837  0.00  0.00    +0.000 C 
ATOM     39  F   UNL     1     -10.147  -0.250 122.175  0.00  0.00    +0.000 F 
ATOM     40  F   UNL     1     -11.069   1.249 123.452  0.00  0.00    +0.000 F 
ATOM     41  F   UNL     1      -9.693   1.853 121.873  0.00  0.00    +0.000 F 
ENDBRANCH  30  38
ENDBRANCH  25  28
ENDBRANCH  23  25
ENDBRANCH   1  22
BRANCH  10  42
ATOM     42  C   UNL     1      -2.185  -2.772 135.654  0.00  0.00    +0.000 C 
BRANCH  42  43
ATOM     43  O   UNL     1      -0.956  -3.226 135.128  0.00  0.00    +0.000 OA
BRANCH  43  44
ATOM     44  P   UNL     1       0.189  -3.493 136.397  0.00  0.00    +0.000 P 
ATOM     45  O   UNL     1       0.369  -1.980 136.286  0.00  0.00    +0.000 OA
ATOM     46  O   UNL     1       1.214  -3.732 137.534  0.00  0.00    +0.000 OA
BRANCH  44  47
ATOM     47  O   UNL     1       1.028  -4.199 135.181  0.00  0.00    +0.000 OA
ATOM     48  H   UNL     1       0.582  -3.923 134.361  0.00  0.00    +0.000 HD
ENDBRANCH  44  47
ENDBRANCH  43  44
ENDBRANCH  42  43
ENDBRANCH  10  42
TORSDOF 10
ENDMDL
