MODEL 1
REMARK VINA RESULT:      -8.4      0.000      0.000
REMARK  Name = Fosphenytoin
REMARK  7 active torsions:
REMARK  status: ('A' for Active; 'I' for Inactive)
REMARK    1  A    between atoms: O_1  and  P_2
REMARK    2  A    between atoms: P_2  and  O_3
REMARK    3  A    between atoms: P_2  and  O_5
REMARK    4  A    between atoms: O_5  and  C_6
REMARK    5  A    between atoms: C_6  and  N_7
REMARK    6  A    between atoms: C_11  and  C_14
REMARK    7  A    between atoms: C_11  and  C_20
REMARK                            x       y       z     vdW  Elec       q    Type
REMARK                         _______ _______ _______ _____ _____    ______ ____
ROOT
ATOM      1  N   UNL     1     -10.425   6.586 130.450  0.00  0.00    +0.000 N 
ATOM      2  C   UNL     1     -11.207   6.231 131.497  0.00  0.00    +0.000 C 
ATOM      3  O   UNL     1     -12.351   6.608 131.741  0.00  0.00    +0.000 OA
ATOM      4  N   UNL     1     -10.545   5.313 132.263  0.00  0.00    +0.000 N 
ATOM      5  C   UNL     1      -9.230   5.007 131.746  0.00  0.00    +0.000 C 
ATOM      6  C   UNL     1      -9.262   5.878 130.451  0.00  0.00    +0.000 C 
ATOM      7  O   UNL     1      -8.412   5.911 129.568  0.00  0.00    +0.000 OA
ATOM      8  H   UNL     1     -10.948   4.942 133.110  0.00  0.00    +0.000 HD
ENDROOT
BRANCH   5   9
ATOM      9  C   UNL     1      -8.161   5.456 132.747  0.00  0.00    +0.000 A 
ATOM     10  C   UNL     1      -6.901   5.903 132.324  0.00  0.00    +0.000 A 
ATOM     11  C   UNL     1      -5.840   5.964 133.224  0.00  0.00    +0.000 A 
ATOM     12  C   UNL     1      -6.040   5.651 134.565  0.00  0.00    +0.000 A 
ATOM     13  C   UNL     1      -7.295   5.252 135.014  0.00  0.00    +0.000 A 
ATOM     14  C   UNL     1      -8.360   5.187 134.120  0.00  0.00    +0.000 A 
ENDBRANCH   5   9
BRANCH   5  15
ATOM     15  C   UNL     1      -9.096   3.526 131.347  0.00  0.00    +0.000 A 
ATOM     16  C   UNL     1      -9.842   2.516 131.989  0.00  0.00    +0.000 A 
ATOM     17  C   UNL     1      -9.604   1.169 131.771  0.00  0.00    +0.000 A 
ATOM     18  C   UNL     1      -8.644   0.792 130.849  0.00  0.00    +0.000 A 
ATOM     19  C   UNL     1      -7.911   1.764 130.168  0.00  0.00    +0.000 A 
ATOM     20  C   UNL     1      -8.136   3.121 130.406  0.00  0.00    +0.000 A 
ENDBRANCH   5  15
BRANCH   1  21
ATOM     21  C   UNL     1     -10.868   7.402 129.371  0.00  0.00    +0.000 C 
BRANCH  21  22
ATOM     22  O   UNL     1     -11.319   6.589 128.294  0.00  0.00    +0.000 OA
BRANCH  22  23
ATOM     23  P   UNL     1     -11.027   7.321 126.754  0.00  0.00    +0.000 P 
ATOM     24  O   UNL     1      -9.789   6.492 126.441  0.00  0.00    +0.000 OA
BRANCH  23  25
ATOM     25  O   UNL     1     -10.734   8.053 125.214  0.00  0.00    +0.000 OA
ATOM     26  H   UNL     1     -11.202   7.538 124.531  0.00  0.00    +0.000 HD
ENDBRANCH  23  25
BRANCH  23  27
ATOM     27  O   UNL     1     -12.349   6.632 126.120  0.00  0.00    +0.000 OA
ATOM     28  H   UNL     1     -12.153   6.356 125.206  0.00  0.00    +0.000 HD
ENDBRANCH  23  27
ENDBRANCH  22  23
ENDBRANCH  21  22
ENDBRANCH   1  21
TORSDOF 7
ENDMDL
MODEL 2
REMARK VINA RESULT:      -8.4      7.087      8.979
REMARK  Name = Fosphenytoin
REMARK  7 active torsions:
REMARK  status: ('A' for Active; 'I' for Inactive)
REMARK    1  A    between atoms: O_1  and  P_2
REMARK    2  A    between atoms: P_2  and  O_3
REMARK    3  A    between atoms: P_2  and  O_5
REMARK    4  A    between atoms: O_5  and  C_6
REMARK    5  A    between atoms: C_6  and  N_7
REMARK    6  A    between atoms: C_11  and  C_14
REMARK    7  A    between atoms: C_11  and  C_20
REMARK                            x       y       z     vdW  Elec       q    Type
REMARK                         _______ _______ _______ _____ _____    ______ ____
ROOT
ATOM      1  N   UNL     1      -8.376   0.964 125.091  0.00  0.00    +0.000 N 
ATOM      2  C   UNL     1      -7.201   1.199 125.721  0.00  0.00    +0.000 C 
ATOM      3  O   UNL     1      -6.690   2.287 125.974  0.00  0.00    +0.000 OA
ATOM      4  N   UNL     1      -6.650   0.008 126.104  0.00  0.00    +0.000 N 
ATOM      5  C   UNL     1      -7.460  -1.126 125.722  0.00  0.00    +0.000 C 
ATOM      6  C   UNL     1      -8.670  -0.366 125.092  0.00  0.00    +0.000 C 
ATOM      7  O   UNL     1      -9.717  -0.861 124.689  0.00  0.00    +0.000 OA
ATOM      8  H   UNL     1      -5.754  -0.034 126.566  0.00  0.00    +0.000 HD
ENDROOT
BRANCH   5   9
ATOM      9  C   UNL     1      -6.701  -1.991 124.712  0.00  0.00    +0.000 A 
ATOM     10  C   UNL     1      -5.735  -2.921 125.121  0.00  0.00    +0.000 A 
ATOM     11  C   UNL     1      -4.819  -3.430 124.206  0.00  0.00    +0.000 A 
ATOM     12  C   UNL     1      -4.900  -3.075 122.863  0.00  0.00    +0.000 A 
ATOM     13  C   UNL     1      -5.882  -2.191 122.428  0.00  0.00    +0.000 A 
ATOM     14  C   UNL     1      -6.800  -1.677 123.338  0.00  0.00    +0.000 A 
ENDBRANCH   5   9
BRANCH   5  15
ATOM     15  C   UNL     1      -7.954  -1.921 126.944  0.00  0.00    +0.000 A 
ATOM     16  C   UNL     1      -7.599  -1.554 128.259  0.00  0.00    +0.000 A 
ATOM     17  C   UNL     1      -7.881  -2.357 129.352  0.00  0.00    +0.000 A 
ATOM     18  C   UNL     1      -8.586  -3.532 129.165  0.00  0.00    +0.000 A 
ATOM     19  C   UNL     1      -8.986  -3.909 127.883  0.00  0.00    +0.000 A 
ATOM     20  C   UNL     1      -8.681  -3.111 126.779  0.00  0.00    +0.000 A 
ENDBRANCH   5  15
BRANCH   1  21
ATOM     21  C   UNL     1      -9.288   1.987 124.705  0.00  0.00    +0.000 C 
BRANCH  21  22
ATOM     22  O   UNL     1      -9.379   2.054 123.287  0.00  0.00    +0.000 OA
BRANCH  22  23
ATOM     23  P   UNL     1      -8.102   2.992 122.593  0.00  0.00    +0.000 P 
ATOM     24  O   UNL     1      -8.937   3.530 121.439  0.00  0.00    +0.000 OA
BRANCH  23  25
ATOM     25  O   UNL     1      -6.825   3.930 121.899  0.00  0.00    +0.000 OA
ATOM     26  H   UNL     1      -6.367   3.387 121.231  0.00  0.00    +0.000 HD
ENDBRANCH  23  25
BRANCH  23  27
ATOM     27  O   UNL     1      -8.119   4.028 123.839  0.00  0.00    +0.000 OA
ATOM     28  H   UNL     1      -8.338   3.539 124.653  0.00  0.00    +0.000 HD
ENDBRANCH  23  27
ENDBRANCH  22  23
ENDBRANCH  21  22
ENDBRANCH   1  21
TORSDOF 7
ENDMDL
MODEL 3
REMARK VINA RESULT:      -8.4      6.956      8.890
REMARK  Name = Fosphenytoin
REMARK  7 active torsions:
REMARK  status: ('A' for Active; 'I' for Inactive)
REMARK    1  A    between atoms: O_1  and  P_2
REMARK    2  A    between atoms: P_2  and  O_3
REMARK    3  A    between atoms: P_2  and  O_5
REMARK    4  A    between atoms: O_5  and  C_6
REMARK    5  A    between atoms: C_6  and  N_7
REMARK    6  A    between atoms: C_11  and  C_14
REMARK    7  A    between atoms: C_11  and  C_20
REMARK                            x       y       z     vdW  Elec       q    Type
REMARK                         _______ _______ _______ _____ _____    ______ ____
ROOT
ATOM      1  N   UNL     1      -8.667   0.819 124.317  0.00  0.00    +0.000 N 
ATOM      2  C   UNL     1      -9.459  -0.120 123.747  0.00  0.00    +0.000 C 
ATOM      3  O   UNL     1     -10.398   0.059 122.975  0.00  0.00    +0.000 OA
ATOM      4  N   UNL     1      -9.026  -1.361 124.121  0.00  0.00    +0.000 N 
ATOM      5  C   UNL     1      -7.884  -1.306 125.005  0.00  0.00    +0.000 C 
ATOM      6  C   UNL     1      -7.659   0.239 125.025  0.00  0.00    +0.000 C 
ATOM      7  O   UNL     1      -6.731   0.837 125.558  0.00  0.00    +0.000 OA
ATOM      8  H   UNL     1      -9.504  -2.199 123.824  0.00  0.00    +0.000 HD
ENDROOT
BRANCH   5   9
ATOM      9  C   UNL     1      -8.257  -1.879 126.375  0.00  0.00    +0.000 A 
ATOM     10  C   UNL     1      -7.707  -1.368 127.559  0.00  0.00    +0.000 A 
ATOM     11  C   UNL     1      -7.770  -2.106 128.738  0.00  0.00    +0.000 A 
ATOM     12  C   UNL     1      -8.443  -3.324 128.766  0.00  0.00    +0.000 A 
ATOM     13  C   UNL     1      -9.039  -3.825 127.612  0.00  0.00    +0.000 A 
ATOM     14  C   UNL     1      -8.978  -3.093 126.431  0.00  0.00    +0.000 A 
ENDBRANCH   5   9
BRANCH   5  15
ATOM     15  C   UNL     1      -6.644  -1.981 124.389  0.00  0.00    +0.000 A 
ATOM     16  C   UNL     1      -6.344  -1.865 123.015  0.00  0.00    +0.000 A 
ATOM     17  C   UNL     1      -5.342  -2.609 122.413  0.00  0.00    +0.000 A 
ATOM     18  C   UNL     1      -4.566  -3.452 123.187  0.00  0.00    +0.000 A 
ATOM     19  C   UNL     1      -4.810  -3.564 124.556  0.00  0.00    +0.000 A 
ATOM     20  C   UNL     1      -5.835  -2.832 125.158  0.00  0.00    +0.000 A 
ENDBRANCH   5  15
BRANCH   1  21
ATOM     21  C   UNL     1      -8.737   2.207 124.012  0.00  0.00    +0.000 C 
BRANCH  21  22
ATOM     22  O   UNL     1      -8.940   2.962 125.200  0.00  0.00    +0.000 OA
BRANCH  22  23
ATOM     23  P   UNL     1      -7.885   4.329 125.296  0.00  0.00    +0.000 P 
ATOM     24  O   UNL     1      -8.934   5.273 125.870  0.00  0.00    +0.000 OA
BRANCH  23  25
ATOM     25  O   UNL     1      -6.831   5.697 125.391  0.00  0.00    +0.000 OA
ATOM     26  H   UNL     1      -7.233   6.436 124.897  0.00  0.00    +0.000 HD
ENDBRANCH  23  25
BRANCH  23  27
ATOM     27  O   UNL     1      -7.024   3.644 126.485  0.00  0.00    +0.000 OA
ATOM     28  H   UNL     1      -6.898   4.296 127.199  0.00  0.00    +0.000 HD
ENDBRANCH  23  27
ENDBRANCH  22  23
ENDBRANCH  21  22
ENDBRANCH   1  21
TORSDOF 7
ENDMDL
MODEL 4
REMARK VINA RESULT:      -8.2      5.885      8.398
REMARK  Name = Fosphenytoin
REMARK  7 active torsions:
REMARK  status: ('A' for Active; 'I' for Inactive)
REMARK    1  A    between atoms: O_1  and  P_2
REMARK    2  A    between atoms: P_2  and  O_3
REMARK    3  A    between atoms: P_2  and  O_5
REMARK    4  A    between atoms: O_5  and  C_6
REMARK    5  A    between atoms: C_6  and  N_7
REMARK    6  A    between atoms: C_11  and  C_14
REMARK    7  A    between atoms: C_11  and  C_20
REMARK                            x       y       z     vdW  Elec       q    Type
REMARK                         _______ _______ _______ _____ _____    ______ ____
ROOT
ATOM      1  N   UNL     1      -7.416   1.154 126.674  0.00  0.00    +0.000 N 
ATOM      2  C   UNL     1      -8.568   0.862 126.024  0.00  0.00    +0.000 C 
ATOM      3  O   UNL     1      -9.487   1.628 125.744  0.00  0.00    +0.000 OA
ATOM      4  N   UNL     1      -8.555  -0.454 125.656  0.00  0.00    +0.000 N 
ATOM      5  C   UNL     1      -7.348  -1.133 126.069  0.00  0.00    +0.000 C 
ATOM      6  C   UNL     1      -6.587   0.075 126.701  0.00  0.00    +0.000 C 
ATOM      7  O   UNL     1      -5.437   0.075 127.127  0.00  0.00    +0.000 OA
ATOM      8  H   UNL     1      -9.339  -0.878 125.183  0.00  0.00    +0.000 HD
ENDROOT
BRANCH   5   9
ATOM      9  C   UNL     1      -7.688  -2.227 127.085  0.00  0.00    +0.000 A 
ATOM     10  C   UNL     1      -8.594  -3.254 126.782  0.00  0.00    +0.000 A 
ATOM     11  C   UNL     1      -9.157  -4.016 127.801  0.00  0.00    +0.000 A 
ATOM     12  C   UNL     1      -8.772  -3.812 129.123  0.00  0.00    +0.000 A 
ATOM     13  C   UNL     1      -7.838  -2.830 129.439  0.00  0.00    +0.000 A 
ATOM     14  C   UNL     1      -7.272  -2.064 128.425  0.00  0.00    +0.000 A 
ENDBRANCH   5   9
BRANCH   5  15
ATOM     15  C   UNL     1      -6.539  -1.658 124.869  0.00  0.00    +0.000 A 
ATOM     16  C   UNL     1      -6.824  -1.249 123.549  0.00  0.00    +0.000 A 
ATOM     17  C   UNL     1      -6.232  -1.844 122.447  0.00  0.00    +0.000 A 
ATOM     18  C   UNL     1      -5.284  -2.832 122.639  0.00  0.00    +0.000 A 
ATOM     19  C   UNL     1      -4.950  -3.237 123.931  0.00  0.00    +0.000 A 
ATOM     20  C   UNL     1      -5.564  -2.652 125.040  0.00  0.00    +0.000 A 
ENDBRANCH   5  15
BRANCH   1  21
ATOM     21  C   UNL     1      -7.032   2.471 127.053  0.00  0.00    +0.000 C 
BRANCH  21  22
ATOM     22  O   UNL     1      -6.692   3.235 125.902  0.00  0.00    +0.000 OA
BRANCH  22  23
ATOM     23  P   UNL     1      -7.709   4.622 125.713  0.00  0.00    +0.000 P 
ATOM     24  O   UNL     1      -6.573   5.581 125.381  0.00  0.00    +0.000 OA
BRANCH  23  25
ATOM     25  O   UNL     1      -8.725   6.009 125.525  0.00  0.00    +0.000 OA
ATOM     26  H   UNL     1      -9.324   6.063 126.292  0.00  0.00    +0.000 HD
ENDBRANCH  23  25
BRANCH  23  27
ATOM     27  O   UNL     1      -8.361   4.021 124.358  0.00  0.00    +0.000 OA
ATOM     28  H   UNL     1      -9.210   4.470 124.190  0.00  0.00    +0.000 HD
ENDBRANCH  23  27
ENDBRANCH  22  23
ENDBRANCH  21  22
ENDBRANCH   1  21
TORSDOF 7
ENDMDL
MODEL 5
REMARK VINA RESULT:      -8.1      6.920      8.700
REMARK  Name = Fosphenytoin
REMARK  7 active torsions:
REMARK  status: ('A' for Active; 'I' for Inactive)
REMARK    1  A    between atoms: O_1  and  P_2
REMARK    2  A    between atoms: P_2  and  O_3
REMARK    3  A    between atoms: P_2  and  O_5
REMARK    4  A    between atoms: O_5  and  C_6
REMARK    5  A    between atoms: C_6  and  N_7
REMARK    6  A    between atoms: C_11  and  C_14
REMARK    7  A    between atoms: C_11  and  C_20
REMARK                            x       y       z     vdW  Elec       q    Type
REMARK                         _______ _______ _______ _____ _____    ______ ____
ROOT
ATOM      1  N   UNL     1      -7.965   1.319 125.549  0.00  0.00    +0.000 N 
ATOM      2  C   UNL     1      -9.054   0.805 124.931  0.00  0.00    +0.000 C 
ATOM      3  O   UNL     1      -9.966   1.420 124.383  0.00  0.00    +0.000 OA
ATOM      4  N   UNL     1      -8.981  -0.560 124.952  0.00  0.00    +0.000 N 
ATOM      5  C   UNL     1      -7.795  -1.041 125.623  0.00  0.00    +0.000 C 
ATOM      6  C   UNL     1      -7.115   0.329 125.938  0.00  0.00    +0.000 C 
ATOM      7  O   UNL     1      -6.002   0.500 126.425  0.00  0.00    +0.000 OA
ATOM      8  H   UNL     1      -9.716  -1.134 124.565  0.00  0.00    +0.000 HD
ENDROOT
BRANCH   5   9
ATOM      9  C   UNL     1      -8.189  -1.821 126.881  0.00  0.00    +0.000 A 
ATOM     10  C   UNL     1      -7.665  -1.496 128.140  0.00  0.00    +0.000 A 
ATOM     11  C   UNL     1      -7.744  -2.408 129.189  0.00  0.00    +0.000 A 
ATOM     12  C   UNL     1      -8.407  -3.619 129.015  0.00  0.00    +0.000 A 
ATOM     13  C   UNL     1      -8.975  -3.939 127.787  0.00  0.00    +0.000 A 
ATOM     14  C   UNL     1      -8.899  -3.033 126.734  0.00  0.00    +0.000 A 
ENDBRANCH   5   9
BRANCH   5  15
ATOM     15  C   UNL     1      -6.882  -1.844 124.679  0.00  0.00    +0.000 A 
ATOM     16  C   UNL     1      -5.934  -2.765 125.172  0.00  0.00    +0.000 A 
ATOM     17  C   UNL     1      -4.986  -3.359 124.354  0.00  0.00    +0.000 A 
ATOM     18  C   UNL     1      -5.000  -3.092 122.998  0.00  0.00    +0.000 A 
ATOM     19  C   UNL     1      -5.947  -2.215 122.468  0.00  0.00    +0.000 A 
ATOM     20  C   UNL     1      -6.887  -1.599 123.297  0.00  0.00    +0.000 A 
ENDBRANCH   5  15
BRANCH   1  21
ATOM     21  C   UNL     1      -7.643   2.705 125.566  0.00  0.00    +0.000 C 
BRANCH  21  22
ATOM     22  O   UNL     1      -6.436   2.938 124.850  0.00  0.00    +0.000 OA
BRANCH  22  23
ATOM     23  P   UNL     1      -6.729   3.439 123.220  0.00  0.00    +0.000 P 
ATOM     24  O   UNL     1      -6.687   2.034 122.635  0.00  0.00    +0.000 OA
BRANCH  23  25
ATOM     25  O   UNL     1      -7.021   3.940 121.591  0.00  0.00    +0.000 OA
ATOM     26  H   UNL     1      -7.947   4.238 121.518  0.00  0.00    +0.000 HD
ENDBRANCH  23  25
BRANCH  23  27
ATOM     27  O   UNL     1      -8.252   3.864 123.572  0.00  0.00    +0.000 OA
ATOM     28  H   UNL     1      -8.239   4.508 124.304  0.00  0.00    +0.000 HD
ENDBRANCH  23  27
ENDBRANCH  22  23
ENDBRANCH  21  22
ENDBRANCH   1  21
TORSDOF 7
ENDMDL
MODEL 6
REMARK VINA RESULT:      -8.0      2.527      4.702
REMARK  Name = Fosphenytoin
REMARK  7 active torsions:
REMARK  status: ('A' for Active; 'I' for Inactive)
REMARK    1  A    between atoms: O_1  and  P_2
REMARK    2  A    between atoms: P_2  and  O_3
REMARK    3  A    between atoms: P_2  and  O_5
REMARK    4  A    between atoms: O_5  and  C_6
REMARK    5  A    between atoms: C_6  and  N_7
REMARK    6  A    between atoms: C_11  and  C_14
REMARK    7  A    between atoms: C_11  and  C_20
REMARK                            x       y       z     vdW  Elec       q    Type
REMARK                         _______ _______ _______ _____ _____    ______ ____
ROOT
ATOM      1  N   UNL     1      -7.943   4.209 129.008  0.00  0.00    +0.000 N 
ATOM      2  C   UNL     1      -9.002   3.384 129.189  0.00  0.00    +0.000 C 
ATOM      3  O   UNL     1      -9.268   2.358 128.568  0.00  0.00    +0.000 OA
ATOM      4  N   UNL     1      -9.750   3.836 130.240  0.00  0.00    +0.000 N 
ATOM      5  C   UNL     1      -9.208   5.041 130.827  0.00  0.00    +0.000 C 
ATOM      6  C   UNL     1      -7.920   5.184 129.958  0.00  0.00    +0.000 C 
ATOM      7  O   UNL     1      -7.022   6.006 130.108  0.00  0.00    +0.000 OA
ATOM      8  H   UNL     1     -10.602   3.373 130.519  0.00  0.00    +0.000 HD
ENDROOT
BRANCH   5   9
ATOM      9  C   UNL     1     -10.193   6.198 130.639  0.00  0.00    +0.000 A 
ATOM     10  C   UNL     1     -11.422   6.234 131.313  0.00  0.00    +0.000 A 
ATOM     11  C   UNL     1     -12.437   7.080 130.876  0.00  0.00    +0.000 A 
ATOM     12  C   UNL     1     -12.215   7.949 129.812  0.00  0.00    +0.000 A 
ATOM     13  C   UNL     1     -10.986   7.963 129.161  0.00  0.00    +0.000 A 
ATOM     14  C   UNL     1      -9.967   7.119 129.592  0.00  0.00    +0.000 A 
ENDBRANCH   5   9
BRANCH   5  15
ATOM     15  C   UNL     1      -8.798   4.833 132.296  0.00  0.00    +0.000 A 
ATOM     16  C   UNL     1      -8.477   5.921 133.136  0.00  0.00    +0.000 A 
ATOM     17  C   UNL     1      -7.934   5.744 134.398  0.00  0.00    +0.000 A 
ATOM     18  C   UNL     1      -7.752   4.462 134.884  0.00  0.00    +0.000 A 
ATOM     19  C   UNL     1      -8.093   3.363 134.096  0.00  0.00    +0.000 A 
ATOM     20  C   UNL     1      -8.618   3.542 132.815  0.00  0.00    +0.000 A 
ENDBRANCH   5  15
BRANCH   1  21
ATOM     21  C   UNL     1      -6.877   3.944 128.103  0.00  0.00    +0.000 C 
BRANCH  21  22
ATOM     22  O   UNL     1      -6.825   4.949 127.098  0.00  0.00    +0.000 OA
BRANCH  22  23
ATOM     23  P   UNL     1      -7.573   4.439 125.623  0.00  0.00    +0.000 P 
ATOM     24  O   UNL     1      -8.908   5.114 125.906  0.00  0.00    +0.000 OA
BRANCH  23  25
ATOM     25  O   UNL     1      -8.322   3.929 124.149  0.00  0.00    +0.000 OA
ATOM     26  H   UNL     1      -8.207   4.632 123.483  0.00  0.00    +0.000 HD
ENDBRANCH  23  25
BRANCH  23  27
ATOM     27  O   UNL     1      -6.619   5.411 124.746  0.00  0.00    +0.000 OA
ATOM     28  H   UNL     1      -6.216   4.891 124.026  0.00  0.00    +0.000 HD
ENDBRANCH  23  27
ENDBRANCH  22  23
ENDBRANCH  21  22
ENDBRANCH   1  21
TORSDOF 7
ENDMDL
MODEL 7
REMARK VINA RESULT:      -7.8      6.320      8.801
REMARK  Name = Fosphenytoin
REMARK  7 active torsions:
REMARK  status: ('A' for Active; 'I' for Inactive)
REMARK    1  A    between atoms: O_1  and  P_2
REMARK    2  A    between atoms: P_2  and  O_3
REMARK    3  A    between atoms: P_2  and  O_5
REMARK    4  A    between atoms: O_5  and  C_6
REMARK    5  A    between atoms: C_6  and  N_7
REMARK    6  A    between atoms: C_11  and  C_14
REMARK    7  A    between atoms: C_11  and  C_20
REMARK                            x       y       z     vdW  Elec       q    Type
REMARK                         _______ _______ _______ _____ _____    ______ ____
ROOT
ATOM      1  N   UNL     1      -6.830   1.725 126.610  0.00  0.00    +0.000 N 
ATOM      2  C   UNL     1      -7.979   1.694 125.896  0.00  0.00    +0.000 C 
ATOM      3  O   UNL     1      -8.674   2.646 125.549  0.00  0.00    +0.000 OA
ATOM      4  N   UNL     1      -8.258   0.401 125.549  0.00  0.00    +0.000 N 
ATOM      5  C   UNL     1      -7.271  -0.531 126.046  0.00  0.00    +0.000 C 
ATOM      6  C   UNL     1      -6.283   0.482 126.705  0.00  0.00    +0.000 C 
ATOM      7  O   UNL     1      -5.191   0.224 127.200  0.00  0.00    +0.000 OA
ATOM      8  H   UNL     1      -9.093   0.161 125.035  0.00  0.00    +0.000 HD
ENDROOT
BRANCH   5   9
ATOM      9  C   UNL     1      -7.918  -1.484 127.055  0.00  0.00    +0.000 A 
ATOM     10  C   UNL     1      -7.593  -1.441 128.418  0.00  0.00    +0.000 A 
ATOM     11  C   UNL     1      -7.903  -2.515 129.247  0.00  0.00    +0.000 A 
ATOM     12  C   UNL     1      -8.602  -3.609 128.745  0.00  0.00    +0.000 A 
ATOM     13  C   UNL     1      -8.976  -3.648 127.405  0.00  0.00    +0.000 A 
ATOM     14  C   UNL     1      -8.668  -2.578 126.571  0.00  0.00    +0.000 A 
ENDBRANCH   5   9
BRANCH   5  15
ATOM     15  C   UNL     1      -6.544  -1.266 124.905  0.00  0.00    +0.000 A 
ATOM     16  C   UNL     1      -6.835  -1.001 123.550  0.00  0.00    +0.000 A 
ATOM     17  C   UNL     1      -6.326  -1.775 122.520  0.00  0.00    +0.000 A 
ATOM     18  C   UNL     1      -5.455  -2.808 122.817  0.00  0.00    +0.000 A 
ATOM     19  C   UNL     1      -5.116  -3.076 124.143  0.00  0.00    +0.000 A 
ATOM     20  C   UNL     1      -5.647  -2.309 125.181  0.00  0.00    +0.000 A 
ENDBRANCH   5  15
BRANCH   1  21
ATOM     21  C   UNL     1      -6.167   2.925 126.993  0.00  0.00    +0.000 C 
BRANCH  21  22
ATOM     22  O   UNL     1      -5.272   3.340 125.968  0.00  0.00    +0.000 OA
BRANCH  22  23
ATOM     23  P   UNL     1      -3.717   3.772 126.592  0.00  0.00    +0.000 P 
ATOM     24  O   UNL     1      -4.217   4.100 127.992  0.00  0.00    +0.000 OA
BRANCH  23  25
ATOM     25  O   UNL     1      -2.163   4.205 127.215  0.00  0.00    +0.000 OA
ATOM     26  H   UNL     1      -1.677   4.695 126.527  0.00  0.00    +0.000 HD
ENDBRANCH  23  25
BRANCH  23  27
ATOM     27  O   UNL     1      -3.205   2.237 126.515  0.00  0.00    +0.000 OA
ATOM     28  H   UNL     1      -3.864   1.663 126.945  0.00  0.00    +0.000 HD
ENDBRANCH  23  27
ENDBRANCH  22  23
ENDBRANCH  21  22
ENDBRANCH   1  21
TORSDOF 7
ENDMDL
MODEL 8
REMARK VINA RESULT:      -7.8      5.849      8.520
REMARK  Name = Fosphenytoin
REMARK  7 active torsions:
REMARK  status: ('A' for Active; 'I' for Inactive)
REMARK    1  A    between atoms: O_1  and  P_2
REMARK    2  A    between atoms: P_2  and  O_3
REMARK    3  A    between atoms: P_2  and  O_5
REMARK    4  A    between atoms: O_5  and  C_6
REMARK    5  A    between atoms: C_6  and  N_7
REMARK    6  A    between atoms: C_11  and  C_14
REMARK    7  A    between atoms: C_11  and  C_20
REMARK                            x       y       z     vdW  Elec       q    Type
REMARK                         _______ _______ _______ _____ _____    ______ ____
ROOT
ATOM      1  N   UNL     1      -6.701   1.536 127.018  0.00  0.00    +0.000 N 
ATOM      2  C   UNL     1      -5.554   1.036 127.536  0.00  0.00    +0.000 C 
ATOM      3  O   UNL     1      -4.710   1.631 128.201  0.00  0.00    +0.000 OA
ATOM      4  N   UNL     1      -5.475  -0.298 127.250  0.00  0.00    +0.000 N 
ATOM      5  C   UNL     1      -6.608  -0.769 126.486  0.00  0.00    +0.000 C 
ATOM      6  C   UNL     1      -7.440   0.551 126.436  0.00  0.00    +0.000 C 
ATOM      7  O   UNL     1      -8.571   0.688 125.980  0.00  0.00    +0.000 OA
ATOM      8  H   UNL     1      -4.677  -0.850 127.525  0.00  0.00    +0.000 HD
ENDROOT
BRANCH   5   9
ATOM      9  C   UNL     1      -6.145  -1.242 125.106  0.00  0.00    +0.000 A 
ATOM     10  C   UNL     1      -6.707  -0.730 123.927  0.00  0.00    +0.000 A 
ATOM     11  C   UNL     1      -6.543  -1.405 122.721  0.00  0.00    +0.000 A 
ATOM     12  C   UNL     1      -5.758  -2.553 122.662  0.00  0.00    +0.000 A 
ATOM     13  C   UNL     1      -5.151  -3.049 123.812  0.00  0.00    +0.000 A 
ATOM     14  C   UNL     1      -5.313  -2.381 125.021  0.00  0.00    +0.000 A 
ENDBRANCH   5   9
BRANCH   5  15
ATOM     15  C   UNL     1      -7.415  -1.837 127.248  0.00  0.00    +0.000 A 
ATOM     16  C   UNL     1      -7.146  -2.144 128.598  0.00  0.00    +0.000 A 
ATOM     17  C   UNL     1      -7.735  -3.220 129.242  0.00  0.00    +0.000 A 
ATOM     18  C   UNL     1      -8.663  -3.990 128.565  0.00  0.00    +0.000 A 
ATOM     19  C   UNL     1      -8.981  -3.693 127.239  0.00  0.00    +0.000 A 
ATOM     20  C   UNL     1      -8.371  -2.622 126.584  0.00  0.00    +0.000 A 
ENDBRANCH   5  15
BRANCH   1  21
ATOM     21  C   UNL     1      -7.176   2.854 127.266  0.00  0.00    +0.000 C 
BRANCH  21  22
ATOM     22  O   UNL     1      -6.548   3.777 126.384  0.00  0.00    +0.000 OA
BRANCH  22  23
ATOM     23  P   UNL     1      -7.327   3.841 124.841  0.00  0.00    +0.000 P 
ATOM     24  O   UNL     1      -8.683   4.264 125.389  0.00  0.00    +0.000 OA
BRANCH  23  25
ATOM     25  O   UNL     1      -8.107   3.905 123.298  0.00  0.00    +0.000 OA
ATOM     26  H   UNL     1      -7.538   3.460 122.644  0.00  0.00    +0.000 HD
ENDBRANCH  23  25
BRANCH  23  27
ATOM     27  O   UNL     1      -6.461   5.138 124.403  0.00  0.00    +0.000 OA
ATOM     28  H   UNL     1      -5.809   5.334 125.101  0.00  0.00    +0.000 HD
ENDBRANCH  23  27
ENDBRANCH  22  23
ENDBRANCH  21  22
ENDBRANCH   1  21
TORSDOF 7
ENDMDL
MODEL 9
REMARK VINA RESULT:      -7.6      5.774      8.361
REMARK  Name = Fosphenytoin
REMARK  7 active torsions:
REMARK  status: ('A' for Active; 'I' for Inactive)
REMARK    1  A    between atoms: O_1  and  P_2
REMARK    2  A    between atoms: P_2  and  O_3
REMARK    3  A    between atoms: P_2  and  O_5
REMARK    4  A    between atoms: O_5  and  C_6
REMARK    5  A    between atoms: C_6  and  N_7
REMARK    6  A    between atoms: C_11  and  C_14
REMARK    7  A    between atoms: C_11  and  C_20
REMARK                            x       y       z     vdW  Elec       q    Type
REMARK                         _______ _______ _______ _____ _____    ______ ____
ROOT
ATOM      1  N   UNL     1      -7.205   1.640 126.412  0.00  0.00    +0.000 N 
ATOM      2  C   UNL     1      -8.322   1.477 125.664  0.00  0.00    +0.000 C 
ATOM      3  O   UNL     1      -9.084   2.348 125.255  0.00  0.00    +0.000 OA
ATOM      4  N   UNL     1      -8.473   0.151 125.366  0.00  0.00    +0.000 N 
ATOM      5  C   UNL     1      -7.427  -0.668 125.934  0.00  0.00    +0.000 C 
ATOM      6  C   UNL     1      -6.554   0.455 126.578  0.00  0.00    +0.000 C 
ATOM      7  O   UNL     1      -5.462   0.316 127.119  0.00  0.00    +0.000 OA
ATOM      8  H   UNL     1      -9.265  -0.184 124.837  0.00  0.00    +0.000 HD
ENDROOT
BRANCH   5   9
ATOM      9  C   UNL     1      -8.022  -1.633 126.963  0.00  0.00    +0.000 A 
ATOM     10  C   UNL     1      -7.628  -1.607 128.308  0.00  0.00    +0.000 A 
ATOM     11  C   UNL     1      -7.896  -2.691 129.139  0.00  0.00    +0.000 A 
ATOM     12  C   UNL     1      -8.620  -3.778 128.660  0.00  0.00    +0.000 A 
ATOM     13  C   UNL     1      -9.063  -3.801 127.341  0.00  0.00    +0.000 A 
ATOM     14  C   UNL     1      -8.797  -2.721 126.504  0.00  0.00    +0.000 A 
ENDBRANCH   5   9
BRANCH   5  15
ATOM     15  C   UNL     1      -6.598  -1.381 124.850  0.00  0.00    +0.000 A 
ATOM     16  C   UNL     1      -6.804  -1.130 123.476  0.00  0.00    +0.000 A 
ATOM     17  C   UNL     1      -6.199  -1.890 122.488  0.00  0.00    +0.000 A 
ATOM     18  C   UNL     1      -5.317  -2.891 122.849  0.00  0.00    +0.000 A 
ATOM     19  C   UNL     1      -5.060  -3.144 124.197  0.00  0.00    +0.000 A 
ATOM     20  C   UNL     1      -5.688  -2.393 125.192  0.00  0.00    +0.000 A 
ENDBRANCH   5  15
BRANCH   1  21
ATOM     21  C   UNL     1      -6.664   2.909 126.763  0.00  0.00    +0.000 C 
BRANCH  21  22
ATOM     22  O   UNL     1      -6.887   3.174 128.142  0.00  0.00    +0.000 OA
BRANCH  22  23
ATOM     23  P   UNL     1      -8.086   4.397 128.387  0.00  0.00    +0.000 P 
ATOM     24  O   UNL     1      -9.058   3.491 129.130  0.00  0.00    +0.000 OA
BRANCH  23  25
ATOM     25  O   UNL     1      -9.285   5.621 128.632  0.00  0.00    +0.000 OA
ATOM     26  H   UNL     1     -10.054   5.420 128.068  0.00  0.00    +0.000 HD
ENDBRANCH  23  25
BRANCH  23  27
ATOM     27  O   UNL     1      -7.135   5.190 129.433  0.00  0.00    +0.000 OA
ATOM     28  H   UNL     1      -6.285   5.390 128.998  0.00  0.00    +0.000 HD
ENDBRANCH  23  27
ENDBRANCH  22  23
ENDBRANCH  21  22
ENDBRANCH   1  21
TORSDOF 7
ENDMDL
