MODEL 1
REMARK VINA RESULT:      -6.0      0.000      0.000
REMARK  Name = Fospropofol
REMARK  12 active torsions:
REMARK  status: ('A' for Active; 'I' for Inactive)
REMARK    1  A    between atoms: C_1  and  C_2
REMARK    2  A    between atoms: C_2  and  C_3
REMARK    3  A    between atoms: C_2  and  C_4
REMARK    4  A    between atoms: C_8  and  C_9
REMARK    5  A    between atoms: C_9  and  C_10
REMARK    6  A    between atoms: C_9  and  C_11
REMARK    7  A    between atoms: C_12  and  O_13
REMARK    8  A    between atoms: O_13  and  C_14
REMARK    9  A    between atoms: C_14  and  O_15
REMARK   10  A    between atoms: O_15  and  P_16
REMARK   11  A    between atoms: P_16  and  O_17
REMARK   12  A    between atoms: P_16  and  O_18
REMARK                            x       y       z     vdW  Elec       q    Type
REMARK                         _______ _______ _______ _____ _____    ______ ____
ROOT
ATOM      1  C   UNL     1      -8.177  -2.924 126.701  0.00  0.00    +0.000 A 
ATOM      2  C   UNL     1      -9.311  -3.303 125.923  0.00  0.00    +0.000 A 
ATOM      3  C   UNL     1      -9.259  -3.440 124.541  0.00  0.00    +0.000 A 
ATOM      4  C   UNL     1      -8.085  -3.126 123.877  0.00  0.00    +0.000 A 
ATOM      5  C   UNL     1      -6.935  -2.702 124.584  0.00  0.00    +0.000 A 
ATOM      6  C   UNL     1      -6.968  -2.614 126.011  0.00  0.00    +0.000 A 
ENDROOT
BRANCH   1   8
ATOM      7  C   UNL     1      -9.548  -4.135 128.364  0.00  0.00    +0.000 C 
ATOM      8  C   UNL     1      -8.422  -3.104 128.209  0.00  0.00    +0.000 C 
ATOM      9  C   UNL     1      -7.234  -3.476 129.073  0.00  0.00    +0.000 C 
ENDBRANCH   1   8
BRANCH   5  10
ATOM     10  C   UNL     1      -5.669  -2.416 123.750  0.00  0.00    +0.000 C 
ATOM     11  C   UNL     1      -4.794  -3.668 123.659  0.00  0.00    +0.000 C 
ATOM     12  C   UNL     1      -5.878  -1.913 122.313  0.00  0.00    +0.000 C 
ENDBRANCH   5  10
BRANCH   6  13
ATOM     13  O   UNL     1      -5.730  -2.254 126.502  0.00  0.00    +0.000 OA
BRANCH  13  14
ATOM     14  C   UNL     1      -5.434  -0.973 126.964  0.00  0.00    +0.000 C 
BRANCH  14  15
ATOM     15  O   UNL     1      -6.048  -0.308 128.057  0.00  0.00    +0.000 OA
BRANCH  15  16
ATOM     16  P   UNL     1      -5.100  -0.275 129.384  0.00  0.00    +0.000 P 
ATOM     17  O   UNL     1      -5.767  -0.307 130.732  0.00  0.00    +0.000 OA
BRANCH  16  18
ATOM     18  O   UNL     1      -4.214  -1.538 129.032  0.00  0.00    +0.000 OA
ATOM     19  H   UNL     1      -3.751  -1.302 128.207  0.00  0.00    +0.000 HD
ENDBRANCH  16  18
BRANCH  16  20
ATOM     20  O   UNL     1      -4.109   0.936 129.093  0.00  0.00    +0.000 OA
ATOM     21  H   UNL     1      -3.550   1.227 129.835  0.00  0.00    +0.000 HD
ENDBRANCH  16  20
ENDBRANCH  15  16
ENDBRANCH  14  15
ENDBRANCH  13  14
ENDBRANCH   6  13
TORSDOF 8
ENDMDL
MODEL 2
REMARK VINA RESULT:      -6.0      3.341      5.400
REMARK  Name = Fospropofol
REMARK  12 active torsions:
REMARK  status: ('A' for Active; 'I' for Inactive)
REMARK    1  A    between atoms: C_1  and  C_2
REMARK    2  A    between atoms: C_2  and  C_3
REMARK    3  A    between atoms: C_2  and  C_4
REMARK    4  A    between atoms: C_8  and  C_9
REMARK    5  A    between atoms: C_9  and  C_10
REMARK    6  A    between atoms: C_9  and  C_11
REMARK    7  A    between atoms: C_12  and  O_13
REMARK    8  A    between atoms: O_13  and  C_14
REMARK    9  A    between atoms: C_14  and  O_15
REMARK   10  A    between atoms: O_15  and  P_16
REMARK   11  A    between atoms: P_16  and  O_17
REMARK   12  A    between atoms: P_16  and  O_18
REMARK                            x       y       z     vdW  Elec       q    Type
REMARK                         _______ _______ _______ _____ _____    ______ ____
ROOT
ATOM      1  C   UNL     1      -8.285  -2.463 125.866  0.00  0.00    +0.000 A 
ATOM      2  C   UNL     1      -8.785  -3.685 126.403  0.00  0.00    +0.000 A 
ATOM      3  C   UNL     1      -8.837  -3.938 127.768  0.00  0.00    +0.000 A 
ATOM      4  C   UNL     1      -8.314  -3.003 128.646  0.00  0.00    +0.000 A 
ATOM      5  C   UNL     1      -7.763  -1.787 128.177  0.00  0.00    +0.000 A 
ATOM      6  C   UNL     1      -7.759  -1.499 126.777  0.00  0.00    +0.000 A 
ENDROOT
BRANCH   1   8
ATOM      7  C   UNL     1      -7.231  -2.291 123.636  0.00  0.00    +0.000 C 
ATOM      8  C   UNL     1      -8.582  -2.324 124.363  0.00  0.00    +0.000 C 
ATOM      9  C   UNL     1      -9.503  -3.349 123.732  0.00  0.00    +0.000 C 
ENDBRANCH   1   8
BRANCH   5  10
ATOM     10  C   UNL     1      -7.245  -0.800 129.243  0.00  0.00    +0.000 C 
ATOM     11  C   UNL     1      -8.058  -0.929 130.533  0.00  0.00    +0.000 C 
ATOM     12  C   UNL     1      -5.763  -0.910 129.637  0.00  0.00    +0.000 C 
ENDBRANCH   5  10
BRANCH   6  13
ATOM     13  O   UNL     1      -7.245  -0.240 126.544  0.00  0.00    +0.000 OA
BRANCH  13  14
ATOM     14  C   UNL     1      -8.037   0.903 126.451  0.00  0.00    +0.000 C 
BRANCH  14  15
ATOM     15  O   UNL     1      -9.389   0.961 126.025  0.00  0.00    +0.000 OA
BRANCH  15  16
ATOM     16  P   UNL     1      -9.541   1.478 124.486  0.00  0.00    +0.000 P 
ATOM     17  O   UNL     1     -10.768   1.067 123.718  0.00  0.00    +0.000 OA
BRANCH  16  18
ATOM     18  O   UNL     1      -9.406   3.027 124.777  0.00  0.00    +0.000 OA
ATOM     19  H   UNL     1     -10.150   3.441 124.303  0.00  0.00    +0.000 HD
ENDBRANCH  16  18
BRANCH  16  20
ATOM     20  O   UNL     1      -8.130   1.121 123.842  0.00  0.00    +0.000 OA
ATOM     21  H   UNL     1      -7.879   1.617 123.043  0.00  0.00    +0.000 HD
ENDBRANCH  16  20
ENDBRANCH  15  16
ENDBRANCH  14  15
ENDBRANCH  13  14
ENDBRANCH   6  13
TORSDOF 8
ENDMDL
MODEL 3
REMARK VINA RESULT:      -6.0      3.341      4.460
REMARK  Name = Fospropofol
REMARK  12 active torsions:
REMARK  status: ('A' for Active; 'I' for Inactive)
REMARK    1  A    between atoms: C_1  and  C_2
REMARK    2  A    between atoms: C_2  and  C_3
REMARK    3  A    between atoms: C_2  and  C_4
REMARK    4  A    between atoms: C_8  and  C_9
REMARK    5  A    between atoms: C_9  and  C_10
REMARK    6  A    between atoms: C_9  and  C_11
REMARK    7  A    between atoms: C_12  and  O_13
REMARK    8  A    between atoms: O_13  and  C_14
REMARK    9  A    between atoms: C_14  and  O_15
REMARK   10  A    between atoms: O_15  and  P_16
REMARK   11  A    between atoms: P_16  and  O_17
REMARK   12  A    between atoms: P_16  and  O_18
REMARK                            x       y       z     vdW  Elec       q    Type
REMARK                         _______ _______ _______ _____ _____    ______ ____
ROOT
ATOM      1  C   UNL     1      -7.804  -1.711 128.570  0.00  0.00    +0.000 A 
ATOM      2  C   UNL     1      -8.298  -2.956 129.059  0.00  0.00    +0.000 A 
ATOM      3  C   UNL     1      -8.738  -3.969 128.216  0.00  0.00    +0.000 A 
ATOM      4  C   UNL     1      -8.771  -3.743 126.850  0.00  0.00    +0.000 A 
ATOM      5  C   UNL     1      -8.336  -2.513 126.302  0.00  0.00    +0.000 A 
ATOM      6  C   UNL     1      -7.830  -1.489 127.162  0.00  0.00    +0.000 A 
ENDROOT
BRANCH   1   8
ATOM      7  C   UNL     1      -8.250  -0.422 130.632  0.00  0.00    +0.000 C 
ATOM      8  C   UNL     1      -7.138  -0.876 129.678  0.00  0.00    +0.000 C 
ATOM      9  C   UNL     1      -5.998  -1.513 130.448  0.00  0.00    +0.000 C 
ENDBRANCH   1   8
BRANCH   5  10
ATOM     10  C   UNL     1      -8.378  -2.381 124.766  0.00  0.00    +0.000 C 
ATOM     11  C   UNL     1      -7.032  -2.781 124.157  0.00  0.00    +0.000 C 
ATOM     12  C   UNL     1      -9.459  -3.184 124.025  0.00  0.00    +0.000 C 
ENDBRANCH   5  10
BRANCH   6  13
ATOM     13  O   UNL     1      -7.395  -0.408 126.422  0.00  0.00    +0.000 OA
BRANCH  13  14
ATOM     14  C   UNL     1      -7.983   0.854 126.495  0.00  0.00    +0.000 C 
BRANCH  14  15
ATOM     15  O   UNL     1      -9.326   1.179 126.172  0.00  0.00    +0.000 OA
BRANCH  15  16
ATOM     16  P   UNL     1      -9.525   1.528 124.592  0.00  0.00    +0.000 P 
ATOM     17  O   UNL     1     -10.800   1.089 123.925  0.00  0.00    +0.000 OA
BRANCH  16  18
ATOM     18  O   UNL     1      -9.317   3.093 124.703  0.00  0.00    +0.000 OA
ATOM     19  H   UNL     1      -8.723   3.323 123.965  0.00  0.00    +0.000 HD
ENDBRANCH  16  18
BRANCH  16  20
ATOM     20  O   UNL     1      -8.159   1.042 123.937  0.00  0.00    +0.000 OA
ATOM     21  H   UNL     1      -7.421   1.677 123.948  0.00  0.00    +0.000 HD
ENDBRANCH  16  20
ENDBRANCH  15  16
ENDBRANCH  14  15
ENDBRANCH  13  14
ENDBRANCH   6  13
TORSDOF 8
ENDMDL
MODEL 4
REMARK VINA RESULT:      -5.8      3.963      5.048
REMARK  Name = Fospropofol
REMARK  12 active torsions:
REMARK  status: ('A' for Active; 'I' for Inactive)
REMARK    1  A    between atoms: C_1  and  C_2
REMARK    2  A    between atoms: C_2  and  C_3
REMARK    3  A    between atoms: C_2  and  C_4
REMARK    4  A    between atoms: C_8  and  C_9
REMARK    5  A    between atoms: C_9  and  C_10
REMARK    6  A    between atoms: C_9  and  C_11
REMARK    7  A    between atoms: C_12  and  O_13
REMARK    8  A    between atoms: O_13  and  C_14
REMARK    9  A    between atoms: C_14  and  O_15
REMARK   10  A    between atoms: O_15  and  P_16
REMARK   11  A    between atoms: P_16  and  O_17
REMARK   12  A    between atoms: P_16  and  O_18
REMARK                            x       y       z     vdW  Elec       q    Type
REMARK                         _______ _______ _______ _____ _____    ______ ____
ROOT
ATOM      1  C   UNL     1      -8.894  -0.134 123.104  0.00  0.00    +0.000 A 
ATOM      2  C   UNL     1      -9.659  -1.318 122.890  0.00  0.00    +0.000 A 
ATOM      3  C   UNL     1      -9.172  -2.586 123.179  0.00  0.00    +0.000 A 
ATOM      4  C   UNL     1      -7.866  -2.722 123.621  0.00  0.00    +0.000 A 
ATOM      5  C   UNL     1      -7.038  -1.591 123.813  0.00  0.00    +0.000 A 
ATOM      6  C   UNL     1      -7.555  -0.280 123.571  0.00  0.00    +0.000 A 
ENDROOT
BRANCH   1   8
ATOM      7  C   UNL     1     -10.292   1.476 124.355  0.00  0.00    +0.000 C 
ATOM      8  C   UNL     1      -9.745   1.140 122.962  0.00  0.00    +0.000 C 
ATOM      9  C   UNL     1      -9.090   2.356 122.337  0.00  0.00    +0.000 C 
ENDBRANCH   1   8
BRANCH   5  10
ATOM     10  C   UNL     1      -5.614  -1.852 124.346  0.00  0.00    +0.000 C 
ATOM     11  C   UNL     1      -5.647  -2.124 125.852  0.00  0.00    +0.000 C 
ATOM     12  C   UNL     1      -4.826  -3.003 123.702  0.00  0.00    +0.000 C 
ENDBRANCH   5  10
BRANCH   6  13
ATOM     13  O   UNL     1      -6.612   0.677 123.886  0.00  0.00    +0.000 OA
BRANCH  13  14
ATOM     14  C   UNL     1      -6.684   1.473 125.029  0.00  0.00    +0.000 C 
BRANCH  14  15
ATOM     15  O   UNL     1      -7.091   2.831 125.087  0.00  0.00    +0.000 OA
BRANCH  15  16
ATOM     16  P   UNL     1      -5.905   3.861 124.649  0.00  0.00    +0.000 P 
ATOM     17  O   UNL     1      -4.590   3.776 125.375  0.00  0.00    +0.000 OA
BRANCH  16  18
ATOM     18  O   UNL     1      -5.862   3.481 123.114  0.00  0.00    +0.000 OA
ATOM     19  H   UNL     1      -6.605   2.863 122.984  0.00  0.00    +0.000 HD
ENDBRANCH  16  18
BRANCH  16  20
ATOM     20  O   UNL     1      -6.637   5.274 124.637  0.00  0.00    +0.000 OA
ATOM     21  H   UNL     1      -7.598   5.265 124.484  0.00  0.00    +0.000 HD
ENDBRANCH  16  20
ENDBRANCH  15  16
ENDBRANCH  14  15
ENDBRANCH  13  14
ENDBRANCH   6  13
TORSDOF 8
ENDMDL
MODEL 5
REMARK VINA RESULT:      -5.7      4.602      7.044
REMARK  Name = Fospropofol
REMARK  12 active torsions:
REMARK  status: ('A' for Active; 'I' for Inactive)
REMARK    1  A    between atoms: C_1  and  C_2
REMARK    2  A    between atoms: C_2  and  C_3
REMARK    3  A    between atoms: C_2  and  C_4
REMARK    4  A    between atoms: C_8  and  C_9
REMARK    5  A    between atoms: C_9  and  C_10
REMARK    6  A    between atoms: C_9  and  C_11
REMARK    7  A    between atoms: C_12  and  O_13
REMARK    8  A    between atoms: O_13  and  C_14
REMARK    9  A    between atoms: C_14  and  O_15
REMARK   10  A    between atoms: O_15  and  P_16
REMARK   11  A    between atoms: P_16  and  O_17
REMARK   12  A    between atoms: P_16  and  O_18
REMARK                            x       y       z     vdW  Elec       q    Type
REMARK                         _______ _______ _______ _____ _____    ______ ____
ROOT
ATOM      1  C   UNL     1      -6.731   2.754 123.021  0.00  0.00    +0.000 A 
ATOM      2  C   UNL     1      -6.024   3.793 123.695  0.00  0.00    +0.000 A 
ATOM      3  C   UNL     1      -5.506   3.638 124.975  0.00  0.00    +0.000 A 
ATOM      4  C   UNL     1      -5.747   2.459 125.660  0.00  0.00    +0.000 A 
ATOM      5  C   UNL     1      -6.479   1.404 125.067  0.00  0.00    +0.000 A 
ATOM      6  C   UNL     1      -6.965   1.538 123.729  0.00  0.00    +0.000 A 
ENDROOT
BRANCH   1   8
ATOM      7  C   UNL     1      -8.420   3.536 121.393  0.00  0.00    +0.000 C 
ATOM      8  C   UNL     1      -6.962   3.079 121.535  0.00  0.00    +0.000 C 
ATOM      9  C   UNL     1      -6.024   4.072 120.879  0.00  0.00    +0.000 C 
ENDBRANCH   1   8
BRANCH   5  10
ATOM     10  C   UNL     1      -6.654   0.120 125.903  0.00  0.00    +0.000 C 
ATOM     11  C   UNL     1      -5.302  -0.561 126.130  0.00  0.00    +0.000 C 
ATOM     12  C   UNL     1      -7.315   0.269 127.283  0.00  0.00    +0.000 C 
ENDBRANCH   5  10
BRANCH   6  13
ATOM     13  O   UNL     1      -7.584   0.375 123.320  0.00  0.00    +0.000 OA
BRANCH  13  14
ATOM     14  C   UNL     1      -8.968   0.243 123.214  0.00  0.00    +0.000 C 
BRANCH  14  15
ATOM     15  O   UNL     1      -9.688  -0.961 122.999  0.00  0.00    +0.000 OA
BRANCH  15  16
ATOM     16  P   UNL     1      -9.244  -2.148 124.025  0.00  0.00    +0.000 P 
ATOM     17  O   UNL     1      -9.495  -1.946 125.494  0.00  0.00    +0.000 OA
BRANCH  16  18
ATOM     18  O   UNL     1     -10.066  -3.319 123.347  0.00  0.00    +0.000 OA
ATOM     19  H   UNL     1     -10.335  -2.970 122.478  0.00  0.00    +0.000 HD
ENDBRANCH  16  18
BRANCH  16  20
ATOM     20  O   UNL     1      -7.750  -2.472 123.582  0.00  0.00    +0.000 OA
ATOM     21  H   UNL     1      -7.279  -3.146 124.103  0.00  0.00    +0.000 HD
ENDBRANCH  16  20
ENDBRANCH  15  16
ENDBRANCH  14  15
ENDBRANCH  13  14
ENDBRANCH   6  13
TORSDOF 8
ENDMDL
MODEL 6
REMARK VINA RESULT:      -5.7      3.289      3.913
REMARK  Name = Fospropofol
REMARK  12 active torsions:
REMARK  status: ('A' for Active; 'I' for Inactive)
REMARK    1  A    between atoms: C_1  and  C_2
REMARK    2  A    between atoms: C_2  and  C_3
REMARK    3  A    between atoms: C_2  and  C_4
REMARK    4  A    between atoms: C_8  and  C_9
REMARK    5  A    between atoms: C_9  and  C_10
REMARK    6  A    between atoms: C_9  and  C_11
REMARK    7  A    between atoms: C_12  and  O_13
REMARK    8  A    between atoms: O_13  and  C_14
REMARK    9  A    between atoms: C_14  and  O_15
REMARK   10  A    between atoms: O_15  and  P_16
REMARK   11  A    between atoms: P_16  and  O_17
REMARK   12  A    between atoms: P_16  and  O_18
REMARK                            x       y       z     vdW  Elec       q    Type
REMARK                         _______ _______ _______ _____ _____    ______ ____
ROOT
ATOM      1  C   UNL     1      -8.496  -2.067 126.495  0.00  0.00    +0.000 A 
ATOM      2  C   UNL     1      -8.562  -3.220 125.658  0.00  0.00    +0.000 A 
ATOM      3  C   UNL     1      -8.734  -3.137 124.282  0.00  0.00    +0.000 A 
ATOM      4  C   UNL     1      -8.926  -1.895 123.701  0.00  0.00    +0.000 A 
ATOM      5  C   UNL     1      -8.915  -0.714 124.479  0.00  0.00    +0.000 A 
ATOM      6  C   UNL     1      -8.682  -0.790 125.888  0.00  0.00    +0.000 A 
ENDROOT
BRANCH   1   8
ATOM      7  C   UNL     1      -8.667  -3.762 128.286  0.00  0.00    +0.000 C 
ATOM      8  C   UNL     1      -8.037  -2.411 127.922  0.00  0.00    +0.000 C 
ATOM      9  C   UNL     1      -6.546  -2.425 128.196  0.00  0.00    +0.000 C 
ENDBRANCH   1   8
BRANCH   5  10
ATOM     10  C   UNL     1      -9.099   0.620 123.725  0.00  0.00    +0.000 C 
ATOM     11  C   UNL     1      -7.768   1.085 123.129  0.00  0.00    +0.000 C 
ATOM     12  C   UNL     1     -10.130   0.643 122.586  0.00  0.00    +0.000 C 
ENDBRANCH   5  10
BRANCH   6  13
ATOM     13  O   UNL     1      -8.641   0.473 126.440  0.00  0.00    +0.000 OA
BRANCH  13  14
ATOM     14  C   UNL     1      -7.460   1.087 126.857  0.00  0.00    +0.000 C 
BRANCH  14  15
ATOM     15  O   UNL     1      -6.847   2.224 126.270  0.00  0.00    +0.000 OA
BRANCH  15  16
ATOM     16  P   UNL     1      -7.783   3.556 126.357  0.00  0.00    +0.000 P 
ATOM     17  O   UNL     1      -8.705   3.850 125.205  0.00  0.00    +0.000 OA
BRANCH  16  18
ATOM     18  O   UNL     1      -8.493   3.216 127.729  0.00  0.00    +0.000 OA
ATOM     19  H   UNL     1      -9.296   2.722 127.484  0.00  0.00    +0.000 HD
ENDBRANCH  16  18
BRANCH  16  20
ATOM     20  O   UNL     1      -6.754   4.697 126.771  0.00  0.00    +0.000 OA
ATOM     21  H   UNL     1      -7.072   5.615 126.703  0.00  0.00    +0.000 HD
ENDBRANCH  16  20
ENDBRANCH  15  16
ENDBRANCH  14  15
ENDBRANCH  13  14
ENDBRANCH   6  13
TORSDOF 8
ENDMDL
MODEL 7
REMARK VINA RESULT:      -5.3      4.187      7.047
REMARK  Name = Fospropofol
REMARK  12 active torsions:
REMARK  status: ('A' for Active; 'I' for Inactive)
REMARK    1  A    between atoms: C_1  and  C_2
REMARK    2  A    between atoms: C_2  and  C_3
REMARK    3  A    between atoms: C_2  and  C_4
REMARK    4  A    between atoms: C_8  and  C_9
REMARK    5  A    between atoms: C_9  and  C_10
REMARK    6  A    between atoms: C_9  and  C_11
REMARK    7  A    between atoms: C_12  and  O_13
REMARK    8  A    between atoms: O_13  and  C_14
REMARK    9  A    between atoms: C_14  and  O_15
REMARK   10  A    between atoms: O_15  and  P_16
REMARK   11  A    between atoms: P_16  and  O_17
REMARK   12  A    between atoms: P_16  and  O_18
REMARK                            x       y       z     vdW  Elec       q    Type
REMARK                         _______ _______ _______ _____ _____    ______ ____
ROOT
ATOM      1  C   UNL     1      -7.187  -3.239 130.504  0.00  0.00    +0.000 A 
ATOM      2  C   UNL     1      -6.285  -4.230 130.017  0.00  0.00    +0.000 A 
ATOM      3  C   UNL     1      -5.494  -5.002 130.860  0.00  0.00    +0.000 A 
ATOM      4  C   UNL     1      -5.520  -4.753 132.222  0.00  0.00    +0.000 A 
ATOM      5  C   UNL     1      -6.360  -3.754 132.768  0.00  0.00    +0.000 A 
ATOM      6  C   UNL     1      -7.217  -2.997 131.910  0.00  0.00    +0.000 A 
ENDROOT
BRANCH   1   8
ATOM      7  C   UNL     1      -7.471  -1.477 128.794  0.00  0.00    +0.000 C 
ATOM      8  C   UNL     1      -8.130  -2.721 129.404  0.00  0.00    +0.000 C 
ATOM      9  C   UNL     1      -8.543  -3.695 128.319  0.00  0.00    +0.000 C 
ENDBRANCH   1   8
BRANCH   5  10
ATOM     10  C   UNL     1      -6.340  -3.588 134.301  0.00  0.00    +0.000 C 
ATOM     11  C   UNL     1      -6.763  -4.889 134.987  0.00  0.00    +0.000 C 
ATOM     12  C   UNL     1      -5.010  -3.159 134.941  0.00  0.00    +0.000 C 
ENDBRANCH   5  10
BRANCH   6  13
ATOM     13  O   UNL     1      -7.999  -2.133 132.648  0.00  0.00    +0.000 OA
BRANCH  13  14
ATOM     14  C   UNL     1      -8.082  -0.766 132.388  0.00  0.00    +0.000 C 
BRANCH  14  15
ATOM     15  O   UNL     1      -9.253  -0.040 132.050  0.00  0.00    +0.000 OA
BRANCH  15  16
ATOM     16  P   UNL     1      -8.967   1.552 131.843  0.00  0.00    +0.000 P 
ATOM     17  O   UNL     1      -8.191   1.980 130.627  0.00  0.00    +0.000 OA
BRANCH  16  18
ATOM     18  O   UNL     1     -10.472   2.037 131.896  0.00  0.00    +0.000 OA
ATOM     19  H   UNL     1     -10.919   1.415 132.500  0.00  0.00    +0.000 HD
ENDBRANCH  16  18
BRANCH  16  20
ATOM     20  O   UNL     1      -8.405   2.008 133.260  0.00  0.00    +0.000 OA
ATOM     21  H   UNL     1      -8.531   1.386 133.998  0.00  0.00    +0.000 HD
ENDBRANCH  16  20
ENDBRANCH  15  16
ENDBRANCH  14  15
ENDBRANCH  13  14
ENDBRANCH   6  13
TORSDOF 8
ENDMDL
MODEL 8
REMARK VINA RESULT:      -5.2      5.952      8.369
REMARK  Name = Fospropofol
REMARK  12 active torsions:
REMARK  status: ('A' for Active; 'I' for Inactive)
REMARK    1  A    between atoms: C_1  and  C_2
REMARK    2  A    between atoms: C_2  and  C_3
REMARK    3  A    between atoms: C_2  and  C_4
REMARK    4  A    between atoms: C_8  and  C_9
REMARK    5  A    between atoms: C_9  and  C_10
REMARK    6  A    between atoms: C_9  and  C_11
REMARK    7  A    between atoms: C_12  and  O_13
REMARK    8  A    between atoms: O_13  and  C_14
REMARK    9  A    between atoms: C_14  and  O_15
REMARK   10  A    between atoms: O_15  and  P_16
REMARK   11  A    between atoms: P_16  and  O_17
REMARK   12  A    between atoms: P_16  and  O_18
REMARK                            x       y       z     vdW  Elec       q    Type
REMARK                         _______ _______ _______ _____ _____    ______ ____
ROOT
ATOM      1  C   UNL     1      -4.714   3.248 127.049  0.00  0.00    +0.000 A 
ATOM      2  C   UNL     1      -3.396   2.988 126.569  0.00  0.00    +0.000 A 
ATOM      3  C   UNL     1      -2.282   3.680 127.028  0.00  0.00    +0.000 A 
ATOM      4  C   UNL     1      -2.458   4.716 127.931  0.00  0.00    +0.000 A 
ATOM      5  C   UNL     1      -3.743   5.054 128.415  0.00  0.00    +0.000 A 
ATOM      6  C   UNL     1      -4.885   4.308 127.987  0.00  0.00    +0.000 A 
ENDROOT
BRANCH   1   8
ATOM      7  C   UNL     1      -6.426   2.730 125.342  0.00  0.00    +0.000 C 
ATOM      8  C   UNL     1      -5.720   2.179 126.589  0.00  0.00    +0.000 C 
ATOM      9  C   UNL     1      -5.192   0.782 126.332  0.00  0.00    +0.000 C 
ENDBRANCH   1   8
BRANCH   5  10
ATOM     10  C   UNL     1      -3.820   6.198 129.447  0.00  0.00    +0.000 C 
ATOM     11  C   UNL     1      -2.767   6.004 130.541  0.00  0.00    +0.000 C 
ATOM     12  C   UNL     1      -3.653   7.631 128.917  0.00  0.00    +0.000 C 
ENDBRANCH   5  10
BRANCH   6  13
ATOM     13  O   UNL     1      -6.022   4.753 128.630  0.00  0.00    +0.000 OA
BRANCH  13  14
ATOM     14  C   UNL     1      -6.625   4.065 129.682  0.00  0.00    +0.000 C 
BRANCH  14  15
ATOM     15  O   UNL     1      -8.006   3.769 129.816  0.00  0.00    +0.000 OA
BRANCH  15  16
ATOM     16  P   UNL     1      -8.959   5.025 129.401  0.00  0.00    +0.000 P 
ATOM     17  O   UNL     1     -10.396   5.001 129.847  0.00  0.00    +0.000 OA
BRANCH  16  18
ATOM     18  O   UNL     1      -8.069   6.172 130.031  0.00  0.00    +0.000 OA
ATOM     19  H   UNL     1      -7.286   6.232 129.454  0.00  0.00    +0.000 HD
ENDBRANCH  16  18
BRANCH  16  20
ATOM     20  O   UNL     1      -8.686   5.190 127.842  0.00  0.00    +0.000 OA
ATOM     21  H   UNL     1      -9.076   4.515 127.259  0.00  0.00    +0.000 HD
ENDBRANCH  16  20
ENDBRANCH  15  16
ENDBRANCH  14  15
ENDBRANCH  13  14
ENDBRANCH   6  13
TORSDOF 8
ENDMDL
MODEL 9
REMARK VINA RESULT:      -5.1      2.359      4.083
REMARK  Name = Fospropofol
REMARK  12 active torsions:
REMARK  status: ('A' for Active; 'I' for Inactive)
REMARK    1  A    between atoms: C_1  and  C_2
REMARK    2  A    between atoms: C_2  and  C_3
REMARK    3  A    between atoms: C_2  and  C_4
REMARK    4  A    between atoms: C_8  and  C_9
REMARK    5  A    between atoms: C_9  and  C_10
REMARK    6  A    between atoms: C_9  and  C_11
REMARK    7  A    between atoms: C_12  and  O_13
REMARK    8  A    between atoms: O_13  and  C_14
REMARK    9  A    between atoms: C_14  and  O_15
REMARK   10  A    between atoms: O_15  and  P_16
REMARK   11  A    between atoms: P_16  and  O_17
REMARK   12  A    between atoms: P_16  and  O_18
REMARK                            x       y       z     vdW  Elec       q    Type
REMARK                         _______ _______ _______ _____ _____    ______ ____
ROOT
ATOM      1  C   UNL     1      -6.052   0.875 125.486  0.00  0.00    +0.000 A 
ATOM      2  C   UNL     1      -6.758   1.325 124.332  0.00  0.00    +0.000 A 
ATOM      3  C   UNL     1      -7.207   0.459 123.343  0.00  0.00    +0.000 A 
ATOM      4  C   UNL     1      -6.894  -0.888 123.435  0.00  0.00    +0.000 A 
ATOM      5  C   UNL     1      -6.159  -1.395 124.531  0.00  0.00    +0.000 A 
ATOM      6  C   UNL     1      -5.745  -0.515 125.580  0.00  0.00    +0.000 A 
ENDROOT
BRANCH   1   8
ATOM      7  C   UNL     1      -4.404   2.238 126.725  0.00  0.00    +0.000 C 
ATOM      8  C   UNL     1      -5.906   1.980 126.545  0.00  0.00    +0.000 C 
ATOM      9  C   UNL     1      -6.648   3.281 126.310  0.00  0.00    +0.000 C 
ENDBRANCH   1   8
BRANCH   5  10
ATOM     10  C   UNL     1      -5.900  -2.916 124.554  0.00  0.00    +0.000 C 
ATOM     11  C   UNL     1      -7.207  -3.684 124.343  0.00  0.00    +0.000 C 
ATOM     12  C   UNL     1      -4.888  -3.468 123.538  0.00  0.00    +0.000 C 
ENDBRANCH   5  10
BRANCH   6  13
ATOM     13  O   UNL     1      -5.108  -1.221 126.580  0.00  0.00    +0.000 OA
BRANCH  13  14
ATOM     14  C   UNL     1      -5.705  -1.517 127.804  0.00  0.00    +0.000 C 
BRANCH  14  15
ATOM     15  O   UNL     1      -5.658  -2.760 128.488  0.00  0.00    +0.000 OA
BRANCH  15  16
ATOM     16  P   UNL     1      -4.298  -2.941 129.367  0.00  0.00    +0.000 P 
ATOM     17  O   UNL     1      -3.286  -3.955 128.906  0.00  0.00    +0.000 OA
BRANCH  16  18
ATOM     18  O   UNL     1      -3.822  -1.433 129.319  0.00  0.00    +0.000 OA
ATOM     19  H   UNL     1      -4.292  -1.042 128.560  0.00  0.00    +0.000 HD
ENDBRANCH  16  18
BRANCH  16  20
ATOM     20  O   UNL     1      -4.843  -3.087 130.855  0.00  0.00    +0.000 OA
ATOM     21  H   UNL     1      -4.654  -2.348 131.461  0.00  0.00    +0.000 HD
ENDBRANCH  16  20
ENDBRANCH  15  16
ENDBRANCH  14  15
ENDBRANCH  13  14
ENDBRANCH   6  13
TORSDOF 8
ENDMDL
