MODEL 1
REMARK VINA RESULT:     -10.1      0.000      0.000
REMARK  Name = Fostemsavir
REMARK  11 active torsions:
REMARK  status: ('A' for Active; 'I' for Inactive)
REMARK    1  A    between atoms: C_1  and  O_2
REMARK    2  A    between atoms: O_2  and  C_3
REMARK    3  A    between atoms: C_10  and  C_11
REMARK    4  A    between atoms: C_15  and  C_24
REMARK    5  A    between atoms: N_17  and  C_18
REMARK    6  A    between atoms: C_18  and  O_19
REMARK    7  A    between atoms: O_19  and  P_20
REMARK    8  A    between atoms: P_20  and  O_21
REMARK    9  A    between atoms: P_20  and  O_22
REMARK   10  A    between atoms: C_24  and  C_26
REMARK   11  A    between atoms: C_34  and  C_36
REMARK                            x       y       z     vdW  Elec       q    Type
REMARK                         _______ _______ _______ _____ _____    ______ ____
ROOT
ATOM      1  C   UNL     1      -7.559  -2.513 129.777  0.00  0.00    +0.000 A 
ATOM      2  C   UNL     1      -7.878  -3.630 129.036  0.00  0.00    +0.000 A 
ATOM      3  N   UNL     1      -8.240  -3.617 127.756  0.00  0.00    +0.000 NA
ATOM      4  C   UNL     1      -8.199  -2.447 127.078  0.00  0.00    +0.000 A 
ATOM      5  N   UNL     1      -8.523  -2.539 125.708  0.00  0.00    +0.000 N 
ATOM      6  C   UNL     1      -9.633  -3.124 125.157  0.00  0.00    +0.000 A 
ATOM      7  N   UNL     1      -9.605  -2.997 123.848  0.00  0.00    +0.000 NA
ATOM      8  C   UNL     1      -8.402  -2.390 123.621  0.00  0.00    +0.000 A 
ATOM      9  C   UNL     1      -7.891  -2.081 122.269  0.00  0.00    +0.000 C 
ATOM     10  N   UNL     1      -7.747  -2.021 124.727  0.00  0.00    +0.000 NA
ATOM     11  C   UNL     1      -7.863  -1.240 127.762  0.00  0.00    +0.000 A 
ATOM     12  C   UNL     1      -7.590  -1.228 129.158  0.00  0.00    +0.000 A 
ATOM     13  C   UNL     1      -7.444   0.173 129.554  0.00  0.00    +0.000 A 
ATOM     14  C   UNL     1      -7.626   0.922 128.397  0.00  0.00    +0.000 A 
ATOM     15  N   UNL     1      -7.820   0.088 127.340  0.00  0.00    +0.000 N 
ENDROOT
BRANCH   1  17
ATOM     16  C   UNL     1      -6.294  -2.693 131.778  0.00  0.00    +0.000 C 
ATOM     17  O   UNL     1      -7.569  -2.796 131.122  0.00  0.00    +0.000 OA
ENDBRANCH   1  17
BRANCH  13  18
ATOM     18  C   UNL     1      -7.150   0.855 130.838  0.00  0.00    +0.000 C 
ATOM     19  O   UNL     1      -5.981   0.999 131.209  0.00  0.00    +0.000 OA
BRANCH  18  20
ATOM     20  C   UNL     1      -8.241   1.348 131.796  0.00  0.00    +0.000 C 
ATOM     21  O   UNL     1      -8.702   0.662 132.682  0.00  0.00    +0.000 OA
ATOM     22  N   UNL     1      -8.760   2.598 131.760  0.00  0.00    +0.000 N 
ATOM     23  C   UNL     1      -9.390   3.163 132.977  0.00  0.00    +0.000 C 
ATOM     24  C   UNL     1      -9.130   4.668 132.954  0.00  0.00    +0.000 C 
ATOM     25  N   UNL     1      -9.569   5.223 131.652  0.00  0.00    +0.000 N 
ATOM     26  C   UNL     1      -9.001   4.537 130.472  0.00  0.00    +0.000 C 
ATOM     27  C   UNL     1      -9.330   3.063 130.528  0.00  0.00    +0.000 C 
ATOM     28  C   UNL     1     -10.468   6.281 131.604  0.00  0.00    +0.000 C 
ATOM     29  O   UNL     1     -10.879   6.861 132.605  0.00  0.00    +0.000 OA
BRANCH  28  30
ATOM     30  C   UNL     1     -10.926   6.755 130.268  0.00  0.00    +0.000 A 
ATOM     31  C   UNL     1     -10.146   7.635 129.505  0.00  0.00    +0.000 A 
ATOM     32  C   UNL     1     -10.700   8.258 128.384  0.00  0.00    +0.000 A 
ATOM     33  C   UNL     1     -11.957   7.871 127.924  0.00  0.00    +0.000 A 
ATOM     34  C   UNL     1     -12.652   6.855 128.578  0.00  0.00    +0.000 A 
ATOM     35  C   UNL     1     -12.169   6.340 129.785  0.00  0.00    +0.000 A 
ENDBRANCH  28  30
ENDBRANCH  18  20
ENDBRANCH  13  18
BRANCH  15  36
ATOM     36  C   UNL     1      -8.158   0.518 125.987  0.00  0.00    +0.000 C 
BRANCH  36  37
ATOM     37  O   UNL     1      -8.815   1.771 125.914  0.00  0.00    +0.000 OA
BRANCH  37  38
ATOM     38  P   UNL     1      -8.669   2.555 124.379  0.00  0.00    +0.000 P 
ATOM     39  O   UNL     1      -8.539   3.256 123.005  0.00  0.00    +0.000 OA
BRANCH  38  40
ATOM     40  O   UNL     1     -10.228   2.089 124.099  0.00  0.00    +0.000 OA
ATOM     41  H   UNL     1     -10.461   1.148 124.010  0.00  0.00    +0.000 HD
ENDBRANCH  38  40
BRANCH  38  42
ATOM     42  O   UNL     1      -9.141   3.907 125.179  0.00  0.00    +0.000 OA
ATOM     43  H   UNL     1      -9.588   3.717 126.017  0.00  0.00    +0.000 HD
ENDBRANCH  38  42
ENDBRANCH  37  38
ENDBRANCH  36  37
ENDBRANCH  15  36
TORSDOF 9
ENDMDL
MODEL 2
REMARK VINA RESULT:      -9.4      2.102      8.072
REMARK  Name = Fostemsavir
REMARK  11 active torsions:
REMARK  status: ('A' for Active; 'I' for Inactive)
REMARK    1  A    between atoms: C_1  and  O_2
REMARK    2  A    between atoms: O_2  and  C_3
REMARK    3  A    between atoms: C_10  and  C_11
REMARK    4  A    between atoms: C_15  and  C_24
REMARK    5  A    between atoms: N_17  and  C_18
REMARK    6  A    between atoms: C_18  and  O_19
REMARK    7  A    between atoms: O_19  and  P_20
REMARK    8  A    between atoms: P_20  and  O_21
REMARK    9  A    between atoms: P_20  and  O_22
REMARK   10  A    between atoms: C_24  and  C_26
REMARK   11  A    between atoms: C_34  and  C_36
REMARK                            x       y       z     vdW  Elec       q    Type
REMARK                         _______ _______ _______ _____ _____    ______ ____
ROOT
ATOM      1  C   UNL     1      -8.006   1.689 132.347  0.00  0.00    +0.000 A 
ATOM      2  C   UNL     1      -9.028   2.448 132.872  0.00  0.00    +0.000 A 
ATOM      3  N   UNL     1      -9.469   3.592 132.355  0.00  0.00    +0.000 NA
ATOM      4  C   UNL     1      -8.967   4.010 131.171  0.00  0.00    +0.000 A 
ATOM      5  N   UNL     1      -9.547   5.190 130.659  0.00  0.00    +0.000 N 
ATOM      6  C   UNL     1      -9.710   6.383 131.312  0.00  0.00    +0.000 A 
ATOM      7  N   UNL     1     -10.270   7.263 130.509  0.00  0.00    +0.000 NA
ATOM      8  C   UNL     1     -10.517   6.536 129.379  0.00  0.00    +0.000 A 
ATOM      9  C   UNL     1     -11.197   7.092 128.189  0.00  0.00    +0.000 C 
ATOM     10  N   UNL     1     -10.022   5.295 129.395  0.00  0.00    +0.000 NA
ATOM     11  C   UNL     1      -7.916   3.275 130.545  0.00  0.00    +0.000 A 
ATOM     12  C   UNL     1      -7.356   2.116 131.150  0.00  0.00    +0.000 A 
ATOM     13  C   UNL     1      -6.213   1.714 130.331  0.00  0.00    +0.000 A 
ATOM     14  C   UNL     1      -6.144   2.630 129.288  0.00  0.00    +0.000 A 
ATOM     15  N   UNL     1      -7.175   3.513 129.387  0.00  0.00    +0.000 N 
ENDROOT
BRANCH   1  17
ATOM     16  C   UNL     1      -6.349   1.153 133.961  0.00  0.00    +0.000 C 
ATOM     17  O   UNL     1      -7.550   0.774 133.266  0.00  0.00    +0.000 OA
ENDBRANCH   1  17
BRANCH  13  18
ATOM     18  C   UNL     1      -5.230   0.605 130.406  0.00  0.00    +0.000 C 
ATOM     19  O   UNL     1      -4.024   0.852 130.493  0.00  0.00    +0.000 OA
BRANCH  18  20
ATOM     20  C   UNL     1      -5.625  -0.873 130.311  0.00  0.00    +0.000 C 
ATOM     21  O   UNL     1      -5.464  -1.660 131.219  0.00  0.00    +0.000 OA
ATOM     22  N   UNL     1      -6.216  -1.422 129.224  0.00  0.00    +0.000 N 
ATOM     23  C   UNL     1      -7.018  -2.660 129.375  0.00  0.00    +0.000 C 
ATOM     24  C   UNL     1      -8.142  -2.588 128.343  0.00  0.00    +0.000 C 
ATOM     25  N   UNL     1      -7.565  -2.322 127.004  0.00  0.00    +0.000 N 
ATOM     26  C   UNL     1      -6.674  -1.143 126.946  0.00  0.00    +0.000 C 
ATOM     27  C   UNL     1      -5.559  -1.294 127.955  0.00  0.00    +0.000 C 
ATOM     28  C   UNL     1      -7.846  -3.163 125.935  0.00  0.00    +0.000 C 
ATOM     29  O   UNL     1      -8.633  -4.102 126.007  0.00  0.00    +0.000 OA
BRANCH  28  30
ATOM     30  C   UNL     1      -7.187  -2.885 124.629  0.00  0.00    +0.000 A 
ATOM     31  C   UNL     1      -5.887  -3.335 124.362  0.00  0.00    +0.000 A 
ATOM     32  C   UNL     1      -5.201  -2.854 123.245  0.00  0.00    +0.000 A 
ATOM     33  C   UNL     1      -5.868  -2.071 122.304  0.00  0.00    +0.000 A 
ATOM     34  C   UNL     1      -7.221  -1.782 122.478  0.00  0.00    +0.000 A 
ATOM     35  C   UNL     1      -7.866  -2.132 123.668  0.00  0.00    +0.000 A 
ENDBRANCH  28  30
ENDBRANCH  18  20
ENDBRANCH  13  18
BRANCH  15  36
ATOM     36  C   UNL     1      -7.360   4.682 128.535  0.00  0.00    +0.000 C 
BRANCH  36  37
ATOM     37  O   UNL     1      -6.644   4.639 127.313  0.00  0.00    +0.000 OA
BRANCH  37  38
ATOM     38  P   UNL     1      -7.626   4.278 125.935  0.00  0.00    +0.000 P 
ATOM     39  O   UNL     1      -8.505   3.955 124.702  0.00  0.00    +0.000 OA
BRANCH  38  40
ATOM     40  O   UNL     1      -8.771   5.255 126.613  0.00  0.00    +0.000 OA
ATOM     41  H   UNL     1      -8.865   6.183 126.336  0.00  0.00    +0.000 HD
ENDBRANCH  38  40
BRANCH  38  42
ATOM     42  O   UNL     1      -6.860   5.545 125.229  0.00  0.00    +0.000 OA
ATOM     43  H   UNL     1      -7.409   6.007 124.577  0.00  0.00    +0.000 HD
ENDBRANCH  38  42
ENDBRANCH  37  38
ENDBRANCH  36  37
ENDBRANCH  15  36
TORSDOF 9
ENDMDL
MODEL 3
REMARK VINA RESULT:      -9.4      3.004      4.361
REMARK  Name = Fostemsavir
REMARK  11 active torsions:
REMARK  status: ('A' for Active; 'I' for Inactive)
REMARK    1  A    between atoms: C_1  and  O_2
REMARK    2  A    between atoms: O_2  and  C_3
REMARK    3  A    between atoms: C_10  and  C_11
REMARK    4  A    between atoms: C_15  and  C_24
REMARK    5  A    between atoms: N_17  and  C_18
REMARK    6  A    between atoms: C_18  and  O_19
REMARK    7  A    between atoms: O_19  and  P_20
REMARK    8  A    between atoms: P_20  and  O_21
REMARK    9  A    between atoms: P_20  and  O_22
REMARK   10  A    between atoms: C_24  and  C_26
REMARK   11  A    between atoms: C_34  and  C_36
REMARK                            x       y       z     vdW  Elec       q    Type
REMARK                         _______ _______ _______ _____ _____    ______ ____
ROOT
ATOM      1  C   UNL     1      -5.880   3.727 127.809  0.00  0.00    +0.000 A 
ATOM      2  C   UNL     1      -5.459   4.576 126.809  0.00  0.00    +0.000 A 
ATOM      3  N   UNL     1      -5.737   4.427 125.517  0.00  0.00    +0.000 NA
ATOM      4  C   UNL     1      -6.580   3.439 125.140  0.00  0.00    +0.000 A 
ATOM      5  N   UNL     1      -6.881   3.403 123.762  0.00  0.00    +0.000 N 
ATOM      6  C   UNL     1      -5.991   3.401 122.720  0.00  0.00    +0.000 A 
ATOM      7  N   UNL     1      -6.639   3.340 121.576  0.00  0.00    +0.000 NA
ATOM      8  C   UNL     1      -7.949   3.390 121.959  0.00  0.00    +0.000 A 
ATOM      9  C   UNL     1      -9.075   3.400 121.001  0.00  0.00    +0.000 C 
ATOM     10  N   UNL     1      -8.145   3.347 123.281  0.00  0.00    +0.000 NA
ATOM     11  C   UNL     1      -7.080   2.521 126.113  0.00  0.00    +0.000 A 
ATOM     12  C   UNL     1      -6.692   2.602 127.479  0.00  0.00    +0.000 A 
ATOM     13  C   UNL     1      -7.254   1.430 128.153  0.00  0.00    +0.000 A 
ATOM     14  C   UNL     1      -7.945   0.718 127.179  0.00  0.00    +0.000 A 
ATOM     15  N   UNL     1      -7.884   1.388 125.996  0.00  0.00    +0.000 N 
ENDROOT
BRANCH   1  17
ATOM     16  C   UNL     1      -4.005   3.095 129.121  0.00  0.00    +0.000 C 
ATOM     17  O   UNL     1      -5.163   3.932 128.964  0.00  0.00    +0.000 OA
ENDBRANCH   1  17
BRANCH  13  18
ATOM     18  C   UNL     1      -7.228   0.936 129.551  0.00  0.00    +0.000 C 
ATOM     19  O   UNL     1      -6.322   0.187 129.926  0.00  0.00    +0.000 OA
BRANCH  18  20
ATOM     20  C   UNL     1      -8.327   1.251 130.573  0.00  0.00    +0.000 C 
ATOM     21  O   UNL     1      -8.798   0.418 131.316  0.00  0.00    +0.000 OA
ATOM     22  N   UNL     1      -8.843   2.489 130.759  0.00  0.00    +0.000 N 
ATOM     23  C   UNL     1      -9.484   2.826 132.053  0.00  0.00    +0.000 C 
ATOM     24  C   UNL     1      -9.220   4.310 132.305  0.00  0.00    +0.000 C 
ATOM     25  N   UNL     1      -9.646   5.093 131.121  0.00  0.00    +0.000 N 
ATOM     26  C   UNL     1      -9.069   4.630 129.842  0.00  0.00    +0.000 C 
ATOM     27  C   UNL     1      -9.402   3.171 129.628  0.00  0.00    +0.000 C 
ATOM     28  C   UNL     1     -10.543   6.146 131.257  0.00  0.00    +0.000 C 
ATOM     29  O   UNL     1     -10.962   6.536 132.343  0.00  0.00    +0.000 OA
BRANCH  28  30
ATOM     30  C   UNL     1     -10.987   6.855 130.026  0.00  0.00    +0.000 A 
ATOM     31  C   UNL     1     -12.214   6.557 129.419  0.00  0.00    +0.000 A 
ATOM     32  C   UNL     1     -12.494   7.046 128.141  0.00  0.00    +0.000 A 
ATOM     33  C   UNL     1     -11.637   7.971 127.548  0.00  0.00    +0.000 A 
ATOM     34  C   UNL     1     -10.509   8.413 128.239  0.00  0.00    +0.000 A 
ATOM     35  C   UNL     1     -10.147   7.810 129.448  0.00  0.00    +0.000 A 
ENDBRANCH  28  30
ENDBRANCH  18  20
ENDBRANCH  13  18
BRANCH  15  36
ATOM     36  C   UNL     1      -8.396   0.887 124.725  0.00  0.00    +0.000 C 
BRANCH  36  37
ATOM     37  O   UNL     1      -7.762  -0.291 124.257  0.00  0.00    +0.000 OA
BRANCH  37  38
ATOM     38  P   UNL     1      -8.857  -1.502 123.688  0.00  0.00    +0.000 P 
ATOM     39  O   UNL     1      -9.838  -2.587 123.179  0.00  0.00    +0.000 OA
BRANCH  38  40
ATOM     40  O   UNL     1      -9.524  -1.474 125.198  0.00  0.00    +0.000 OA
ATOM     41  H   UNL     1     -10.255  -2.072 125.433  0.00  0.00    +0.000 HD
ENDBRANCH  38  40
BRANCH  38  42
ATOM     42  O   UNL     1      -9.774  -0.240 123.181  0.00  0.00    +0.000 OA
ATOM     43  H   UNL     1      -9.741   0.520 123.782  0.00  0.00    +0.000 HD
ENDBRANCH  38  42
ENDBRANCH  37  38
ENDBRANCH  36  37
ENDBRANCH  15  36
TORSDOF 9
ENDMDL
MODEL 4
REMARK VINA RESULT:      -8.8      3.385      9.031
REMARK  Name = Fostemsavir
REMARK  11 active torsions:
REMARK  status: ('A' for Active; 'I' for Inactive)
REMARK    1  A    between atoms: C_1  and  O_2
REMARK    2  A    between atoms: O_2  and  C_3
REMARK    3  A    between atoms: C_10  and  C_11
REMARK    4  A    between atoms: C_15  and  C_24
REMARK    5  A    between atoms: N_17  and  C_18
REMARK    6  A    between atoms: C_18  and  O_19
REMARK    7  A    between atoms: O_19  and  P_20
REMARK    8  A    between atoms: P_20  and  O_21
REMARK    9  A    between atoms: P_20  and  O_22
REMARK   10  A    between atoms: C_24  and  C_26
REMARK   11  A    between atoms: C_34  and  C_36
REMARK                            x       y       z     vdW  Elec       q    Type
REMARK                         _______ _______ _______ _____ _____    ______ ____
ROOT
ATOM      1  C   UNL     1      -4.261   3.604 127.464  0.00  0.00    +0.000 A 
ATOM      2  C   UNL     1      -3.578   3.565 128.660  0.00  0.00    +0.000 A 
ATOM      3  N   UNL     1      -4.112   3.826 129.851  0.00  0.00    +0.000 NA
ATOM      4  C   UNL     1      -5.444   4.046 129.934  0.00  0.00    +0.000 A 
ATOM      5  N   UNL     1      -5.937   4.236 131.242  0.00  0.00    +0.000 N 
ATOM      6  C   UNL     1      -5.466   5.111 132.186  0.00  0.00    +0.000 A 
ATOM      7  N   UNL     1      -6.190   5.024 133.281  0.00  0.00    +0.000 NA
ATOM      8  C   UNL     1      -7.059   4.009 132.998  0.00  0.00    +0.000 A 
ATOM      9  C   UNL     1      -8.058   3.502 133.963  0.00  0.00    +0.000 C 
ATOM     10  N   UNL     1      -6.996   3.555 131.742  0.00  0.00    +0.000 NA
ATOM     11  C   UNL     1      -6.235   4.087 128.746  0.00  0.00    +0.000 A 
ATOM     12  C   UNL     1      -5.650   3.927 127.459  0.00  0.00    +0.000 A 
ATOM     13  C   UNL     1      -6.704   4.183 126.476  0.00  0.00    +0.000 A 
ATOM     14  C   UNL     1      -7.851   4.472 127.206  0.00  0.00    +0.000 A 
ATOM     15  N   UNL     1      -7.585   4.364 128.536  0.00  0.00    +0.000 N 
ENDROOT
BRANCH   1  17
ATOM     16  C   UNL     1      -2.053   3.194 126.692  0.00  0.00    +0.000 C 
ATOM     17  O   UNL     1      -3.390   3.636 126.401  0.00  0.00    +0.000 OA
ENDBRANCH   1  17
BRANCH  13  18
ATOM     18  C   UNL     1      -6.755   4.170 124.994  0.00  0.00    +0.000 C 
ATOM     19  O   UNL     1      -6.184   5.053 124.347  0.00  0.00    +0.000 OA
BRANCH  18  20
ATOM     20  C   UNL     1      -7.553   3.137 124.190  0.00  0.00    +0.000 C 
ATOM     21  O   UNL     1      -8.273   3.433 123.262  0.00  0.00    +0.000 OA
ATOM     22  N   UNL     1      -7.499   1.804 124.423  0.00  0.00    +0.000 N 
ATOM     23  C   UNL     1      -7.854   0.858 123.337  0.00  0.00    +0.000 C 
ATOM     24  C   UNL     1      -6.986  -0.384 123.530  0.00  0.00    +0.000 C 
ATOM     25  N   UNL     1      -7.132  -0.874 124.921  0.00  0.00    +0.000 N 
ATOM     26  C   UNL     1      -6.885   0.149 125.959  0.00  0.00    +0.000 C 
ATOM     27  C   UNL     1      -7.804   1.330 125.742  0.00  0.00    +0.000 C 
ATOM     28  C   UNL     1      -7.504  -2.190 125.170  0.00  0.00    +0.000 C 
ATOM     29  O   UNL     1      -7.649  -3.027 124.283  0.00  0.00    +0.000 OA
BRANCH  28  30
ATOM     30  C   UNL     1      -7.699  -2.610 126.585  0.00  0.00    +0.000 A 
ATOM     31  C   UNL     1      -6.734  -2.336 127.563  0.00  0.00    +0.000 A 
ATOM     32  C   UNL     1      -6.818  -2.952 128.814  0.00  0.00    +0.000 A 
ATOM     33  C   UNL     1      -7.951  -3.691 129.149  0.00  0.00    +0.000 A 
ATOM     34  C   UNL     1      -9.001  -3.803 128.237  0.00  0.00    +0.000 A 
ATOM     35  C   UNL     1      -8.851  -3.319 126.934  0.00  0.00    +0.000 A 
ENDBRANCH  28  30
ENDBRANCH  18  20
ENDBRANCH  13  18
BRANCH  15  36
ATOM     36  C   UNL     1      -8.517   4.706 129.606  0.00  0.00    +0.000 C 
BRANCH  36  37
ATOM     37  O   UNL     1      -9.766   5.205 129.161  0.00  0.00    +0.000 OA
BRANCH  37  38
ATOM     38  P   UNL     1     -10.800   5.751 130.436  0.00  0.00    +0.000 P 
ATOM     39  O   UNL     1     -11.726   6.241 131.577  0.00  0.00    +0.000 OA
BRANCH  38  40
ATOM     40  O   UNL     1     -12.063   5.425 129.424  0.00  0.00    +0.000 OA
ATOM     41  H   UNL     1     -12.338   6.065 128.744  0.00  0.00    +0.000 HD
ENDBRANCH  38  40
BRANCH  38  42
ATOM     42  O   UNL     1     -10.733   4.202 130.969  0.00  0.00    +0.000 OA
ATOM     43  H   UNL     1     -11.607   3.822 131.147  0.00  0.00    +0.000 HD
ENDBRANCH  38  42
ENDBRANCH  37  38
ENDBRANCH  36  37
ENDBRANCH  15  36
TORSDOF 9
ENDMDL
MODEL 5
REMARK VINA RESULT:      -8.8      3.412      4.843
REMARK  Name = Fostemsavir
REMARK  11 active torsions:
REMARK  status: ('A' for Active; 'I' for Inactive)
REMARK    1  A    between atoms: C_1  and  O_2
REMARK    2  A    between atoms: O_2  and  C_3
REMARK    3  A    between atoms: C_10  and  C_11
REMARK    4  A    between atoms: C_15  and  C_24
REMARK    5  A    between atoms: N_17  and  C_18
REMARK    6  A    between atoms: C_18  and  O_19
REMARK    7  A    between atoms: O_19  and  P_20
REMARK    8  A    between atoms: P_20  and  O_21
REMARK    9  A    between atoms: P_20  and  O_22
REMARK   10  A    between atoms: C_24  and  C_26
REMARK   11  A    between atoms: C_34  and  C_36
REMARK                            x       y       z     vdW  Elec       q    Type
REMARK                         _______ _______ _______ _____ _____    ______ ____
ROOT
ATOM      1  C   UNL     1      -7.903  -0.482 129.977  0.00  0.00    +0.000 A 
ATOM      2  C   UNL     1      -7.664  -1.811 129.703  0.00  0.00    +0.000 A 
ATOM      3  N   UNL     1      -7.557  -2.329 128.482  0.00  0.00    +0.000 NA
ATOM      4  C   UNL     1      -7.575  -1.496 127.416  0.00  0.00    +0.000 A 
ATOM      5  N   UNL     1      -7.376  -2.121 126.167  0.00  0.00    +0.000 N 
ATOM      6  C   UNL     1      -8.050  -3.205 125.667  0.00  0.00    +0.000 A 
ATOM      7  N   UNL     1      -7.607  -3.492 124.462  0.00  0.00    +0.000 NA
ATOM      8  C   UNL     1      -6.587  -2.600 124.286  0.00  0.00    +0.000 A 
ATOM      9  C   UNL     1      -5.736  -2.568 123.077  0.00  0.00    +0.000 C 
ATOM     10  N   UNL     1      -6.464  -1.695 125.262  0.00  0.00    +0.000 NA
ATOM     11  C   UNL     1      -7.801  -0.100 127.607  0.00  0.00    +0.000 A 
ATOM     12  C   UNL     1      -8.036   0.445 128.901  0.00  0.00    +0.000 A 
ATOM     13  C   UNL     1      -8.383   1.854 128.716  0.00  0.00    +0.000 A 
ATOM     14  C   UNL     1      -8.336   2.086 127.345  0.00  0.00    +0.000 A 
ATOM     15  N   UNL     1      -7.944   0.952 126.704  0.00  0.00    +0.000 N 
ENDROOT
BRANCH   1  17
ATOM     16  C   UNL     1      -7.685  -1.198 132.231  0.00  0.00    +0.000 C 
ATOM     17  O   UNL     1      -8.305  -0.313 131.281  0.00  0.00    +0.000 OA
ENDBRANCH   1  17
BRANCH  13  18
ATOM     18  C   UNL     1      -8.724   2.961 129.642  0.00  0.00    +0.000 C 
ATOM     19  O   UNL     1      -9.151   4.031 129.197  0.00  0.00    +0.000 OA
BRANCH  18  20
ATOM     20  C   UNL     1      -8.510   2.883 131.158  0.00  0.00    +0.000 C 
ATOM     21  O   UNL     1      -9.404   2.651 131.941  0.00  0.00    +0.000 OA
ATOM     22  N   UNL     1      -7.302   3.033 131.751  0.00  0.00    +0.000 N 
ATOM     23  C   UNL     1      -7.071   2.451 133.095  0.00  0.00    +0.000 C 
ATOM     24  C   UNL     1      -5.601   2.037 133.152  0.00  0.00    +0.000 C 
ATOM     25  N   UNL     1      -4.751   3.188 132.765  0.00  0.00    +0.000 N 
ATOM     26  C   UNL     1      -5.110   3.804 131.470  0.00  0.00    +0.000 C 
ATOM     27  C   UNL     1      -6.559   4.233 131.491  0.00  0.00    +0.000 C 
ATOM     28  C   UNL     1      -3.735   3.628 133.604  0.00  0.00    +0.000 C 
ATOM     29  O   UNL     1      -3.431   3.058 134.648  0.00  0.00    +0.000 OA
BRANCH  28  30
ATOM     30  C   UNL     1      -2.955   4.829 133.194  0.00  0.00    +0.000 A 
ATOM     31  C   UNL     1      -3.482   6.119 133.338  0.00  0.00    +0.000 A 
ATOM     32  C   UNL     1      -2.847   7.201 132.723  0.00  0.00    +0.000 A 
ATOM     33  C   UNL     1      -1.602   7.025 132.121  0.00  0.00    +0.000 A 
ATOM     34  C   UNL     1      -0.991   5.772 132.147  0.00  0.00    +0.000 A 
ATOM     35  C   UNL     1      -1.691   4.660 132.624  0.00  0.00    +0.000 A 
ENDBRANCH  28  30
ENDBRANCH  18  20
ENDBRANCH  13  18
BRANCH  15  36
ATOM     36  C   UNL     1      -7.893   0.787 125.255  0.00  0.00    +0.000 C 
BRANCH  36  37
ATOM     37  O   UNL     1      -8.660   1.730 124.527  0.00  0.00    +0.000 OA
BRANCH  37  38
ATOM     38  P   UNL     1      -9.789   1.019 123.426  0.00  0.00    +0.000 P 
ATOM     39  O   UNL     1     -10.799   0.382 122.441  0.00  0.00    +0.000 OA
BRANCH  38  40
ATOM     40  O   UNL     1      -9.468  -0.418 124.173  0.00  0.00    +0.000 OA
ATOM     41  H   UNL     1      -8.845  -1.056 123.784  0.00  0.00    +0.000 HD
ENDBRANCH  38  40
BRANCH  38  42
ATOM     42  O   UNL     1     -10.922   1.427 124.540  0.00  0.00    +0.000 OA
ATOM     43  H   UNL     1     -11.334   0.659 124.963  0.00  0.00    +0.000 HD
ENDBRANCH  38  42
ENDBRANCH  37  38
ENDBRANCH  36  37
ENDBRANCH  15  36
TORSDOF 9
ENDMDL
MODEL 6
REMARK VINA RESULT:      -8.3      3.971      6.068
REMARK  Name = Fostemsavir
REMARK  11 active torsions:
REMARK  status: ('A' for Active; 'I' for Inactive)
REMARK    1  A    between atoms: C_1  and  O_2
REMARK    2  A    between atoms: O_2  and  C_3
REMARK    3  A    between atoms: C_10  and  C_11
REMARK    4  A    between atoms: C_15  and  C_24
REMARK    5  A    between atoms: N_17  and  C_18
REMARK    6  A    between atoms: C_18  and  O_19
REMARK    7  A    between atoms: O_19  and  P_20
REMARK    8  A    between atoms: P_20  and  O_21
REMARK    9  A    between atoms: P_20  and  O_22
REMARK   10  A    between atoms: C_24  and  C_26
REMARK   11  A    between atoms: C_34  and  C_36
REMARK                            x       y       z     vdW  Elec       q    Type
REMARK                         _______ _______ _______ _____ _____    ______ ____
ROOT
ATOM      1  C   UNL     1      -8.140   2.281 128.899  0.00  0.00    +0.000 A 
ATOM      2  C   UNL     1      -8.014   2.441 127.537  0.00  0.00    +0.000 A 
ATOM      3  N   UNL     1      -7.504   1.535 126.707  0.00  0.00    +0.000 NA
ATOM      4  C   UNL     1      -7.174   0.317 127.195  0.00  0.00    +0.000 A 
ATOM      5  N   UNL     1      -6.715  -0.607 126.232  0.00  0.00    +0.000 N 
ATOM      6  C   UNL     1      -5.722  -0.415 125.308  0.00  0.00    +0.000 A 
ATOM      7  N   UNL     1      -5.556  -1.508 124.594  0.00  0.00    +0.000 NA
ATOM      8  C   UNL     1      -6.538  -2.335 125.060  0.00  0.00    +0.000 A 
ATOM      9  C   UNL     1      -6.786  -3.687 124.515  0.00  0.00    +0.000 C 
ATOM     10  N   UNL     1      -7.214  -1.860 126.110  0.00  0.00    +0.000 NA
ATOM     11  C   UNL     1      -7.289   0.055 128.593  0.00  0.00    +0.000 A 
ATOM     12  C   UNL     1      -7.721   1.058 129.504  0.00  0.00    +0.000 A 
ATOM     13  C   UNL     1      -7.570   0.508 130.852  0.00  0.00    +0.000 A 
ATOM     14  C   UNL     1      -7.069  -0.779 130.689  0.00  0.00    +0.000 A 
ATOM     15  N   UNL     1      -6.955  -1.059 129.362  0.00  0.00    +0.000 N 
ENDROOT
BRANCH   1  17
ATOM     16  C   UNL     1      -9.641   3.611 130.170  0.00  0.00    +0.000 C 
ATOM     17  O   UNL     1      -8.366   3.487 129.519  0.00  0.00    +0.000 OA
ENDBRANCH   1  17
BRANCH  13  18
ATOM     18  C   UNL     1      -7.846   1.026 132.213  0.00  0.00    +0.000 C 
ATOM     19  O   UNL     1      -9.009   1.132 132.611  0.00  0.00    +0.000 OA
BRANCH  18  20
ATOM     20  C   UNL     1      -6.747   1.518 133.163  0.00  0.00    +0.000 C 
ATOM     21  O   UNL     1      -6.724   1.249 134.344  0.00  0.00    +0.000 OA
ATOM     22  N   UNL     1      -5.691   2.265 132.762  0.00  0.00    +0.000 N 
ATOM     23  C   UNL     1      -4.447   2.264 133.569  0.00  0.00    +0.000 C 
ATOM     24  C   UNL     1      -3.285   2.437 132.593  0.00  0.00    +0.000 C 
ATOM     25  N   UNL     1      -3.531   3.624 131.741  0.00  0.00    +0.000 N 
ATOM     26  C   UNL     1      -4.842   3.625 131.058  0.00  0.00    +0.000 C 
ATOM     27  C   UNL     1      -5.951   3.499 132.078  0.00  0.00    +0.000 C 
ATOM     28  C   UNL     1      -2.584   4.638 131.654  0.00  0.00    +0.000 C 
ATOM     29  O   UNL     1      -1.483   4.578 132.194  0.00  0.00    +0.000 OA
BRANCH  28  30
ATOM     30  C   UNL     1      -2.912   5.838 130.835  0.00  0.00    +0.000 A 
ATOM     31  C   UNL     1      -3.655   6.899 131.369  0.00  0.00    +0.000 A 
ATOM     32  C   UNL     1      -4.161   7.887 130.522  0.00  0.00    +0.000 A 
ATOM     33  C   UNL     1      -3.780   7.915 129.181  0.00  0.00    +0.000 A 
ATOM     34  C   UNL     1      -2.885   6.963 128.695  0.00  0.00    +0.000 A 
ATOM     35  C   UNL     1      -2.500   5.887 129.501  0.00  0.00    +0.000 A 
ENDBRANCH  28  30
ENDBRANCH  18  20
ENDBRANCH  13  18
BRANCH  15  36
ATOM     36  C   UNL     1      -6.357  -2.272 128.812  0.00  0.00    +0.000 C 
BRANCH  36  37
ATOM     37  O   UNL     1      -4.950  -2.215 128.653  0.00  0.00    +0.000 OA
BRANCH  37  38
ATOM     38  P   UNL     1      -4.066  -2.991 129.922  0.00  0.00    +0.000 P 
ATOM     39  O   UNL     1      -3.276  -3.687 131.056  0.00  0.00    +0.000 OA
BRANCH  38  40
ATOM     40  O   UNL     1      -3.352  -3.897 128.740  0.00  0.00    +0.000 OA
ATOM     41  H   UNL     1      -3.822  -4.102 127.913  0.00  0.00    +0.000 HD
ENDBRANCH  38  40
BRANCH  38  42
ATOM     42  O   UNL     1      -2.991  -1.768 129.734  0.00  0.00    +0.000 OA
ATOM     43  H   UNL     1      -2.237  -1.826 130.341  0.00  0.00    +0.000 HD
ENDBRANCH  38  42
ENDBRANCH  37  38
ENDBRANCH  36  37
ENDBRANCH  15  36
TORSDOF 9
ENDMDL
MODEL 7
REMARK VINA RESULT:      -8.3      3.658      6.274
REMARK  Name = Fostemsavir
REMARK  11 active torsions:
REMARK  status: ('A' for Active; 'I' for Inactive)
REMARK    1  A    between atoms: C_1  and  O_2
REMARK    2  A    between atoms: O_2  and  C_3
REMARK    3  A    between atoms: C_10  and  C_11
REMARK    4  A    between atoms: C_15  and  C_24
REMARK    5  A    between atoms: N_17  and  C_18
REMARK    6  A    between atoms: C_18  and  O_19
REMARK    7  A    between atoms: O_19  and  P_20
REMARK    8  A    between atoms: P_20  and  O_21
REMARK    9  A    between atoms: P_20  and  O_22
REMARK   10  A    between atoms: C_24  and  C_26
REMARK   11  A    between atoms: C_34  and  C_36
REMARK                            x       y       z     vdW  Elec       q    Type
REMARK                         _______ _______ _______ _____ _____    ______ ____
ROOT
ATOM      1  C   UNL     1      -7.440   2.351 124.280  0.00  0.00    +0.000 A 
ATOM      2  C   UNL     1      -8.444   1.543 123.790  0.00  0.00    +0.000 A 
ATOM      3  N   UNL     1      -8.629   0.270 124.128  0.00  0.00    +0.000 NA
ATOM      4  C   UNL     1      -7.856  -0.267 125.099  0.00  0.00    +0.000 A 
ATOM      5  N   UNL     1      -8.173  -1.596 125.449  0.00  0.00    +0.000 N 
ATOM      6  C   UNL     1      -8.312  -2.664 124.602  0.00  0.00    +0.000 A 
ATOM      7  N   UNL     1      -8.589  -3.751 125.291  0.00  0.00    +0.000 NA
ATOM      8  C   UNL     1      -8.697  -3.287 126.571  0.00  0.00    +0.000 A 
ATOM      9  C   UNL     1      -9.056  -4.148 127.718  0.00  0.00    +0.000 C 
ATOM     10  N   UNL     1      -8.373  -2.000 126.726  0.00  0.00    +0.000 NA
ATOM     11  C   UNL     1      -6.801   0.503 125.676  0.00  0.00    +0.000 A 
ATOM     12  C   UNL     1      -6.520   1.826 125.235  0.00  0.00    +0.000 A 
ATOM     13  C   UNL     1      -5.296   2.253 125.914  0.00  0.00    +0.000 A 
ATOM     14  C   UNL     1      -4.911   1.188 126.721  0.00  0.00    +0.000 A 
ATOM     15  N   UNL     1      -5.824   0.184 126.618  0.00  0.00    +0.000 N 
ENDROOT
BRANCH   1  17
ATOM     16  C   UNL     1      -6.656   3.261 122.232  0.00  0.00    +0.000 C 
ATOM     17  O   UNL     1      -7.291   3.475 123.503  0.00  0.00    +0.000 OA
ENDBRANCH   1  17
BRANCH  13  18
ATOM     18  C   UNL     1      -4.493   3.500 125.903  0.00  0.00    +0.000 C 
ATOM     19  O   UNL     1      -4.543   4.259 124.931  0.00  0.00    +0.000 OA
BRANCH  18  20
ATOM     20  C   UNL     1      -3.523   3.883 127.027  0.00  0.00    +0.000 C 
ATOM     21  O   UNL     1      -2.328   3.692 126.963  0.00  0.00    +0.000 OA
ATOM     22  N   UNL     1      -3.908   4.498 128.170  0.00  0.00    +0.000 N 
ATOM     23  C   UNL     1      -2.918   5.285 128.944  0.00  0.00    +0.000 C 
ATOM     24  C   UNL     1      -3.680   6.437 129.597  0.00  0.00    +0.000 C 
ATOM     25  N   UNL     1      -4.841   5.899 130.343  0.00  0.00    +0.000 N 
ATOM     26  C   UNL     1      -5.725   5.021 129.548  0.00  0.00    +0.000 C 
ATOM     27  C   UNL     1      -4.924   3.877 128.968  0.00  0.00    +0.000 C 
ATOM     28  C   UNL     1      -5.017   6.201 131.688  0.00  0.00    +0.000 C 
ATOM     29  O   UNL     1      -4.292   6.978 132.303  0.00  0.00    +0.000 OA
BRANCH  28  30
ATOM     30  C   UNL     1      -6.165   5.580 132.404  0.00  0.00    +0.000 A 
ATOM     31  C   UNL     1      -7.448   6.140 132.343  0.00  0.00    +0.000 A 
ATOM     32  C   UNL     1      -8.443   5.692 133.215  0.00  0.00    +0.000 A 
ATOM     33  C   UNL     1      -8.215   4.574 134.015  0.00  0.00    +0.000 A 
ATOM     34  C   UNL     1      -6.996   3.900 133.932  0.00  0.00    +0.000 A 
ATOM     35  C   UNL     1      -5.948   4.436 133.178  0.00  0.00    +0.000 A 
ENDBRANCH  28  30
ENDBRANCH  18  20
ENDBRANCH  13  18
BRANCH  15  36
ATOM     36  C   UNL     1      -5.690  -1.133 127.231  0.00  0.00    +0.000 C 
BRANCH  36  37
ATOM     37  O   UNL     1      -5.381  -1.111 128.613  0.00  0.00    +0.000 OA
BRANCH  37  38
ATOM     38  P   UNL     1      -5.844  -2.545 129.462  0.00  0.00    +0.000 P 
ATOM     39  O   UNL     1      -6.258  -3.829 130.222  0.00  0.00    +0.000 OA
BRANCH  38  40
ATOM     40  O   UNL     1      -5.229  -1.829 130.817  0.00  0.00    +0.000 OA
ATOM     41  H   UNL     1      -5.606  -0.999 131.159  0.00  0.00    +0.000 HD
ENDBRANCH  38  40
BRANCH  38  42
ATOM     42  O   UNL     1      -7.296  -1.805 129.643  0.00  0.00    +0.000 OA
ATOM     43  H   UNL     1      -7.869  -1.895 128.866  0.00  0.00    +0.000 HD
ENDBRANCH  38  42
ENDBRANCH  37  38
ENDBRANCH  36  37
ENDBRANCH  15  36
TORSDOF 9
ENDMDL
MODEL 8
REMARK VINA RESULT:      -8.2      4.192      9.997
REMARK  Name = Fostemsavir
REMARK  11 active torsions:
REMARK  status: ('A' for Active; 'I' for Inactive)
REMARK    1  A    between atoms: C_1  and  O_2
REMARK    2  A    between atoms: O_2  and  C_3
REMARK    3  A    between atoms: C_10  and  C_11
REMARK    4  A    between atoms: C_15  and  C_24
REMARK    5  A    between atoms: N_17  and  C_18
REMARK    6  A    between atoms: C_18  and  O_19
REMARK    7  A    between atoms: O_19  and  P_20
REMARK    8  A    between atoms: P_20  and  O_21
REMARK    9  A    between atoms: P_20  and  O_22
REMARK   10  A    between atoms: C_24  and  C_26
REMARK   11  A    between atoms: C_34  and  C_36
REMARK                            x       y       z     vdW  Elec       q    Type
REMARK                         _______ _______ _______ _____ _____    ______ ____
ROOT
ATOM      1  C   UNL     1      -3.772   4.291 128.010  0.00  0.00    +0.000 A 
ATOM      2  C   UNL     1      -2.624   4.758 128.610  0.00  0.00    +0.000 A 
ATOM      3  N   UNL     1      -2.584   5.436 129.754  0.00  0.00    +0.000 NA
ATOM      4  C   UNL     1      -3.729   5.602 130.454  0.00  0.00    +0.000 A 
ATOM      5  N   UNL     1      -3.583   6.263 131.692  0.00  0.00    +0.000 N 
ATOM      6  C   UNL     1      -2.957   7.461 131.921  0.00  0.00    +0.000 A 
ATOM      7  N   UNL     1      -3.038   7.772 133.198  0.00  0.00    +0.000 NA
ATOM      8  C   UNL     1      -3.657   6.684 133.744  0.00  0.00    +0.000 A 
ATOM      9  C   UNL     1      -3.927   6.545 135.191  0.00  0.00    +0.000 C 
ATOM     10  N   UNL     1      -4.079   5.779 132.855  0.00  0.00    +0.000 NA
ATOM     11  C   UNL     1      -4.967   5.135 129.917  0.00  0.00    +0.000 A 
ATOM     12  C   UNL     1      -5.034   4.514 128.638  0.00  0.00    +0.000 A 
ATOM     13  C   UNL     1      -6.451   4.310 128.335  0.00  0.00    +0.000 A 
ATOM     14  C   UNL     1      -7.154   4.802 129.429  0.00  0.00    +0.000 A 
ATOM     15  N   UNL     1      -6.279   5.237 130.376  0.00  0.00    +0.000 N 
ENDROOT
BRANCH   1  17
ATOM     16  C   UNL     1      -3.741   2.561 126.384  0.00  0.00    +0.000 C 
ATOM     17  O   UNL     1      -3.539   3.949 126.699  0.00  0.00    +0.000 OA
ENDBRANCH   1  17
BRANCH  13  18
ATOM     18  C   UNL     1      -7.184   3.715 127.192  0.00  0.00    +0.000 C 
ATOM     19  O   UNL     1      -7.047   4.183 126.058  0.00  0.00    +0.000 OA
BRANCH  18  20
ATOM     20  C   UNL     1      -8.186   2.565 127.344  0.00  0.00    +0.000 C 
ATOM     21  O   UNL     1      -9.003   2.512 128.238  0.00  0.00    +0.000 OA
ATOM     22  N   UNL     1      -8.271   1.527 126.479  0.00  0.00    +0.000 N 
ATOM     23  C   UNL     1      -9.538   0.763 126.376  0.00  0.00    +0.000 C 
ATOM     24  C   UNL     1      -9.659   0.298 124.926  0.00  0.00    +0.000 C 
ATOM     25  N   UNL     1      -8.417  -0.406 124.530  0.00  0.00    +0.000 N 
ATOM     26  C   UNL     1      -7.176   0.360 124.771  0.00  0.00    +0.000 C 
ATOM     27  C   UNL     1      -7.091   0.751 126.229  0.00  0.00    +0.000 C 
ATOM     28  C   UNL     1      -8.471  -1.693 124.009  0.00  0.00    +0.000 C 
ATOM     29  O   UNL     1      -9.524  -2.278 123.772  0.00  0.00    +0.000 OA
BRANCH  28  30
ATOM     30  C   UNL     1      -7.188  -2.377 123.689  0.00  0.00    +0.000 A 
ATOM     31  C   UNL     1      -6.734  -3.461 124.452  0.00  0.00    +0.000 A 
ATOM     32  C   UNL     1      -5.425  -3.921 124.296  0.00  0.00    +0.000 A 
ATOM     33  C   UNL     1      -4.633  -3.424 123.262  0.00  0.00    +0.000 A 
ATOM     34  C   UNL     1      -5.157  -2.477 122.381  0.00  0.00    +0.000 A 
ATOM     35  C   UNL     1      -6.408  -1.906 122.630  0.00  0.00    +0.000 A 
ENDBRANCH  28  30
ENDBRANCH  18  20
ENDBRANCH  13  18
BRANCH  15  36
ATOM     36  C   UNL     1      -6.653   5.922 131.609  0.00  0.00    +0.000 C 
BRANCH  36  37
ATOM     37  O   UNL     1      -7.526   5.188 132.449  0.00  0.00    +0.000 OA
BRANCH  37  38
ATOM     38  P   UNL     1      -9.122   5.849 132.556  0.00  0.00    +0.000 P 
ATOM     39  O   UNL     1     -10.549   6.439 132.652  0.00  0.00    +0.000 OA
BRANCH  38  40
ATOM     40  O   UNL     1      -9.663   4.289 132.586  0.00  0.00    +0.000 OA
ATOM     41  H   UNL     1     -10.467   4.048 133.078  0.00  0.00    +0.000 HD
ENDBRANCH  38  40
BRANCH  38  42
ATOM     42  O   UNL     1      -8.858   5.863 134.175  0.00  0.00    +0.000 OA
ATOM     43  H   UNL     1      -7.925   5.983 134.408  0.00  0.00    +0.000 HD
ENDBRANCH  38  42
ENDBRANCH  37  38
ENDBRANCH  36  37
ENDBRANCH  15  36
TORSDOF 9
ENDMDL
MODEL 9
REMARK VINA RESULT:      -8.1      3.999      5.409
REMARK  Name = Fostemsavir
REMARK  11 active torsions:
REMARK  status: ('A' for Active; 'I' for Inactive)
REMARK    1  A    between atoms: C_1  and  O_2
REMARK    2  A    between atoms: O_2  and  C_3
REMARK    3  A    between atoms: C_10  and  C_11
REMARK    4  A    between atoms: C_15  and  C_24
REMARK    5  A    between atoms: N_17  and  C_18
REMARK    6  A    between atoms: C_18  and  O_19
REMARK    7  A    between atoms: O_19  and  P_20
REMARK    8  A    between atoms: P_20  and  O_21
REMARK    9  A    between atoms: P_20  and  O_22
REMARK   10  A    between atoms: C_24  and  C_26
REMARK   11  A    between atoms: C_34  and  C_36
REMARK                            x       y       z     vdW  Elec       q    Type
REMARK                         _______ _______ _______ _____ _____    ______ ____
ROOT
ATOM      1  C   UNL     1      -6.299   0.427 133.148  0.00  0.00    +0.000 A 
ATOM      2  C   UNL     1      -5.611  -0.676 132.693  0.00  0.00    +0.000 A 
ATOM      3  N   UNL     1      -5.619  -1.114 131.436  0.00  0.00    +0.000 NA
ATOM      4  C   UNL     1      -6.255  -0.381 130.494  0.00  0.00    +0.000 A 
ATOM      5  N   UNL     1      -6.146  -0.875 129.178  0.00  0.00    +0.000 N 
ATOM      6  C   UNL     1      -6.415  -2.149 128.747  0.00  0.00    +0.000 A 
ATOM      7  N   UNL     1      -6.221  -2.234 127.448  0.00  0.00    +0.000 NA
ATOM      8  C   UNL     1      -5.746  -0.995 127.124  0.00  0.00    +0.000 A 
ATOM      9  C   UNL     1      -5.329  -0.618 125.757  0.00  0.00    +0.000 C 
ATOM     10  N   UNL     1      -5.760  -0.112 128.128  0.00  0.00    +0.000 NA
ATOM     11  C   UNL     1      -6.981   0.789 130.873  0.00  0.00    +0.000 A 
ATOM     12  C   UNL     1      -7.076   1.197 132.232  0.00  0.00    +0.000 A 
ATOM     13  C   UNL     1      -8.010   2.323 132.278  0.00  0.00    +0.000 A 
ATOM     14  C   UNL     1      -8.420   2.537 130.966  0.00  0.00    +0.000 A 
ATOM     15  N   UNL     1      -7.774   1.670 130.139  0.00  0.00    +0.000 N 
ENDROOT
BRANCH   1  17
ATOM     16  C   UNL     1      -5.437   1.275 135.192  0.00  0.00    +0.000 C 
ATOM     17  O   UNL     1      -6.382   0.424 134.520  0.00  0.00    +0.000 OA
ENDBRANCH   1  17
BRANCH  13  18
ATOM     18  C   UNL     1      -8.526   3.190 133.364  0.00  0.00    +0.000 C 
ATOM     19  O   UNL     1      -9.732   3.198 133.630  0.00  0.00    +0.000 OA
BRANCH  18  20
ATOM     20  C   UNL     1      -7.641   4.159 134.157  0.00  0.00    +0.000 C 
ATOM     21  O   UNL     1      -7.936   4.576 135.255  0.00  0.00    +0.000 OA
ATOM     22  N   UNL     1      -6.441   4.605 133.717  0.00  0.00    +0.000 N 
ATOM     23  C   UNL     1      -5.438   5.088 134.697  0.00  0.00    +0.000 C 
ATOM     24  C   UNL     1      -4.062   4.744 134.130  0.00  0.00    +0.000 C 
ATOM     25  N   UNL     1      -3.955   5.267 132.748  0.00  0.00    +0.000 N 
ATOM     26  C   UNL     1      -5.052   4.849 131.850  0.00  0.00    +0.000 C 
ATOM     27  C   UNL     1      -6.382   5.258 132.441  0.00  0.00    +0.000 C 
ATOM     28  C   UNL     1      -2.905   6.104 132.389  0.00  0.00    +0.000 C 
ATOM     29  O   UNL     1      -1.982   6.387 133.148  0.00  0.00    +0.000 OA
BRANCH  28  30
ATOM     30  C   UNL     1      -2.884   6.652 131.005  0.00  0.00    +0.000 A 
ATOM     31  C   UNL     1      -3.634   7.785 130.662  0.00  0.00    +0.000 A 
ATOM     32  C   UNL     1      -3.797   8.129 129.319  0.00  0.00    +0.000 A 
ATOM     33  C   UNL     1      -3.072   7.457 128.336  0.00  0.00    +0.000 A 
ATOM     34  C   UNL     1      -2.178   6.451 128.702  0.00  0.00    +0.000 A 
ATOM     35  C   UNL     1      -2.129   6.003 130.025  0.00  0.00    +0.000 A 
ENDBRANCH  28  30
ENDBRANCH  18  20
ENDBRANCH  13  18
BRANCH  15  36
ATOM     36  C   UNL     1      -8.035   1.526 128.711  0.00  0.00    +0.000 C 
BRANCH  36  37
ATOM     37  O   UNL     1      -8.663   2.646 128.111  0.00  0.00    +0.000 OA
BRANCH  37  38
ATOM     38  P   UNL     1      -7.560   3.774 127.401  0.00  0.00    +0.000 P 
ATOM     39  O   UNL     1      -6.572   4.784 126.767  0.00  0.00    +0.000 OA
BRANCH  38  40
ATOM     40  O   UNL     1      -6.634   2.469 126.996  0.00  0.00    +0.000 OA
ATOM     41  H   UNL     1      -6.979   1.773 126.409  0.00  0.00    +0.000 HD
ENDBRANCH  38  40
BRANCH  38  42
ATOM     42  O   UNL     1      -8.487   3.625 126.057  0.00  0.00    +0.000 OA
ATOM     43  H   UNL     1      -8.677   4.473 125.629  0.00  0.00    +0.000 HD
ENDBRANCH  38  42
ENDBRANCH  37  38
ENDBRANCH  36  37
ENDBRANCH  15  36
TORSDOF 9
ENDMDL
