MODEL 1
REMARK VINA RESULT:      -8.3      0.000      0.000
REMARK  Name = Fostamatinib
REMARK  14 active torsions:
REMARK  status: ('A' for Active; 'I' for Inactive)
REMARK    1  A    between atoms: C_1  and  O_2
REMARK    2  A    between atoms: O_2  and  C_3
REMARK    3  A    between atoms: C_5  and  N_6
REMARK    4  A    between atoms: C_19  and  C_20
REMARK    5  A    between atoms: C_19  and  C_21
REMARK    6  A    between atoms: N_24  and  C_25
REMARK    7  A    between atoms: C_25  and  O_26
REMARK    8  A    between atoms: O_26  and  P_27
REMARK    9  A    between atoms: P_27  and  O_28
REMARK   10  A    between atoms: P_27  and  O_29
REMARK   11  A    between atoms: C_35  and  O_36
REMARK   12  A    between atoms: O_36  and  C_37
REMARK   13  A    between atoms: C_38  and  O_39
REMARK   14  A    between atoms: O_39  and  C_40
REMARK                            x       y       z     vdW  Elec       q    Type
REMARK                         _______ _______ _______ _____ _____    ______ ____
ROOT
ATOM      1  N   UNL     1      -8.872   2.737 122.855  0.00  0.00    +0.000 N 
ATOM      2  C   UNL     1      -8.522   2.976 124.194  0.00  0.00    +0.000 A 
ATOM      3  N   UNL     1      -8.137   4.218 124.554  0.00  0.00    +0.000 NA
ATOM      4  C   UNL     1      -7.706   4.395 125.812  0.00  0.00    +0.000 A 
ATOM      5  C   UNL     1      -7.630   3.383 126.718  0.00  0.00    +0.000 A 
ATOM      6  F   UNL     1      -7.108   3.636 127.926  0.00  0.00    +0.000 F 
ATOM      7  C   UNL     1      -8.062   2.128 126.305  0.00  0.00    +0.000 A 
ATOM      8  N   UNL     1      -7.965   1.022 127.168  0.00  0.00    +0.000 N 
ATOM      9  C   UNL     1      -7.689   1.084 128.540  0.00  0.00    +0.000 A 
ATOM     10  N   UNL     1      -8.414   1.942 129.312  0.00  0.00    +0.000 NA
ATOM     11  C   UNL     1      -8.023   2.158 130.589  0.00  0.00    +0.000 A 
ATOM     12  C   UNL     1      -6.890   1.536 131.140  0.00  0.00    +0.000 A 
ATOM     13  O   UNL     1      -6.410   1.795 132.408  0.00  0.00    +0.000 OA
ATOM     14  C   UNL     1      -6.999   2.959 133.016  0.00  0.00    +0.000 C 
ATOM     15  C   UNL     1      -6.374   4.236 132.410  0.00  0.00    +0.000 C 
ATOM     16  C   UNL     1      -6.706   2.996 134.522  0.00  0.00    +0.000 C 
ATOM     17  C   UNL     1      -8.522   2.991 132.775  0.00  0.00    +0.000 C 
ATOM     18  O   UNL     1      -9.360   3.028 133.650  0.00  0.00    +0.000 OA
ATOM     19  N   UNL     1      -8.799   3.016 131.416  0.00  0.00    +0.000 N 
ATOM     20  C   UNL     1      -6.167   0.645 130.351  0.00  0.00    +0.000 A 
ATOM     21  C   UNL     1      -6.577   0.404 129.037  0.00  0.00    +0.000 A 
ATOM     22  N   UNL     1      -8.531   1.927 125.047  0.00  0.00    +0.000 NA
ATOM     23  H   UNL     1      -9.804   2.365 122.771  0.00  0.00    +0.000 HD
ATOM     24  H   UNL     1      -8.207   0.132 126.759  0.00  0.00    +0.000 HD
ENDROOT
BRANCH   1  27
ATOM     25  C   UNL     1      -8.232   4.139 119.403  0.00  0.00    +0.000 A 
ATOM     26  C   UNL     1      -8.903   3.577 120.526  0.00  0.00    +0.000 A 
ATOM     27  C   UNL     1      -8.213   3.199 121.698  0.00  0.00    +0.000 A 
ATOM     28  C   UNL     1      -6.816   3.258 121.666  0.00  0.00    +0.000 A 
ATOM     29  C   UNL     1      -6.130   3.839 120.601  0.00  0.00    +0.000 A 
ATOM     30  C   UNL     1      -6.839   4.329 119.481  0.00  0.00    +0.000 A 
BRANCH  25  32
ATOM     31  C   UNL     1     -10.447   4.862 118.744  0.00  0.00    +0.000 C 
ATOM     32  O   UNL     1      -9.060   4.684 118.442  0.00  0.00    +0.000 OA
ENDBRANCH  25  32
BRANCH  29  33
ATOM     33  O   UNL     1      -4.765   3.919 120.821  0.00  0.00    +0.000 OA
ATOM     34  C   UNL     1      -4.301   4.912 121.732  0.00  0.00    +0.000 C 
ENDBRANCH  29  33
BRANCH  30  35
ATOM     35  O   UNL     1      -6.044   5.073 118.671  0.00  0.00    +0.000 OA
ATOM     36  C   UNL     1      -5.976   6.455 118.741  0.00  0.00    +0.000 C 
ENDBRANCH  30  35
ENDBRANCH   1  27
BRANCH  19  37
ATOM     37  C   UNL     1      -9.708   3.991 130.837  0.00  0.00    +0.000 C 
BRANCH  37  38
ATOM     38  O   UNL     1      -9.410   5.338 131.267  0.00  0.00    +0.000 OA
BRANCH  38  39
ATOM     39  P   UNL     1     -10.834   6.293 131.498  0.00  0.00    +0.000 P 
ATOM     40  O   UNL     1     -12.108   7.149 131.704  0.00  0.00    +0.000 OA
BRANCH  39  41
ATOM     41  O   UNL     1     -11.641   5.050 130.801  0.00  0.00    +0.000 OA
ATOM     42  H   UNL     1     -12.582   5.190 130.618  0.00  0.00    +0.000 HD
ENDBRANCH  39  41
BRANCH  39  43
ATOM     43  O   UNL     1     -10.811   5.673 133.012  0.00  0.00    +0.000 OA
ATOM     44  H   UNL     1     -11.041   6.339 133.682  0.00  0.00    +0.000 HD
ENDBRANCH  39  43
ENDBRANCH  38  39
ENDBRANCH  37  38
ENDBRANCH  19  37
TORSDOF 9
ENDMDL
MODEL 2
REMARK VINA RESULT:      -8.2      4.767     10.937
REMARK  Name = Fostamatinib
REMARK  14 active torsions:
REMARK  status: ('A' for Active; 'I' for Inactive)
REMARK    1  A    between atoms: C_1  and  O_2
REMARK    2  A    between atoms: O_2  and  C_3
REMARK    3  A    between atoms: C_5  and  N_6
REMARK    4  A    between atoms: C_19  and  C_20
REMARK    5  A    between atoms: C_19  and  C_21
REMARK    6  A    between atoms: N_24  and  C_25
REMARK    7  A    between atoms: C_25  and  O_26
REMARK    8  A    between atoms: O_26  and  P_27
REMARK    9  A    between atoms: P_27  and  O_28
REMARK   10  A    between atoms: P_27  and  O_29
REMARK   11  A    between atoms: C_35  and  O_36
REMARK   12  A    between atoms: O_36  and  C_37
REMARK   13  A    between atoms: C_38  and  O_39
REMARK   14  A    between atoms: O_39  and  C_40
REMARK                            x       y       z     vdW  Elec       q    Type
REMARK                         _______ _______ _______ _____ _____    ______ ____
ROOT
ATOM      1  N   UNL     1      -7.390  -1.240 130.379  0.00  0.00    +0.000 N 
ATOM      2  C   UNL     1      -7.158  -0.762 129.079  0.00  0.00    +0.000 A 
ATOM      3  N   UNL     1      -6.748  -1.630 128.131  0.00  0.00    +0.000 NA
ATOM      4  C   UNL     1      -6.431  -1.132 126.926  0.00  0.00    +0.000 A 
ATOM      5  C   UNL     1      -6.491   0.196 126.636  0.00  0.00    +0.000 A 
ATOM      6  F   UNL     1      -6.075   0.612 125.432  0.00  0.00    +0.000 F 
ATOM      7  C   UNL     1      -6.942   1.045 127.639  0.00  0.00    +0.000 A 
ATOM      8  N   UNL     1      -6.981   2.435 127.430  0.00  0.00    +0.000 N 
ATOM      9  C   UNL     1      -6.834   3.076 126.193  0.00  0.00    +0.000 A 
ATOM     10  N   UNL     1      -7.587   2.643 125.143  0.00  0.00    +0.000 NA
ATOM     11  C   UNL     1      -7.309   3.114 123.905  0.00  0.00    +0.000 A 
ATOM     12  C   UNL     1      -6.265   4.023 123.667  0.00  0.00    +0.000 A 
ATOM     13  O   UNL     1      -5.896   4.460 122.410  0.00  0.00    +0.000 OA
ATOM     14  C   UNL     1      -6.483   3.694 121.344  0.00  0.00    +0.000 C 
ATOM     15  C   UNL     1      -5.743   2.345 121.202  0.00  0.00    +0.000 C 
ATOM     16  C   UNL     1      -6.333   4.422 120.001  0.00  0.00    +0.000 C 
ATOM     17  C   UNL     1      -7.973   3.413 121.627  0.00  0.00    +0.000 C 
ATOM     18  O   UNL     1      -8.888   3.733 120.899  0.00  0.00    +0.000 OA
ATOM     19  N   UNL     1      -8.118   2.704 122.810  0.00  0.00    +0.000 N 
ATOM     20  C   UNL     1      -5.514   4.476 124.749  0.00  0.00    +0.000 A 
ATOM     21  C   UNL     1      -5.809   4.008 126.032  0.00  0.00    +0.000 A 
ATOM     22  N   UNL     1      -7.299   0.565 128.857  0.00  0.00    +0.000 NA
ATOM     23  H   UNL     1      -8.327  -1.040 130.691  0.00  0.00    +0.000 HD
ATOM     24  H   UNL     1      -7.226   2.987 128.239  0.00  0.00    +0.000 HD
ENDROOT
BRANCH   1  27
ATOM     25  C   UNL     1      -6.294  -3.765 132.970  0.00  0.00    +0.000 A 
ATOM     26  C   UNL     1      -7.061  -2.773 132.295  0.00  0.00    +0.000 A 
ATOM     27  C   UNL     1      -6.602  -2.147 131.117  0.00  0.00    +0.000 A 
ATOM     28  C   UNL     1      -5.293  -2.425 130.710  0.00  0.00    +0.000 A 
ATOM     29  C   UNL     1      -4.530  -3.418 131.322  0.00  0.00    +0.000 A 
ATOM     30  C   UNL     1      -5.046  -4.130 132.429  0.00  0.00    +0.000 A 
BRANCH  25  32
ATOM     31  C   UNL     1      -8.207  -3.928 134.446  0.00  0.00    +0.000 C 
ATOM     32  O   UNL     1      -6.974  -4.458 133.952  0.00  0.00    +0.000 OA
ENDBRANCH  25  32
BRANCH  29  33
ATOM     33  O   UNL     1      -3.317  -3.632 130.690  0.00  0.00    +0.000 OA
ATOM     34  C   UNL     1      -3.228  -3.303 129.306  0.00  0.00    +0.000 C 
ENDBRANCH  29  33
BRANCH  30  35
ATOM     35  O   UNL     1      -4.281  -5.209 132.732  0.00  0.00    +0.000 OA
ATOM     36  C   UNL     1      -3.454  -5.261 133.844  0.00  0.00    +0.000 C 
ENDBRANCH  30  35
ENDBRANCH   1  27
BRANCH  19  37
ATOM     37  C   UNL     1      -8.919   1.494 122.884  0.00  0.00    +0.000 C 
BRANCH  37  38
ATOM     38  O   UNL     1      -8.112   0.316 123.104  0.00  0.00    +0.000 OA
BRANCH  38  39
ATOM     39  P   UNL     1      -9.056  -1.130 123.200  0.00  0.00    +0.000 P 
ATOM     40  O   UNL     1      -9.901  -2.425 123.286  0.00  0.00    +0.000 OA
BRANCH  39  41
ATOM     41  O   UNL     1      -9.415  -0.658 124.727  0.00  0.00    +0.000 OA
ATOM     42  H   UNL     1      -9.959   0.137 124.820  0.00  0.00    +0.000 HD
ENDBRANCH  39  41
BRANCH  39  43
ATOM     43  O   UNL     1     -10.207  -0.237 122.456  0.00  0.00    +0.000 OA
ATOM     44  H   UNL     1     -10.476   0.530 122.990  0.00  0.00    +0.000 HD
ENDBRANCH  39  43
ENDBRANCH  38  39
ENDBRANCH  37  38
ENDBRANCH  19  37
TORSDOF 9
ENDMDL
MODEL 3
REMARK VINA RESULT:      -8.1      4.682     11.006
REMARK  Name = Fostamatinib
REMARK  14 active torsions:
REMARK  status: ('A' for Active; 'I' for Inactive)
REMARK    1  A    between atoms: C_1  and  O_2
REMARK    2  A    between atoms: O_2  and  C_3
REMARK    3  A    between atoms: C_5  and  N_6
REMARK    4  A    between atoms: C_19  and  C_20
REMARK    5  A    between atoms: C_19  and  C_21
REMARK    6  A    between atoms: N_24  and  C_25
REMARK    7  A    between atoms: C_25  and  O_26
REMARK    8  A    between atoms: O_26  and  P_27
REMARK    9  A    between atoms: P_27  and  O_28
REMARK   10  A    between atoms: P_27  and  O_29
REMARK   11  A    between atoms: C_35  and  O_36
REMARK   12  A    between atoms: O_36  and  C_37
REMARK   13  A    between atoms: C_38  and  O_39
REMARK   14  A    between atoms: O_39  and  C_40
REMARK                            x       y       z     vdW  Elec       q    Type
REMARK                         _______ _______ _______ _____ _____    ______ ____
ROOT
ATOM      1  N   UNL     1      -7.537  -1.434 130.212  0.00  0.00    +0.000 N 
ATOM      2  C   UNL     1      -7.280  -0.919 128.930  0.00  0.00    +0.000 A 
ATOM      3  N   UNL     1      -6.837  -1.757 127.970  0.00  0.00    +0.000 NA
ATOM      4  C   UNL     1      -6.497  -1.222 126.787  0.00  0.00    +0.000 A 
ATOM      5  C   UNL     1      -6.567   0.112 126.532  0.00  0.00    +0.000 A 
ATOM      6  F   UNL     1      -6.126   0.566 125.350  0.00  0.00    +0.000 F 
ATOM      7  C   UNL     1      -7.052   0.928 127.545  0.00  0.00    +0.000 A 
ATOM      8  N   UNL     1      -7.104   2.323 127.373  0.00  0.00    +0.000 N 
ATOM      9  C   UNL     1      -6.935   2.999 126.157  0.00  0.00    +0.000 A 
ATOM     10  N   UNL     1      -7.656   2.586 125.077  0.00  0.00    +0.000 NA
ATOM     11  C   UNL     1      -7.355   3.093 123.860  0.00  0.00    +0.000 A 
ATOM     12  C   UNL     1      -6.317   4.021 123.672  0.00  0.00    +0.000 A 
ATOM     13  O   UNL     1      -5.922   4.496 122.437  0.00  0.00    +0.000 OA
ATOM     14  C   UNL     1      -6.474   3.752 121.336  0.00  0.00    +0.000 C 
ATOM     15  C   UNL     1      -5.713   2.416 121.177  0.00  0.00    +0.000 C 
ATOM     16  C   UNL     1      -6.301   4.518 120.018  0.00  0.00    +0.000 C 
ATOM     17  C   UNL     1      -7.967   3.446 121.575  0.00  0.00    +0.000 C 
ATOM     18  O   UNL     1      -8.868   3.775 120.834  0.00  0.00    +0.000 OA
ATOM     19  N   UNL     1      -8.132   2.703 122.735  0.00  0.00    +0.000 N 
ATOM     20  C   UNL     1      -5.598   4.454 124.784  0.00  0.00    +0.000 A 
ATOM     21  C   UNL     1      -5.918   3.947 126.047  0.00  0.00    +0.000 A 
ATOM     22  N   UNL     1      -7.432   0.411 128.741  0.00  0.00    +0.000 NA
ATOM     23  H   UNL     1      -8.484  -1.254 130.506  0.00  0.00    +0.000 HD
ATOM     24  H   UNL     1      -7.375   2.851 128.190  0.00  0.00    +0.000 HD
ENDROOT
BRANCH   1  27
ATOM     25  C   UNL     1      -4.666  -3.635 131.307  0.00  0.00    +0.000 A 
ATOM     26  C   UNL     1      -5.487  -2.791 130.508  0.00  0.00    +0.000 A 
ATOM     27  C   UNL     1      -6.756  -2.352 130.944  0.00  0.00    +0.000 A 
ATOM     28  C   UNL     1      -7.249  -2.896 132.133  0.00  0.00    +0.000 A 
ATOM     29  C   UNL     1      -6.458  -3.693 132.959  0.00  0.00    +0.000 A 
ATOM     30  C   UNL     1      -5.141  -4.028 132.573  0.00  0.00    +0.000 A 
BRANCH  25  32
ATOM     31  C   UNL     1      -2.976  -3.125 129.649  0.00  0.00    +0.000 C 
ATOM     32  O   UNL     1      -3.366  -3.773 130.863  0.00  0.00    +0.000 OA
ENDBRANCH  25  32
BRANCH  29  33
ATOM     33  O   UNL     1      -7.084  -4.021 134.150  0.00  0.00    +0.000 OA
ATOM     34  C   UNL     1      -8.334  -3.398 134.431  0.00  0.00    +0.000 C 
ENDBRANCH  29  33
BRANCH  30  35
ATOM     35  O   UNL     1      -4.446  -4.590 133.595  0.00  0.00    +0.000 OA
ATOM     36  C   UNL     1      -4.135  -5.940 133.645  0.00  0.00    +0.000 C 
ENDBRANCH  30  35
ENDBRANCH   1  27
BRANCH  19  37
ATOM     37  C   UNL     1      -8.919   1.482 122.757  0.00  0.00    +0.000 C 
BRANCH  37  38
ATOM     38  O   UNL     1      -8.097   0.304 122.913  0.00  0.00    +0.000 OA
BRANCH  38  39
ATOM     39  P   UNL     1      -8.989  -1.058 123.498  0.00  0.00    +0.000 P 
ATOM     40  O   UNL     1      -9.787  -2.278 124.021  0.00  0.00    +0.000 OA
BRANCH  39  41
ATOM     41  O   UNL     1      -9.490  -0.067 124.702  0.00  0.00    +0.000 OA
ATOM     42  H   UNL     1      -9.570   0.874 124.487  0.00  0.00    +0.000 HD
ENDBRANCH  39  41
BRANCH  39  43
ATOM     43  O   UNL     1     -10.109  -0.593 122.399  0.00  0.00    +0.000 OA
ATOM     44  H   UNL     1      -9.928   0.295 122.046  0.00  0.00    +0.000 HD
ENDBRANCH  39  43
ENDBRANCH  38  39
ENDBRANCH  37  38
ENDBRANCH  19  37
TORSDOF 9
ENDMDL
MODEL 4
REMARK VINA RESULT:      -8.0      1.022      2.293
REMARK  Name = Fostamatinib
REMARK  14 active torsions:
REMARK  status: ('A' for Active; 'I' for Inactive)
REMARK    1  A    between atoms: C_1  and  O_2
REMARK    2  A    between atoms: O_2  and  C_3
REMARK    3  A    between atoms: C_5  and  N_6
REMARK    4  A    between atoms: C_19  and  C_20
REMARK    5  A    between atoms: C_19  and  C_21
REMARK    6  A    between atoms: N_24  and  C_25
REMARK    7  A    between atoms: C_25  and  O_26
REMARK    8  A    between atoms: O_26  and  P_27
REMARK    9  A    between atoms: P_27  and  O_28
REMARK   10  A    between atoms: P_27  and  O_29
REMARK   11  A    between atoms: C_35  and  O_36
REMARK   12  A    between atoms: O_36  and  C_37
REMARK   13  A    between atoms: C_38  and  O_39
REMARK   14  A    between atoms: O_39  and  C_40
REMARK                            x       y       z     vdW  Elec       q    Type
REMARK                         _______ _______ _______ _____ _____    ______ ____
ROOT
ATOM      1  N   UNL     1      -8.575   2.678 123.424  0.00  0.00    +0.000 N 
ATOM      2  C   UNL     1      -8.366   3.122 124.741  0.00  0.00    +0.000 A 
ATOM      3  N   UNL     1      -8.444   4.443 125.001  0.00  0.00    +0.000 NA
ATOM      4  C   UNL     1      -8.136   4.852 126.242  0.00  0.00    +0.000 A 
ATOM      5  C   UNL     1      -7.739   3.998 127.224  0.00  0.00    +0.000 A 
ATOM      6  F   UNL     1      -7.370   4.506 128.408  0.00  0.00    +0.000 F 
ATOM      7  C   UNL     1      -7.698   2.645 126.911  0.00  0.00    +0.000 A 
ATOM      8  N   UNL     1      -7.248   1.709 127.860  0.00  0.00    +0.000 N 
ATOM      9  C   UNL     1      -7.047   1.964 129.222  0.00  0.00    +0.000 A 
ATOM     10  N   UNL     1      -8.045   2.572 129.924  0.00  0.00    +0.000 NA
ATOM     11  C   UNL     1      -7.788   3.004 131.180  0.00  0.00    +0.000 A 
ATOM     12  C   UNL     1      -6.526   2.857 131.778  0.00  0.00    +0.000 A 
ATOM     13  O   UNL     1      -6.199   3.360 133.022  0.00  0.00    +0.000 OA
ATOM     14  C   UNL     1      -7.171   4.288 133.536  0.00  0.00    +0.000 C 
ATOM     15  C   UNL     1      -7.011   5.654 132.831  0.00  0.00    +0.000 C 
ATOM     16  C   UNL     1      -6.951   4.537 135.034  0.00  0.00    +0.000 C 
ATOM     17  C   UNL     1      -8.604   3.771 133.293  0.00  0.00    +0.000 C 
ATOM     18  O   UNL     1      -9.427   3.580 134.163  0.00  0.00    +0.000 OA
ATOM     19  N   UNL     1      -8.836   3.597 131.937  0.00  0.00    +0.000 N 
ATOM     20  C   UNL     1      -5.518   2.216 131.062  0.00  0.00    +0.000 A 
ATOM     21  C   UNL     1      -5.783   1.751 129.771  0.00  0.00    +0.000 A 
ATOM     22  N   UNL     1      -8.034   2.201 125.674  0.00  0.00    +0.000 NA
ATOM     23  H   UNL     1      -9.317   1.999 123.370  0.00  0.00    +0.000 HD
ATOM     24  H   UNL     1      -7.155   0.762 127.522  0.00  0.00    +0.000 HD
ENDROOT
BRANCH   1  27
ATOM     25  C   UNL     1      -6.240   4.154 120.844  0.00  0.00    +0.000 A 
ATOM     26  C   UNL     1      -6.745   3.672 122.085  0.00  0.00    +0.000 A 
ATOM     27  C   UNL     1      -8.085   3.253 122.234  0.00  0.00    +0.000 A 
ATOM     28  C   UNL     1      -8.947   3.466 121.155  0.00  0.00    +0.000 A 
ATOM     29  C   UNL     1      -8.479   3.897 119.915  0.00  0.00    +0.000 A 
ATOM     30  C   UNL     1      -7.110   4.198 119.738  0.00  0.00    +0.000 A 
BRANCH  25  32
ATOM     31  C   UNL     1      -4.181   4.880 121.894  0.00  0.00    +0.000 C 
ATOM     32  O   UNL     1      -4.866   4.287 120.787  0.00  0.00    +0.000 OA
ENDBRANCH  25  32
BRANCH  29  33
ATOM     33  O   UNL     1      -9.466   3.917 118.944  0.00  0.00    +0.000 OA
ATOM     34  C   UNL     1     -10.332   5.048 118.908  0.00  0.00    +0.000 C 
ENDBRANCH  29  33
BRANCH  30  35
ATOM     35  O   UNL     1      -6.797   4.358 118.427  0.00  0.00    +0.000 OA
ATOM     36  C   UNL     1      -6.244   5.523 117.919  0.00  0.00    +0.000 C 
ENDBRANCH  30  35
ENDBRANCH   1  27
BRANCH  19  37
ATOM     37  C   UNL     1     -10.009   4.151 131.283  0.00  0.00    +0.000 C 
BRANCH  37  38
ATOM     38  O   UNL     1      -9.983   5.595 131.243  0.00  0.00    +0.000 OA
BRANCH  38  39
ATOM     39  P   UNL     1     -11.392   6.266 130.496  0.00  0.00    +0.000 P 
ATOM     40  O   UNL     1     -12.653   6.867 129.827  0.00  0.00    +0.000 OA
BRANCH  39  41
ATOM     41  O   UNL     1     -11.652   4.762 129.901  0.00  0.00    +0.000 OA
ATOM     42  H   UNL     1     -10.868   4.223 129.722  0.00  0.00    +0.000 HD
ENDBRANCH  39  41
BRANCH  39  43
ATOM     43  O   UNL     1     -12.091   6.010 131.953  0.00  0.00    +0.000 OA
ATOM     44  H   UNL     1     -11.526   6.309 132.687  0.00  0.00    +0.000 HD
ENDBRANCH  39  43
ENDBRANCH  38  39
ENDBRANCH  37  38
ENDBRANCH  19  37
TORSDOF 9
ENDMDL
MODEL 5
REMARK VINA RESULT:      -7.9      1.758      2.260
REMARK  Name = Fostamatinib
REMARK  14 active torsions:
REMARK  status: ('A' for Active; 'I' for Inactive)
REMARK    1  A    between atoms: C_1  and  O_2
REMARK    2  A    between atoms: O_2  and  C_3
REMARK    3  A    between atoms: C_5  and  N_6
REMARK    4  A    between atoms: C_19  and  C_20
REMARK    5  A    between atoms: C_19  and  C_21
REMARK    6  A    between atoms: N_24  and  C_25
REMARK    7  A    between atoms: C_25  and  O_26
REMARK    8  A    between atoms: O_26  and  P_27
REMARK    9  A    between atoms: P_27  and  O_28
REMARK   10  A    between atoms: P_27  and  O_29
REMARK   11  A    between atoms: C_35  and  O_36
REMARK   12  A    between atoms: O_36  and  C_37
REMARK   13  A    between atoms: C_38  and  O_39
REMARK   14  A    between atoms: O_39  and  C_40
REMARK                            x       y       z     vdW  Elec       q    Type
REMARK                         _______ _______ _______ _____ _____    ______ ____
ROOT
ATOM      1  N   UNL     1      -8.660   2.961 123.080  0.00  0.00    +0.000 N 
ATOM      2  C   UNL     1      -8.055   2.639 124.306  0.00  0.00    +0.000 A 
ATOM      3  N   UNL     1      -7.037   3.405 124.750  0.00  0.00    +0.000 NA
ATOM      4  C   UNL     1      -6.407   3.015 125.869  0.00  0.00    +0.000 A 
ATOM      5  C   UNL     1      -6.741   1.885 126.549  0.00  0.00    +0.000 A 
ATOM      6  F   UNL     1      -6.002   1.529 127.609  0.00  0.00    +0.000 F 
ATOM      7  C   UNL     1      -7.811   1.144 126.064  0.00  0.00    +0.000 A 
ATOM      8  N   UNL     1      -8.181  -0.063 126.685  0.00  0.00    +0.000 N 
ATOM      9  C   UNL     1      -7.725  -0.508 127.932  0.00  0.00    +0.000 A 
ATOM     10  N   UNL     1      -7.787   0.347 128.991  0.00  0.00    +0.000 NA
ATOM     11  C   UNL     1      -7.168   0.003 130.143  0.00  0.00    +0.000 A 
ATOM     12  C   UNL     1      -6.456  -1.200 130.280  0.00  0.00    +0.000 A 
ATOM     13  O   UNL     1      -5.740  -1.548 131.408  0.00  0.00    +0.000 OA
ATOM     14  C   UNL     1      -5.552  -0.455 132.325  0.00  0.00    +0.000 C 
ATOM     15  C   UNL     1      -4.449   0.487 131.793  0.00  0.00    +0.000 C 
ATOM     16  C   UNL     1      -5.076  -0.965 133.692  0.00  0.00    +0.000 C 
ATOM     17  C   UNL     1      -6.856   0.352 132.489  0.00  0.00    +0.000 C 
ATOM     18  O   UNL     1      -7.423   0.544 133.543  0.00  0.00    +0.000 OA
ATOM     19  N   UNL     1      -7.266   0.868 131.268  0.00  0.00    +0.000 N 
ATOM     20  C   UNL     1      -6.415  -2.078 129.199  0.00  0.00    +0.000 A 
ATOM     21  C   UNL     1      -7.069  -1.736 128.013  0.00  0.00    +0.000 A 
ATOM     22  N   UNL     1      -8.486   1.532 124.952  0.00  0.00    +0.000 NA
ATOM     23  H   UNL     1      -9.651   3.109 123.178  0.00  0.00    +0.000 HD
ATOM     24  H   UNL     1      -8.902  -0.588 126.213  0.00  0.00    +0.000 HD
ENDROOT
BRANCH   1  27
ATOM     25  C   UNL     1      -8.092   4.126 119.528  0.00  0.00    +0.000 A 
ATOM     26  C   UNL     1      -8.738   3.635 120.698  0.00  0.00    +0.000 A 
ATOM     27  C   UNL     1      -8.025   3.350 121.882  0.00  0.00    +0.000 A 
ATOM     28  C   UNL     1      -6.630   3.424 121.824  0.00  0.00    +0.000 A 
ATOM     29  C   UNL     1      -5.968   3.938 120.710  0.00  0.00    +0.000 A 
ATOM     30  C   UNL     1      -6.701   4.339 119.571  0.00  0.00    +0.000 A 
BRANCH  25  32
ATOM     31  C   UNL     1     -10.334   4.737 118.846  0.00  0.00    +0.000 C 
ATOM     32  O   UNL     1      -8.943   4.592 118.545  0.00  0.00    +0.000 OA
ENDBRANCH  25  32
BRANCH  29  33
ATOM     33  O   UNL     1      -4.601   4.052 120.901  0.00  0.00    +0.000 OA
ATOM     34  C   UNL     1      -4.145   5.016 121.846  0.00  0.00    +0.000 C 
ENDBRANCH  29  33
BRANCH  30  35
ATOM     35  O   UNL     1      -5.929   5.035 118.697  0.00  0.00    +0.000 OA
ATOM     36  C   UNL     1      -5.934   6.419 118.621  0.00  0.00    +0.000 C 
ENDBRANCH  30  35
ENDBRANCH   1  27
BRANCH  19  37
ATOM     37  C   UNL     1      -7.610   2.270 131.105  0.00  0.00    +0.000 C 
BRANCH  37  38
ATOM     38  O   UNL     1      -9.015   2.518 131.328  0.00  0.00    +0.000 OA
BRANCH  38  39
ATOM     39  P   UNL     1      -9.623   3.822 130.367  0.00  0.00    +0.000 P 
ATOM     40  O   UNL     1     -10.166   4.989 129.506  0.00  0.00    +0.000 OA
BRANCH  39  41
ATOM     41  O   UNL     1      -9.454   2.807 129.092  0.00  0.00    +0.000 OA
ATOM     42  H   UNL     1      -9.637   1.870 129.253  0.00  0.00    +0.000 HD
ENDBRANCH  39  41
BRANCH  39  43
ATOM     43  O   UNL     1     -11.090   3.277 130.843  0.00  0.00    +0.000 OA
ATOM     44  H   UNL     1     -11.608   3.967 131.292  0.00  0.00    +0.000 HD
ENDBRANCH  39  43
ENDBRANCH  38  39
ENDBRANCH  37  38
ENDBRANCH  19  37
TORSDOF 9
ENDMDL
MODEL 6
REMARK VINA RESULT:      -7.8      5.131      7.578
REMARK  Name = Fostamatinib
REMARK  14 active torsions:
REMARK  status: ('A' for Active; 'I' for Inactive)
REMARK    1  A    between atoms: C_1  and  O_2
REMARK    2  A    between atoms: O_2  and  C_3
REMARK    3  A    between atoms: C_5  and  N_6
REMARK    4  A    between atoms: C_19  and  C_20
REMARK    5  A    between atoms: C_19  and  C_21
REMARK    6  A    between atoms: N_24  and  C_25
REMARK    7  A    between atoms: C_25  and  O_26
REMARK    8  A    between atoms: O_26  and  P_27
REMARK    9  A    between atoms: P_27  and  O_28
REMARK   10  A    between atoms: P_27  and  O_29
REMARK   11  A    between atoms: C_35  and  O_36
REMARK   12  A    between atoms: O_36  and  C_37
REMARK   13  A    between atoms: C_38  and  O_39
REMARK   14  A    between atoms: O_39  and  C_40
REMARK                            x       y       z     vdW  Elec       q    Type
REMARK                         _______ _______ _______ _____ _____    ______ ____
ROOT
ATOM      1  N   UNL     1      -8.321   1.997 128.056  0.00  0.00    +0.000 N 
ATOM      2  C   UNL     1      -7.236   2.590 128.723  0.00  0.00    +0.000 A 
ATOM      3  N   UNL     1      -6.021   2.568 128.137  0.00  0.00    +0.000 NA
ATOM      4  C   UNL     1      -4.983   3.045 128.840  0.00  0.00    +0.000 A 
ATOM      5  C   UNL     1      -5.106   3.526 130.107  0.00  0.00    +0.000 A 
ATOM      6  F   UNL     1      -4.000   3.904 130.763  0.00  0.00    +0.000 F 
ATOM      7  C   UNL     1      -6.382   3.550 130.656  0.00  0.00    +0.000 A 
ATOM      8  N   UNL     1      -6.580   3.984 131.979  0.00  0.00    +0.000 N 
ATOM      9  C   UNL     1      -5.631   4.648 132.767  0.00  0.00    +0.000 A 
ATOM     10  N   UNL     1      -4.990   5.730 132.240  0.00  0.00    +0.000 NA
ATOM     11  C   UNL     1      -3.936   6.251 132.908  0.00  0.00    +0.000 A 
ATOM     12  C   UNL     1      -3.474   5.707 134.118  0.00  0.00    +0.000 A 
ATOM     13  O   UNL     1      -2.351   6.155 134.786  0.00  0.00    +0.000 OA
ATOM     14  C   UNL     1      -1.533   7.038 133.998  0.00  0.00    +0.000 C 
ATOM     15  C   UNL     1      -0.719   6.218 132.972  0.00  0.00    +0.000 C 
ATOM     16  C   UNL     1      -0.516   7.774 134.881  0.00  0.00    +0.000 C 
ATOM     17  C   UNL     1      -2.404   8.058 133.237  0.00  0.00    +0.000 C 
ATOM     18  O   UNL     1      -2.304   9.263 133.334  0.00  0.00    +0.000 OA
ATOM     19  N   UNL     1      -3.289   7.407 132.391  0.00  0.00    +0.000 N 
ATOM     20  C   UNL     1      -4.147   4.615 134.660  0.00  0.00    +0.000 A 
ATOM     21  C   UNL     1      -5.249   4.084 133.983  0.00  0.00    +0.000 A 
ATOM     22  N   UNL     1      -7.455   3.102 129.956  0.00  0.00    +0.000 NA
ATOM     23  H   UNL     1      -9.077   2.647 127.917  0.00  0.00    +0.000 HD
ATOM     24  H   UNL     1      -7.519   3.877 132.333  0.00  0.00    +0.000 HD
ENDROOT
BRANCH   1  27
ATOM     25  C   UNL     1      -7.874  -1.663 127.221  0.00  0.00    +0.000 A 
ATOM     26  C   UNL     1      -7.757  -0.408 127.884  0.00  0.00    +0.000 A 
ATOM     27  C   UNL     1      -8.338   0.769 127.364  0.00  0.00    +0.000 A 
ATOM     28  C   UNL     1      -8.912   0.692 126.091  0.00  0.00    +0.000 A 
ATOM     29  C   UNL     1      -9.079  -0.525 125.433  0.00  0.00    +0.000 A 
ATOM     30  C   UNL     1      -8.603  -1.720 126.018  0.00  0.00    +0.000 A 
BRANCH  25  32
ATOM     31  C   UNL     1      -8.416  -3.372 128.850  0.00  0.00    +0.000 C 
ATOM     32  O   UNL     1      -7.475  -2.754 127.967  0.00  0.00    +0.000 OA
ENDBRANCH  25  32
BRANCH  29  33
ATOM     33  O   UNL     1      -9.785  -0.404 124.249  0.00  0.00    +0.000 OA
ATOM     34  C   UNL     1      -9.394   0.630 123.350  0.00  0.00    +0.000 C 
ENDBRANCH  29  33
BRANCH  30  35
ATOM     35  O   UNL     1      -9.066  -2.817 125.367  0.00  0.00    +0.000 OA
ATOM     36  C   UNL     1      -8.247  -3.668 124.641  0.00  0.00    +0.000 C 
ENDBRANCH  30  35
ENDBRANCH   1  27
BRANCH  19  37
ATOM     37  C   UNL     1      -3.421   7.773 130.991  0.00  0.00    +0.000 C 
BRANCH  37  38
ATOM     38  O   UNL     1      -2.691   6.880 130.121  0.00  0.00    +0.000 OA
BRANCH  38  39
ATOM     39  P   UNL     1      -3.502   6.605 128.617  0.00  0.00    +0.000 P 
ATOM     40  O   UNL     1      -4.228   6.358 127.272  0.00  0.00    +0.000 OA
BRANCH  39  41
ATOM     41  O   UNL     1      -4.023   8.152 128.747  0.00  0.00    +0.000 OA
ATOM     42  H   UNL     1      -4.954   8.280 128.977  0.00  0.00    +0.000 HD
ENDBRANCH  39  41
BRANCH  39  43
ATOM     43  O   UNL     1      -2.048   6.955 127.953  0.00  0.00    +0.000 OA
ATOM     44  H   UNL     1      -2.024   7.851 127.577  0.00  0.00    +0.000 HD
ENDBRANCH  39  43
ENDBRANCH  38  39
ENDBRANCH  37  38
ENDBRANCH  19  37
TORSDOF 9
ENDMDL
MODEL 7
REMARK VINA RESULT:      -7.6      2.178      3.410
REMARK  Name = Fostamatinib
REMARK  14 active torsions:
REMARK  status: ('A' for Active; 'I' for Inactive)
REMARK    1  A    between atoms: C_1  and  O_2
REMARK    2  A    between atoms: O_2  and  C_3
REMARK    3  A    between atoms: C_5  and  N_6
REMARK    4  A    between atoms: C_19  and  C_20
REMARK    5  A    between atoms: C_19  and  C_21
REMARK    6  A    between atoms: N_24  and  C_25
REMARK    7  A    between atoms: C_25  and  O_26
REMARK    8  A    between atoms: O_26  and  P_27
REMARK    9  A    between atoms: P_27  and  O_28
REMARK   10  A    between atoms: P_27  and  O_29
REMARK   11  A    between atoms: C_35  and  O_36
REMARK   12  A    between atoms: O_36  and  C_37
REMARK   13  A    between atoms: C_38  and  O_39
REMARK   14  A    between atoms: O_39  and  C_40
REMARK                            x       y       z     vdW  Elec       q    Type
REMARK                         _______ _______ _______ _____ _____    ______ ____
ROOT
ATOM      1  N   UNL     1      -8.843   2.489 122.771  0.00  0.00    +0.000 N 
ATOM      2  C   UNL     1      -8.305   2.203 124.037  0.00  0.00    +0.000 A 
ATOM      3  N   UNL     1      -7.634   3.172 124.694  0.00  0.00    +0.000 NA
ATOM      4  C   UNL     1      -7.039   2.843 125.850  0.00  0.00    +0.000 A 
ATOM      5  C   UNL     1      -7.074   1.585 126.367  0.00  0.00    +0.000 A 
ATOM      6  F   UNL     1      -6.380   1.329 127.485  0.00  0.00    +0.000 F 
ATOM      7  C   UNL     1      -7.797   0.629 125.666  0.00  0.00    +0.000 A 
ATOM      8  N   UNL     1      -7.834  -0.705 126.111  0.00  0.00    +0.000 N 
ATOM      9  C   UNL     1      -7.401  -1.156 127.364  0.00  0.00    +0.000 A 
ATOM     10  N   UNL     1      -7.843  -0.507 128.478  0.00  0.00    +0.000 NA
ATOM     11  C   UNL     1      -7.277  -0.800 129.671  0.00  0.00    +0.000 A 
ATOM     12  C   UNL     1      -6.242  -1.742 129.796  0.00  0.00    +0.000 A 
ATOM     13  O   UNL     1      -5.581  -2.007 130.979  0.00  0.00    +0.000 OA
ATOM     14  C   UNL     1      -5.847  -1.040 132.011  0.00  0.00    +0.000 C 
ATOM     15  C   UNL     1      -5.045   0.251 131.735  0.00  0.00    +0.000 C 
ATOM     16  C   UNL     1      -5.387  -1.561 133.380  0.00  0.00    +0.000 C 
ATOM     17  C   UNL     1      -7.348  -0.689 132.059  0.00  0.00    +0.000 C 
ATOM     18  O   UNL     1      -8.058  -0.818 133.033  0.00  0.00    +0.000 OA
ATOM     19  N   UNL     1      -7.764  -0.162 130.845  0.00  0.00    +0.000 N 
ATOM     20  C   UNL     1      -5.810  -2.415 128.657  0.00  0.00    +0.000 A 
ATOM     21  C   UNL     1      -6.404  -2.130 127.425  0.00  0.00    +0.000 A 
ATOM     22  N   UNL     1      -8.435   0.941 124.509  0.00  0.00    +0.000 NA
ATOM     23  H   UNL     1      -9.835   2.319 122.738  0.00  0.00    +0.000 HD
ATOM     24  H   UNL     1      -8.298  -1.354 125.493  0.00  0.00    +0.000 HD
ENDROOT
BRANCH   1  27
ATOM     25  C   UNL     1      -6.248   4.201 120.620  0.00  0.00    +0.000 A 
ATOM     26  C   UNL     1      -6.872   3.570 121.734  0.00  0.00    +0.000 A 
ATOM     27  C   UNL     1      -8.235   3.206 121.720  0.00  0.00    +0.000 A 
ATOM     28  C   UNL     1      -8.999   3.621 120.625  0.00  0.00    +0.000 A 
ATOM     29  C   UNL     1      -8.415   4.204 119.502  0.00  0.00    +0.000 A 
ATOM     30  C   UNL     1      -7.025   4.453 119.472  0.00  0.00    +0.000 A 
BRANCH  25  32
ATOM     31  C   UNL     1      -4.260   4.948 121.783  0.00  0.00    +0.000 C 
ATOM     32  O   UNL     1      -4.871   4.267 120.684  0.00  0.00    +0.000 OA
ENDBRANCH  25  32
BRANCH  29  33
ATOM     33  O   UNL     1      -9.320   4.419 118.476  0.00  0.00    +0.000 OA
ATOM     34  C   UNL     1     -10.584   4.980 118.818  0.00  0.00    +0.000 C 
ENDBRANCH  29  33
BRANCH  30  35
ATOM     35  O   UNL     1      -6.601   4.787 118.227  0.00  0.00    +0.000 OA
ATOM     36  C   UNL     1      -5.999   6.000 117.933  0.00  0.00    +0.000 C 
ENDBRANCH  30  35
ENDBRANCH   1  27
BRANCH  19  37
ATOM     37  C   UNL     1      -8.511   1.082 130.765  0.00  0.00    +0.000 C 
BRANCH  37  38
ATOM     38  O   UNL     1      -7.647   2.229 130.606  0.00  0.00    +0.000 OA
BRANCH  38  39
ATOM     39  P   UNL     1      -8.367   3.476 129.647  0.00  0.00    +0.000 P 
ATOM     40  O   UNL     1      -9.010   4.593 128.788  0.00  0.00    +0.000 OA
BRANCH  39  41
ATOM     41  O   UNL     1      -9.181   2.269 128.896  0.00  0.00    +0.000 OA
ATOM     42  H   UNL     1      -9.383   2.398 127.958  0.00  0.00    +0.000 HD
ENDBRANCH  39  41
BRANCH  39  43
ATOM     43  O   UNL     1      -9.394   3.633 130.910  0.00  0.00    +0.000 OA
ATOM     44  H   UNL     1      -9.007   4.157 131.633  0.00  0.00    +0.000 HD
ENDBRANCH  39  43
ENDBRANCH  38  39
ENDBRANCH  37  38
ENDBRANCH  19  37
TORSDOF 9
ENDMDL
MODEL 8
REMARK VINA RESULT:      -7.6      5.654     12.653
REMARK  Name = Fostamatinib
REMARK  14 active torsions:
REMARK  status: ('A' for Active; 'I' for Inactive)
REMARK    1  A    between atoms: C_1  and  O_2
REMARK    2  A    between atoms: O_2  and  C_3
REMARK    3  A    between atoms: C_5  and  N_6
REMARK    4  A    between atoms: C_19  and  C_20
REMARK    5  A    between atoms: C_19  and  C_21
REMARK    6  A    between atoms: N_24  and  C_25
REMARK    7  A    between atoms: C_25  and  O_26
REMARK    8  A    between atoms: O_26  and  P_27
REMARK    9  A    between atoms: P_27  and  O_28
REMARK   10  A    between atoms: P_27  and  O_29
REMARK   11  A    between atoms: C_35  and  O_36
REMARK   12  A    between atoms: O_36  and  C_37
REMARK   13  A    between atoms: C_38  and  O_39
REMARK   14  A    between atoms: O_39  and  C_40
REMARK                            x       y       z     vdW  Elec       q    Type
REMARK                         _______ _______ _______ _____ _____    ______ ____
ROOT
ATOM      1  N   UNL     1      -6.382  -3.168 134.337  0.00  0.00    +0.000 N 
ATOM      2  C   UNL     1      -6.833  -2.591 133.138  0.00  0.00    +0.000 A 
ATOM      3  N   UNL     1      -7.365  -1.352 133.173  0.00  0.00    +0.000 NA
ATOM      4  C   UNL     1      -7.885  -0.866 132.035  0.00  0.00    +0.000 A 
ATOM      5  C   UNL     1      -7.908  -1.572 130.873  0.00  0.00    +0.000 A 
ATOM      6  F   UNL     1      -8.523  -1.040 129.808  0.00  0.00    +0.000 F 
ATOM      7  C   UNL     1      -7.326  -2.833 130.884  0.00  0.00    +0.000 A 
ATOM      8  N   UNL     1      -7.358  -3.642 129.734  0.00  0.00    +0.000 N 
ATOM      9  C   UNL     1      -7.720  -3.216 128.449  0.00  0.00    +0.000 A 
ATOM     10  N   UNL     1      -7.134  -2.092 127.948  0.00  0.00    +0.000 NA
ATOM     11  C   UNL     1      -7.619  -1.560 126.803  0.00  0.00    +0.000 A 
ATOM     12  C   UNL     1      -8.712  -2.120 126.122  0.00  0.00    +0.000 A 
ATOM     13  O   UNL     1      -9.290  -1.560 125.000  0.00  0.00    +0.000 OA
ATOM     14  C   UNL     1      -8.861  -0.209 124.750  0.00  0.00    +0.000 C 
ATOM     15  C   UNL     1      -9.577   0.753 125.723  0.00  0.00    +0.000 C 
ATOM     16  C   UNL     1      -9.244   0.232 123.331  0.00  0.00    +0.000 C 
ATOM     17  C   UNL     1      -7.338  -0.073 124.951  0.00  0.00    +0.000 C 
ATOM     18  O   UNL     1      -6.560   0.315 124.105  0.00  0.00    +0.000 OA
ATOM     19  N   UNL     1      -6.985  -0.414 126.249  0.00  0.00    +0.000 N 
ATOM     20  C   UNL     1      -9.291  -3.281 126.629  0.00  0.00    +0.000 A 
ATOM     21  C   UNL     1      -8.782  -3.845 127.802  0.00  0.00    +0.000 A 
ATOM     22  N   UNL     1      -6.765  -3.337 132.012  0.00  0.00    +0.000 NA
ATOM     23  H   UNL     1      -5.413  -3.438 134.283  0.00  0.00    +0.000 HD
ATOM     24  H   UNL     1      -7.002  -4.579 129.854  0.00  0.00    +0.000 HD
ENDROOT
BRANCH   1  27
ATOM     25  C   UNL     1      -7.324  -2.199 137.867  0.00  0.00    +0.000 A 
ATOM     26  C   UNL     1      -6.609  -2.286 136.640  0.00  0.00    +0.000 A 
ATOM     27  C   UNL     1      -7.017  -3.144 135.596  0.00  0.00    +0.000 A 
ATOM     28  C   UNL     1      -8.070  -4.023 135.863  0.00  0.00    +0.000 A 
ATOM     29  C   UNL     1      -8.817  -3.938 137.037  0.00  0.00    +0.000 A 
ATOM     30  C   UNL     1      -8.478  -2.989 138.028  0.00  0.00    +0.000 A 
BRANCH  25  32
ATOM     31  C   UNL     1      -5.666  -0.554 138.508  0.00  0.00    +0.000 C 
ATOM     32  O   UNL     1      -6.956  -1.146 138.682  0.00  0.00    +0.000 OA
ENDBRANCH  25  32
BRANCH  29  33
ATOM     33  O   UNL     1      -9.896  -4.806 137.053  0.00  0.00    +0.000 OA
ATOM     34  C   UNL     1      -9.779  -6.017 136.311  0.00  0.00    +0.000 C 
ENDBRANCH  29  33
BRANCH  30  35
ATOM     35  O   UNL     1      -9.447  -2.882 138.972  0.00  0.00    +0.000 OA
ATOM     36  C   UNL     1     -10.436  -1.911 138.933  0.00  0.00    +0.000 C 
ENDBRANCH  30  35
ENDBRANCH   1  27
BRANCH  19  37
ATOM     37  C   UNL     1      -6.150   0.449 127.067  0.00  0.00    +0.000 C 
BRANCH  37  38
ATOM     38  O   UNL     1      -6.420   1.850 126.837  0.00  0.00    +0.000 OA
BRANCH  38  39
ATOM     39  P   UNL     1      -4.988   2.756 126.493  0.00  0.00    +0.000 P 
ATOM     40  O   UNL     1      -3.706   3.569 126.185  0.00  0.00    +0.000 OA
BRANCH  39  41
ATOM     41  O   UNL     1      -4.274   1.307 126.222  0.00  0.00    +0.000 OA
ATOM     42  H   UNL     1      -4.721   0.711 125.604  0.00  0.00    +0.000 HD
ENDBRANCH  39  41
BRANCH  39  43
ATOM     43  O   UNL     1      -5.643   2.921 125.003  0.00  0.00    +0.000 OA
ATOM     44  H   UNL     1      -5.059   3.411 124.399  0.00  0.00    +0.000 HD
ENDBRANCH  39  43
ENDBRANCH  38  39
ENDBRANCH  37  38
ENDBRANCH  19  37
TORSDOF 9
ENDMDL
MODEL 9
REMARK VINA RESULT:      -7.6      5.300      8.407
REMARK  Name = Fostamatinib
REMARK  14 active torsions:
REMARK  status: ('A' for Active; 'I' for Inactive)
REMARK    1  A    between atoms: C_1  and  O_2
REMARK    2  A    between atoms: O_2  and  C_3
REMARK    3  A    between atoms: C_5  and  N_6
REMARK    4  A    between atoms: C_19  and  C_20
REMARK    5  A    between atoms: C_19  and  C_21
REMARK    6  A    between atoms: N_24  and  C_25
REMARK    7  A    between atoms: C_25  and  O_26
REMARK    8  A    between atoms: O_26  and  P_27
REMARK    9  A    between atoms: P_27  and  O_28
REMARK   10  A    between atoms: P_27  and  O_29
REMARK   11  A    between atoms: C_35  and  O_36
REMARK   12  A    between atoms: O_36  and  C_37
REMARK   13  A    between atoms: C_38  and  O_39
REMARK   14  A    between atoms: O_39  and  C_40
REMARK                            x       y       z     vdW  Elec       q    Type
REMARK                         _______ _______ _______ _____ _____    ______ ____
ROOT
ATOM      1  N   UNL     1      -8.773   5.732 130.077  0.00  0.00    +0.000 N 
ATOM      2  C   UNL     1      -8.491   4.356 130.030  0.00  0.00    +0.000 A 
ATOM      3  N   UNL     1      -8.936   3.637 128.979  0.00  0.00    +0.000 NA
ATOM      4  C   UNL     1      -8.747   2.309 129.009  0.00  0.00    +0.000 A 
ATOM      5  C   UNL     1      -8.148   1.671 130.051  0.00  0.00    +0.000 A 
ATOM      6  F   UNL     1      -8.078   0.333 130.033  0.00  0.00    +0.000 F 
ATOM      7  C   UNL     1      -7.686   2.460 131.098  0.00  0.00    +0.000 A 
ATOM      8  N   UNL     1      -7.104   1.867 132.232  0.00  0.00    +0.000 N 
ATOM      9  C   UNL     1      -6.703   0.528 132.335  0.00  0.00    +0.000 A 
ATOM     10  N   UNL     1      -5.920   0.006 131.350  0.00  0.00    +0.000 NA
ATOM     11  C   UNL     1      -5.697  -1.328 131.333  0.00  0.00    +0.000 A 
ATOM     12  C   UNL     1      -6.256  -2.192 132.290  0.00  0.00    +0.000 A 
ATOM     13  O   UNL     1      -6.123  -3.566 132.258  0.00  0.00    +0.000 OA
ATOM     14  C   UNL     1      -5.604  -4.061 131.011  0.00  0.00    +0.000 C 
ATOM     15  C   UNL     1      -6.717  -4.043 129.939  0.00  0.00    +0.000 C 
ATOM     16  C   UNL     1      -5.148  -5.520 131.149  0.00  0.00    +0.000 C 
ATOM     17  C   UNL     1      -4.431  -3.187 130.521  0.00  0.00    +0.000 C 
ATOM     18  O   UNL     1      -3.313  -3.595 130.291  0.00  0.00    +0.000 OA
ATOM     19  N   UNL     1      -4.845  -1.876 130.336  0.00  0.00    +0.000 N 
ATOM     20  C   UNL     1      -7.037  -1.647 133.306  0.00  0.00    +0.000 A 
ATOM     21  C   UNL     1      -7.256  -0.268 133.339  0.00  0.00    +0.000 A 
ATOM     22  N   UNL     1      -7.837   3.808 131.079  0.00  0.00    +0.000 NA
ATOM     23  H   UNL     1      -7.934   6.284 130.155  0.00  0.00    +0.000 HD
ATOM     24  H   UNL     1      -6.886   2.500 132.988  0.00  0.00    +0.000 HD
ENDROOT
BRANCH   1  27
ATOM     25  C   UNL     1     -12.292   7.088 130.335  0.00  0.00    +0.000 A 
ATOM     26  C   UNL     1     -11.109   6.349 130.620  0.00  0.00    +0.000 A 
ATOM     27  C   UNL     1      -9.988   6.372 129.761  0.00  0.00    +0.000 A 
ATOM     28  C   UNL     1     -10.133   7.031 128.537  0.00  0.00    +0.000 A 
ATOM     29  C   UNL     1     -11.260   7.796 128.243  0.00  0.00    +0.000 A 
ATOM     30  C   UNL     1     -12.329   7.869 129.164  0.00  0.00    +0.000 A 
BRANCH  25  32
ATOM     31  C   UNL     1     -13.077   8.240 132.315  0.00  0.00    +0.000 C 
ATOM     32  O   UNL     1     -13.194   7.166 131.378  0.00  0.00    +0.000 OA
ENDBRANCH  25  32
BRANCH  29  33
ATOM     33  O   UNL     1     -11.152   8.474 127.041  0.00  0.00    +0.000 OA
ATOM     34  C   UNL     1     -10.836   7.712 125.879  0.00  0.00    +0.000 C 
ENDBRANCH  29  33
BRANCH  30  35
ATOM     35  O   UNL     1     -13.216   8.840 128.829  0.00  0.00    +0.000 OA
ATOM     36  C   UNL     1     -13.148  10.131 129.330  0.00  0.00    +0.000 C 
ENDBRANCH  30  35
ENDBRANCH   1  27
BRANCH  19  37
ATOM     37  C   UNL     1      -4.572  -1.153 129.105  0.00  0.00    +0.000 C 
BRANCH  37  38
ATOM     38  O   UNL     1      -5.646  -1.281 128.147  0.00  0.00    +0.000 OA
BRANCH  38  39
ATOM     39  P   UNL     1      -5.955   0.192 127.293  0.00  0.00    +0.000 P 
ATOM     40  O   UNL     1      -6.232   1.510 126.528  0.00  0.00    +0.000 OA
BRANCH  39  41
ATOM     41  O   UNL     1      -4.850   0.869 128.294  0.00  0.00    +0.000 OA
ATOM     42  H   UNL     1      -4.125   0.301 128.591  0.00  0.00    +0.000 HD
ENDBRANCH  39  41
BRANCH  39  43
ATOM     43  O   UNL     1      -4.882  -0.400 126.208  0.00  0.00    +0.000 OA
ATOM     44  H   UNL     1      -4.866   0.123 125.388  0.00  0.00    +0.000 HD
ENDBRANCH  39  43
ENDBRANCH  38  39
ENDBRANCH  37  38
ENDBRANCH  19  37
TORSDOF 9
ENDMDL
