MODEL 1
REMARK VINA RESULT:      -8.4      0.000      0.000
REMARK  Name = Framycetin
REMARK  22 active torsions:
REMARK  status: ('A' for Active; 'I' for Inactive)
REMARK    1  A    between atoms: N_1  and  C_2
REMARK    2  A    between atoms: C_2  and  C_3
REMARK    3  A    between atoms: C_5  and  O_6
REMARK    4  A    between atoms: O_6  and  C_7
REMARK    5  A    between atoms: C_8  and  C_9
REMARK    6  A    between atoms: C_9  and  O_10
REMARK    7  A    between atoms: C_12  and  O_13
REMARK    8  A    between atoms: O_13  and  C_14
REMARK    9  A    between atoms: C_15  and  O_16
REMARK   10  A    between atoms: C_17  and  N_18
REMARK   11  A    between atoms: C_20  and  N_21
REMARK   12  A    between atoms: C_22  and  O_23
REMARK   13  A    between atoms: O_23  and  C_24
REMARK   14  A    between atoms: C_26  and  C_27
REMARK   15  A    between atoms: C_27  and  N_28
REMARK   16  A    between atoms: C_29  and  O_30
REMARK   17  A    between atoms: C_31  and  O_32
REMARK   18  A    between atoms: C_33  and  N_34
REMARK   19  A    between atoms: C_35  and  O_36
REMARK   20  A    between atoms: C_37  and  N_38
REMARK   21  A    between atoms: C_39  and  O_40
REMARK   22  A    between atoms: C_41  and  O_42
REMARK                            x       y       z     vdW  Elec       q    Type
REMARK                         _______ _______ _______ _____ _____    ______ ____
ROOT
ATOM      1  C   UNL     1      -8.044   1.886 130.059  0.00  0.00    +0.000 C 
ATOM      2  C   UNL     1      -7.350   2.403 131.278  0.00  0.00    +0.000 C 
ATOM      3  C   UNL     1      -7.758   2.187 132.734  0.00  0.00    +0.000 C 
ATOM      4  C   UNL     1      -9.170   2.896 132.818  0.00  0.00    +0.000 C 
ATOM      5  C   UNL     1     -10.012   2.430 131.597  0.00  0.00    +0.000 C 
ATOM      6  C   UNL     1      -9.385   2.640 130.070  0.00  0.00    +0.000 C 
ENDROOT
BRANCH   3   7
ATOM      7  N   UNL     1      -7.334   0.907 133.211  0.00  0.00    +0.000 NA
ATOM      8  H   UNL     1      -7.941   0.147 132.958  0.00  0.00    +0.000 HD
ATOM      9  H   UNL     1      -7.127   0.957 134.196  0.00  0.00    +0.000 HD
ENDBRANCH   3   7
BRANCH   5  10
ATOM     10  N   UNL     1     -10.081   0.990 131.894  0.00  0.00    +0.000 NA
ATOM     11  H   UNL     1      -9.869   0.876 132.900  0.00  0.00    +0.000 HD
ATOM     12  H   UNL     1      -9.311   0.482 131.482  0.00  0.00    +0.000 HD
ENDBRANCH   5  10
BRANCH   2  13
ATOM     13  O   UNL     1      -7.564   3.764 131.490  0.00  0.00    +0.000 OA
ATOM     14  H   UNL     1      -6.884   4.106 130.983  0.00  0.00    +0.000 HD
ENDBRANCH   2  13
BRANCH   6  15
ATOM     15  O   UNL     1      -9.191   4.159 129.492  0.00  0.00    +0.000 OA
BRANCH  15  16
ATOM     16  C   UNL     1     -10.022   5.381 129.952  0.00  0.00    +0.000 C 
ATOM     17  O   UNL     1     -11.458   5.121 129.813  0.00  0.00    +0.000 OA
ATOM     18  C   UNL     1     -12.468   6.149 129.148  0.00  0.00    +0.000 C 
ATOM     19  C   UNL     1     -12.496   7.328 130.007  0.00  0.00    +0.000 C 
ATOM     20  C   UNL     1     -11.017   7.797 130.089  0.00  0.00    +0.000 C 
ATOM     21  C   UNL     1      -9.964   6.738 130.747  0.00  0.00    +0.000 C 
BRANCH  21  22
ATOM     22  N   UNL     1     -10.329   6.456 132.125  0.00  0.00    +0.000 NA
ATOM     23  H   UNL     1      -9.440   6.290 132.600  0.00  0.00    +0.000 HD
ATOM     24  H   UNL     1     -10.788   5.544 132.130  0.00  0.00    +0.000 HD
ENDBRANCH  21  22
BRANCH  20  25
ATOM     25  O   UNL     1     -10.497   8.280 128.834  0.00  0.00    +0.000 OA
ATOM     26  H   UNL     1     -11.164   8.848 128.399  0.00  0.00    +0.000 HD
ENDBRANCH  20  25
BRANCH  19  27
ATOM     27  O   UNL     1     -13.037   6.917 131.263  0.00  0.00    +0.000 OA
ATOM     28  H   UNL     1     -12.770   7.601 131.906  0.00  0.00    +0.000 HD
ENDBRANCH  19  27
BRANCH  18  29
ATOM     29  C   UNL     1     -12.626   6.799 127.513  0.00  0.00    +0.000 C 
BRANCH  29  30
ATOM     30  N   UNL     1     -12.020   6.902 126.170  0.00  0.00    +0.000 NA
ATOM     31  H   UNL     1     -11.362   6.151 126.063  0.00  0.00    +0.000 HD
ATOM     32  H   UNL     1     -11.471   7.784 126.171  0.00  0.00    +0.000 HD
ENDBRANCH  29  30
ENDBRANCH  18  29
ENDBRANCH  15  16
ENDBRANCH   6  15
BRANCH   1  33
ATOM     33  O   UNL     1      -7.891   0.476 130.277  0.00  0.00    +0.000 OA
BRANCH  33  37
ATOM     34  C   UNL     1      -7.249  -0.118 127.217  0.00  0.00    +0.000 C 
ATOM     35  C   UNL     1      -5.783   0.347 127.369  0.00  0.00    +0.000 C 
ATOM     36  O   UNL     1      -5.723   0.602 128.827  0.00  0.00    +0.000 OA
ATOM     37  C   UNL     1      -6.802  -0.175 129.520  0.00  0.00    +0.000 C 
ATOM     38  C   UNL     1      -7.411  -1.016 128.445  0.00  0.00    +0.000 C 
BRANCH  38  39
ATOM     39  O   UNL     1      -6.649  -2.234 128.354  0.00  0.00    +0.000 OA
ATOM     40  H   UNL     1      -6.292  -2.436 129.236  0.00  0.00    +0.000 HD
ENDBRANCH  38  39
BRANCH  35  41
ATOM     41  C   UNL     1      -5.260   1.388 126.310  0.00  0.00    +0.000 C 
BRANCH  41  42
ATOM     42  O   UNL     1      -6.203   2.259 125.752  0.00  0.00    +0.000 OA
ATOM     43  H   UNL     1      -5.793   2.816 125.073  0.00  0.00    +0.000 HD
ENDBRANCH  41  42
ENDBRANCH  35  41
BRANCH  34  44
ATOM     44  O   UNL     1      -7.853  -0.868 126.207  0.00  0.00    +0.000 OA
BRANCH  44  47
ATOM     45  C   UNL     1      -8.297  -3.344 124.931  0.00  0.00    +0.000 C 
ATOM     46  O   UNL     1      -7.023  -2.679 125.093  0.00  0.00    +0.000 OA
ATOM     47  C   UNL     1      -7.075  -1.255 125.111  0.00  0.00    +0.000 C 
ATOM     48  C   UNL     1      -7.773  -0.670 123.859  0.00  0.00    +0.000 C 
ATOM     49  C   UNL     1      -9.144  -1.350 123.695  0.00  0.00    +0.000 C 
ATOM     50  C   UNL     1      -8.960  -2.874 123.644  0.00  0.00    +0.000 C 
BRANCH  48  51
ATOM     51  N   UNL     1      -7.989   0.801 123.905  0.00  0.00    +0.000 NA
ATOM     52  H   UNL     1      -9.003   0.956 123.964  0.00  0.00    +0.000 HD
ATOM     53  H   UNL     1      -7.761   1.156 122.968  0.00  0.00    +0.000 HD
ENDBRANCH  48  51
BRANCH  50  54
ATOM     54  O   UNL     1     -10.214  -3.520 123.450  0.00  0.00    +0.000 OA
ATOM     55  H   UNL     1     -10.007  -4.479 123.328  0.00  0.00    +0.000 HD
ENDBRANCH  50  54
BRANCH  49  56
ATOM     56  O   UNL     1      -9.775  -0.861 122.509  0.00  0.00    +0.000 OA
ATOM     57  H   UNL     1     -10.473  -0.251 122.796  0.00  0.00    +0.000 HD
ENDBRANCH  49  56
BRANCH  45  58
ATOM     58  C   UNL     1      -9.274  -3.182 126.118  0.00  0.00    +0.000 C 
BRANCH  58  59
ATOM     59  N   UNL     1      -9.008  -3.796 127.408  0.00  0.00    +0.000 NA
ATOM     60  H   UNL     1      -8.067  -4.201 127.360  0.00  0.00    +0.000 HD
ATOM     61  H   UNL     1      -9.655  -4.572 127.533  0.00  0.00    +0.000 HD
ENDBRANCH  58  59
ENDBRANCH  45  58
ENDBRANCH  44  47
ENDBRANCH  34  44
ENDBRANCH  33  37
ENDBRANCH   1  33
TORSDOF 22
ENDMDL
MODEL 2
REMARK VINA RESULT:      -8.2      1.951      2.956
REMARK  Name = Framycetin
REMARK  22 active torsions:
REMARK  status: ('A' for Active; 'I' for Inactive)
REMARK    1  A    between atoms: N_1  and  C_2
REMARK    2  A    between atoms: C_2  and  C_3
REMARK    3  A    between atoms: C_5  and  O_6
REMARK    4  A    between atoms: O_6  and  C_7
REMARK    5  A    between atoms: C_8  and  C_9
REMARK    6  A    between atoms: C_9  and  O_10
REMARK    7  A    between atoms: C_12  and  O_13
REMARK    8  A    between atoms: O_13  and  C_14
REMARK    9  A    between atoms: C_15  and  O_16
REMARK   10  A    between atoms: C_17  and  N_18
REMARK   11  A    between atoms: C_20  and  N_21
REMARK   12  A    between atoms: C_22  and  O_23
REMARK   13  A    between atoms: O_23  and  C_24
REMARK   14  A    between atoms: C_26  and  C_27
REMARK   15  A    between atoms: C_27  and  N_28
REMARK   16  A    between atoms: C_29  and  O_30
REMARK   17  A    between atoms: C_31  and  O_32
REMARK   18  A    between atoms: C_33  and  N_34
REMARK   19  A    between atoms: C_35  and  O_36
REMARK   20  A    between atoms: C_37  and  N_38
REMARK   21  A    between atoms: C_39  and  O_40
REMARK   22  A    between atoms: C_41  and  O_42
REMARK                            x       y       z     vdW  Elec       q    Type
REMARK                         _______ _______ _______ _____ _____    ______ ____
ROOT
ATOM      1  C   UNL     1      -8.237   3.753 130.414  0.00  0.00    +0.000 C 
ATOM      2  C   UNL     1      -8.351   3.658 131.902  0.00  0.00    +0.000 C 
ATOM      3  C   UNL     1      -8.134   2.419 132.768  0.00  0.00    +0.000 C 
ATOM      4  C   UNL     1      -9.270   1.435 132.275  0.00  0.00    +0.000 C 
ATOM      5  C   UNL     1      -9.255   1.428 130.720  0.00  0.00    +0.000 C 
ATOM      6  C   UNL     1      -9.399   2.877 129.915  0.00  0.00    +0.000 C 
ENDROOT
BRANCH   3   7
ATOM      7  N   UNL     1      -6.743   2.184 133.004  0.00  0.00    +0.000 NA
ATOM      8  H   UNL     1      -6.140   2.473 132.254  0.00  0.00    +0.000 HD
ATOM      9  H   UNL     1      -6.599   1.232 133.304  0.00  0.00    +0.000 HD
ENDBRANCH   3   7
BRANCH   5  10
ATOM     10  N   UNL     1      -7.902   0.888 130.501  0.00  0.00    +0.000 NA
ATOM     11  H   UNL     1      -7.543   0.585 131.421  0.00  0.00    +0.000 HD
ATOM     12  H   UNL     1      -7.239   1.615 130.272  0.00  0.00    +0.000 HD
ENDBRANCH   5  10
BRANCH   2  13
ATOM     13  O   UNL     1      -9.672   3.656 132.347  0.00  0.00    +0.000 OA
ATOM     14  H   UNL     1      -9.653   4.393 132.887  0.00  0.00    +0.000 HD
ENDBRANCH   2  13
BRANCH   6  15
ATOM     15  O   UNL     1     -10.812   3.698 130.003  0.00  0.00    +0.000 OA
BRANCH  15  16
ATOM     16  C   UNL     1     -10.922   5.240 130.091  0.00  0.00    +0.000 C 
ATOM     17  O   UNL     1     -12.314   5.674 129.943  0.00  0.00    +0.000 OA
ATOM     18  C   UNL     1     -12.757   6.859 128.985  0.00  0.00    +0.000 C 
ATOM     19  C   UNL     1     -12.156   8.078 129.515  0.00  0.00    +0.000 C 
ATOM     20  C   UNL     1     -10.631   7.785 129.558  0.00  0.00    +0.000 C 
ATOM     21  C   UNL     1     -10.166   6.551 130.521  0.00  0.00    +0.000 C 
BRANCH  21  22
ATOM     22  N   UNL     1     -10.518   6.830 131.902  0.00  0.00    +0.000 NA
ATOM     23  H   UNL     1      -9.929   7.623 132.165  0.00  0.00    +0.000 HD
ATOM     24  H   UNL     1     -10.158   6.057 132.463  0.00  0.00    +0.000 HD
ENDBRANCH  21  22
BRANCH  20  25
ATOM     25  O   UNL     1     -10.038   7.630 128.253  0.00  0.00    +0.000 OA
ATOM     26  H   UNL     1     -10.687   7.882 127.566  0.00  0.00    +0.000 HD
ENDBRANCH  20  25
BRANCH  19  27
ATOM     27  O   UNL     1     -12.734   8.303 130.801  0.00  0.00    +0.000 OA
ATOM     28  H   UNL     1     -12.704   9.269 130.942  0.00  0.00    +0.000 HD
ENDBRANCH  19  27
BRANCH  18  29
ATOM     29  C   UNL     1     -12.707   7.077 127.232  0.00  0.00    +0.000 C 
BRANCH  29  30
ATOM     30  N   UNL     1     -11.948   6.837 125.988  0.00  0.00    +0.000 NA
ATOM     31  H   UNL     1     -11.152   7.450 125.981  0.00  0.00    +0.000 HD
ATOM     32  H   UNL     1     -12.568   7.141 125.211  0.00  0.00    +0.000 HD
ENDBRANCH  29  30
ENDBRANCH  18  29
ENDBRANCH  15  16
ENDBRANCH   6  15
BRANCH   1  33
ATOM     33  O   UNL     1      -6.845   3.438 130.262  0.00  0.00    +0.000 OA
BRANCH  33  37
ATOM     34  C   UNL     1      -7.187   2.789 127.165  0.00  0.00    +0.000 C 
ATOM     35  C   UNL     1      -7.149   4.285 126.782  0.00  0.00    +0.000 C 
ATOM     36  O   UNL     1      -6.860   4.901 128.099  0.00  0.00    +0.000 OA
ATOM     37  C   UNL     1      -6.221   3.887 129.000  0.00  0.00    +0.000 C 
ATOM     38  C   UNL     1      -6.003   2.692 128.129  0.00  0.00    +0.000 C 
BRANCH  38  39
ATOM     39  O   UNL     1      -4.731   2.851 127.474  0.00  0.00    +0.000 OA
ATOM     40  H   UNL     1      -4.562   2.057 126.940  0.00  0.00    +0.000 HD
ENDBRANCH  38  39
BRANCH  35  41
ATOM     41  C   UNL     1      -8.303   4.804 125.846  0.00  0.00    +0.000 C 
BRANCH  41  42
ATOM     42  O   UNL     1      -9.143   5.800 126.360  0.00  0.00    +0.000 OA
ATOM     43  H   UNL     1     -10.074   5.566 126.224  0.00  0.00    +0.000 HD
ENDBRANCH  41  42
ENDBRANCH  35  41
BRANCH  34  44
ATOM     44  O   UNL     1      -7.026   1.654 126.369  0.00  0.00    +0.000 OA
BRANCH  44  47
ATOM     45  C   UNL     1      -8.968  -0.115 125.341  0.00  0.00    +0.000 C 
ATOM     46  O   UNL     1      -8.584   0.025 126.728  0.00  0.00    +0.000 OA
ATOM     47  C   UNL     1      -7.227   0.398 126.952  0.00  0.00    +0.000 C 
ATOM     48  C   UNL     1      -6.226  -0.561 126.264  0.00  0.00    +0.000 C 
ATOM     49  C   UNL     1      -6.609  -0.693 124.779  0.00  0.00    +0.000 C 
ATOM     50  C   UNL     1      -8.073  -1.141 124.663  0.00  0.00    +0.000 C 
BRANCH  48  51
ATOM     51  N   UNL     1      -4.806  -0.127 126.339  0.00  0.00    +0.000 NA
ATOM     52  H   UNL     1      -4.492  -0.282 127.305  0.00  0.00    +0.000 HD
ATOM     53  H   UNL     1      -4.814   0.899 126.268  0.00  0.00    +0.000 HD
ENDBRANCH  48  51
BRANCH  50  54
ATOM     54  O   UNL     1      -8.433  -1.310 123.295  0.00  0.00    +0.000 OA
ATOM     55  H   UNL     1      -8.512  -0.396 122.923  0.00  0.00    +0.000 HD
ENDBRANCH  50  54
BRANCH  49  56
ATOM     56  O   UNL     1      -5.726  -1.623 124.145  0.00  0.00    +0.000 OA
ATOM     57  H   UNL     1      -6.266  -2.387 123.887  0.00  0.00    +0.000 HD
ENDBRANCH  49  56
BRANCH  45  58
ATOM     58  C   UNL     1      -8.973   1.201 124.528  0.00  0.00    +0.000 C 
BRANCH  58  59
ATOM     59  N   UNL     1     -10.185   1.986 124.364  0.00  0.00    +0.000 NA
ATOM     60  H   UNL     1     -10.947   1.458 124.802  0.00  0.00    +0.000 HD
ATOM     61  H   UNL     1     -10.400   2.039 123.370  0.00  0.00    +0.000 HD
ENDBRANCH  58  59
ENDBRANCH  45  58
ENDBRANCH  44  47
ENDBRANCH  34  44
ENDBRANCH  33  37
ENDBRANCH   1  33
TORSDOF 22
ENDMDL
MODEL 3
REMARK VINA RESULT:      -7.9      3.057      7.722
REMARK  Name = Framycetin
REMARK  22 active torsions:
REMARK  status: ('A' for Active; 'I' for Inactive)
REMARK    1  A    between atoms: N_1  and  C_2
REMARK    2  A    between atoms: C_2  and  C_3
REMARK    3  A    between atoms: C_5  and  O_6
REMARK    4  A    between atoms: O_6  and  C_7
REMARK    5  A    between atoms: C_8  and  C_9
REMARK    6  A    between atoms: C_9  and  O_10
REMARK    7  A    between atoms: C_12  and  O_13
REMARK    8  A    between atoms: O_13  and  C_14
REMARK    9  A    between atoms: C_15  and  O_16
REMARK   10  A    between atoms: C_17  and  N_18
REMARK   11  A    between atoms: C_20  and  N_21
REMARK   12  A    between atoms: C_22  and  O_23
REMARK   13  A    between atoms: O_23  and  C_24
REMARK   14  A    between atoms: C_26  and  C_27
REMARK   15  A    between atoms: C_27  and  N_28
REMARK   16  A    between atoms: C_29  and  O_30
REMARK   17  A    between atoms: C_31  and  O_32
REMARK   18  A    between atoms: C_33  and  N_34
REMARK   19  A    between atoms: C_35  and  O_36
REMARK   20  A    between atoms: C_37  and  N_38
REMARK   21  A    between atoms: C_39  and  O_40
REMARK   22  A    between atoms: C_41  and  O_42
REMARK                            x       y       z     vdW  Elec       q    Type
REMARK                         _______ _______ _______ _____ _____    ______ ____
ROOT
ATOM      1  C   UNL     1      -7.562  -0.713 125.280  0.00  0.00    +0.000 C 
ATOM      2  C   UNL     1      -8.915  -0.975 124.699  0.00  0.00    +0.000 C 
ATOM      3  C   UNL     1      -9.335  -2.166 123.840  0.00  0.00    +0.000 C 
ATOM      4  C   UNL     1      -8.433  -2.013 122.551  0.00  0.00    +0.000 C 
ATOM      5  C   UNL     1      -6.974  -1.745 123.017  0.00  0.00    +0.000 C 
ATOM      6  C   UNL     1      -6.687  -0.464 124.040  0.00  0.00    +0.000 C 
ENDROOT
BRANCH   3   7
ATOM      7  N   UNL     1      -9.617  -3.315 124.644  0.00  0.00    +0.000 NA
ATOM      8  H   UNL     1     -10.577  -3.397 124.931  0.00  0.00    +0.000 HD
ATOM      9  H   UNL     1      -8.955  -3.377 125.402  0.00  0.00    +0.000 HD
ENDBRANCH   3   7
BRANCH   5  10
ATOM     10  N   UNL     1      -6.723  -3.003 123.740  0.00  0.00    +0.000 NA
ATOM     11  H   UNL     1      -6.800  -3.771 123.051  0.00  0.00    +0.000 HD
ATOM     12  H   UNL     1      -7.482  -3.237 124.365  0.00  0.00    +0.000 HD
ENDBRANCH   5  10
BRANCH   2  13
ATOM     13  O   UNL     1      -9.200  -0.167 123.599  0.00  0.00    +0.000 OA
ATOM     14  H   UNL     1      -8.725  -0.611 122.956  0.00  0.00    +0.000 HD
ENDBRANCH   2  13
BRANCH   6  15
ATOM     15  O   UNL     1      -6.902   1.060 123.485  0.00  0.00    +0.000 OA
BRANCH  15  16
ATOM     16  C   UNL     1      -6.981   2.315 124.387  0.00  0.00    +0.000 C 
ATOM     17  O   UNL     1      -5.982   3.310 123.988  0.00  0.00    +0.000 OA
ATOM     18  C   UNL     1      -5.034   4.053 125.022  0.00  0.00    +0.000 C 
ATOM     19  C   UNL     1      -5.894   4.870 125.872  0.00  0.00    +0.000 C 
ATOM     20  C   UNL     1      -6.910   3.870 126.491  0.00  0.00    +0.000 C 
ATOM     21  C   UNL     1      -7.872   3.080 125.434  0.00  0.00    +0.000 C 
BRANCH  21  22
ATOM     22  N   UNL     1      -8.698   4.026 124.703  0.00  0.00    +0.000 NA
ATOM     23  H   UNL     1      -8.449   3.883 123.722  0.00  0.00    +0.000 HD
ATOM     24  H   UNL     1      -8.342   4.959 124.917  0.00  0.00    +0.000 HD
ENDBRANCH  21  22
BRANCH  20  25
ATOM     25  O   UNL     1      -6.306   2.924 127.395  0.00  0.00    +0.000 OA
ATOM     26  H   UNL     1      -5.876   2.209 126.885  0.00  0.00    +0.000 HD
ENDBRANCH  20  25
BRANCH  19  27
ATOM     27  O   UNL     1      -6.498   5.853 125.031  0.00  0.00    +0.000 OA
ATOM     28  H   UNL     1      -6.227   5.628 124.120  0.00  0.00    +0.000 HD
ENDBRANCH  19  27
BRANCH  18  29
ATOM     29  C   UNL     1      -3.758   3.492 126.109  0.00  0.00    +0.000 C 
BRANCH  29  30
ATOM     30  N   UNL     1      -3.288   2.404 126.989  0.00  0.00    +0.000 NA
ATOM     31  H   UNL     1      -2.408   2.678 127.387  0.00  0.00    +0.000 HD
ATOM     32  H   UNL     1      -3.098   1.594 126.367  0.00  0.00    +0.000 HD
ENDBRANCH  29  30
ENDBRANCH  18  29
ENDBRANCH  15  16
ENDBRANCH   6  15
BRANCH   1  33
ATOM     33  O   UNL     1      -7.453  -1.849 126.150  0.00  0.00    +0.000 OA
BRANCH  33  37
ATOM     34  C   UNL     1      -7.139  -0.570 129.048  0.00  0.00    +0.000 C 
ATOM     35  C   UNL     1      -6.477  -1.849 129.609  0.00  0.00    +0.000 C 
ATOM     36  O   UNL     1      -6.364  -2.666 128.379  0.00  0.00    +0.000 OA
ATOM     37  C   UNL     1      -6.392  -1.772 127.175  0.00  0.00    +0.000 C 
ATOM     38  C   UNL     1      -6.376  -0.386 127.735  0.00  0.00    +0.000 C 
BRANCH  38  39
ATOM     39  O   UNL     1      -5.001  -0.007 127.933  0.00  0.00    +0.000 OA
ATOM     40  H   UNL     1      -4.732   0.562 127.191  0.00  0.00    +0.000 HD
ENDBRANCH  38  39
BRANCH  35  41
ATOM     41  C   UNL     1      -7.074  -2.423 130.948  0.00  0.00    +0.000 C 
BRANCH  41  42
ATOM     42  O   UNL     1      -6.644  -1.832 132.142  0.00  0.00    +0.000 OA
ATOM     43  H   UNL     1      -6.996  -2.312 132.908  0.00  0.00    +0.000 HD
ENDBRANCH  41  42
ENDBRANCH  35  41
BRANCH  34  44
ATOM     44  O   UNL     1      -7.173   0.724 129.567  0.00  0.00    +0.000 OA
BRANCH  44  47
ATOM     45  C   UNL     1      -6.405   1.891 132.017  0.00  0.00    +0.000 C 
ATOM     46  O   UNL     1      -7.488   0.954 131.815  0.00  0.00    +0.000 OA
ATOM     47  C   UNL     1      -8.128   1.024 130.544  0.00  0.00    +0.000 C 
ATOM     48  C   UNL     1      -8.647   2.445 130.218  0.00  0.00    +0.000 C 
ATOM     49  C   UNL     1      -7.493   3.447 130.401  0.00  0.00    +0.000 C 
ATOM     50  C   UNL     1      -6.912   3.311 131.816  0.00  0.00    +0.000 C 
BRANCH  48  51
ATOM     51  N   UNL     1      -9.184   2.604 128.840  0.00  0.00    +0.000 NA
ATOM     52  H   UNL     1      -8.861   3.515 128.492  0.00  0.00    +0.000 HD
ATOM     53  H   UNL     1     -10.197   2.747 128.939  0.00  0.00    +0.000 HD
ENDBRANCH  48  51
BRANCH  50  54
ATOM     54  O   UNL     1      -5.870   4.261 132.018  0.00  0.00    +0.000 OA
ATOM     55  H   UNL     1      -5.357   4.281 131.172  0.00  0.00    +0.000 HD
ENDBRANCH  50  54
BRANCH  49  56
ATOM     56  O   UNL     1      -7.974   4.772 130.159  0.00  0.00    +0.000 OA
ATOM     57  H   UNL     1      -7.242   5.375 130.359  0.00  0.00    +0.000 HD
ENDBRANCH  49  56
BRANCH  45  58
ATOM     58  C   UNL     1      -5.157   1.647 131.137  0.00  0.00    +0.000 C 
BRANCH  58  59
ATOM     59  N   UNL     1      -4.444   0.381 131.168  0.00  0.00    +0.000 NA
ATOM     60  H   UNL     1      -5.149  -0.361 131.241  0.00  0.00    +0.000 HD
ATOM     61  H   UNL     1      -3.892   0.344 132.022  0.00  0.00    +0.000 HD
ENDBRANCH  58  59
ENDBRANCH  45  58
ENDBRANCH  44  47
ENDBRANCH  34  44
ENDBRANCH  33  37
ENDBRANCH   1  33
TORSDOF 22
ENDMDL
MODEL 4
REMARK VINA RESULT:      -7.9      2.335      8.975
REMARK  Name = Framycetin
REMARK  22 active torsions:
REMARK  status: ('A' for Active; 'I' for Inactive)
REMARK    1  A    between atoms: N_1  and  C_2
REMARK    2  A    between atoms: C_2  and  C_3
REMARK    3  A    between atoms: C_5  and  O_6
REMARK    4  A    between atoms: O_6  and  C_7
REMARK    5  A    between atoms: C_8  and  C_9
REMARK    6  A    between atoms: C_9  and  O_10
REMARK    7  A    between atoms: C_12  and  O_13
REMARK    8  A    between atoms: O_13  and  C_14
REMARK    9  A    between atoms: C_15  and  O_16
REMARK   10  A    between atoms: C_17  and  N_18
REMARK   11  A    between atoms: C_20  and  N_21
REMARK   12  A    between atoms: C_22  and  O_23
REMARK   13  A    between atoms: O_23  and  C_24
REMARK   14  A    between atoms: C_26  and  C_27
REMARK   15  A    between atoms: C_27  and  N_28
REMARK   16  A    between atoms: C_29  and  O_30
REMARK   17  A    between atoms: C_31  and  O_32
REMARK   18  A    between atoms: C_33  and  N_34
REMARK   19  A    between atoms: C_35  and  O_36
REMARK   20  A    between atoms: C_37  and  N_38
REMARK   21  A    between atoms: C_39  and  O_40
REMARK   22  A    between atoms: C_41  and  O_42
REMARK                            x       y       z     vdW  Elec       q    Type
REMARK                         _______ _______ _______ _____ _____    ______ ____
ROOT
ATOM      1  C   UNL     1      -5.965   3.390 127.299  0.00  0.00    +0.000 C 
ATOM      2  C   UNL     1      -5.453   3.799 125.954  0.00  0.00    +0.000 C 
ATOM      3  C   UNL     1      -6.226   4.522 124.853  0.00  0.00    +0.000 C 
ATOM      4  C   UNL     1      -7.371   3.494 124.486  0.00  0.00    +0.000 C 
ATOM      5  C   UNL     1      -8.006   2.992 125.813  0.00  0.00    +0.000 C 
ATOM      6  C   UNL     1      -7.014   2.316 126.965  0.00  0.00    +0.000 C 
ENDROOT
BRANCH   3   7
ATOM      7  N   UNL     1      -6.288   5.930 125.098  0.00  0.00    +0.000 NA
ATOM      8  H   UNL     1      -7.217   6.286 125.242  0.00  0.00    +0.000 HD
ATOM      9  H   UNL     1      -5.763   6.426 124.395  0.00  0.00    +0.000 HD
ENDBRANCH   3   7
BRANCH   5  10
ATOM     10  N   UNL     1      -8.533   4.270 126.320  0.00  0.00    +0.000 NA
ATOM     11  H   UNL     1      -8.571   4.196 127.351  0.00  0.00    +0.000 HD
ATOM     12  H   UNL     1      -9.513   4.385 126.105  0.00  0.00    +0.000 HD
ENDBRANCH   5  10
BRANCH   2  13
ATOM     13  O   UNL     1      -5.330   2.727 125.071  0.00  0.00    +0.000 OA
ATOM     14  H   UNL     1      -4.419   2.649 125.053  0.00  0.00    +0.000 HD
ENDBRANCH   2  13
BRANCH   6  15
ATOM     15  O   UNL     1      -6.287   0.885 126.648  0.00  0.00    +0.000 OA
BRANCH  15  16
ATOM     16  C   UNL     1      -6.907  -0.237 125.781  0.00  0.00    +0.000 C 
ATOM     17  O   UNL     1      -6.868   0.117 124.360  0.00  0.00    +0.000 OA
ATOM     18  C   UNL     1      -8.115  -0.040 123.390  0.00  0.00    +0.000 C 
ATOM     19  C   UNL     1      -8.400  -1.468 123.297  0.00  0.00    +0.000 C 
ATOM     20  C   UNL     1      -8.629  -1.925 124.765  0.00  0.00    +0.000 C 
ATOM     21  C   UNL     1      -7.361  -1.744 125.777  0.00  0.00    +0.000 C 
BRANCH  21  22
ATOM     22  N   UNL     1      -6.236  -2.542 125.323  0.00  0.00    +0.000 NA
ATOM     23  H   UNL     1      -6.604  -3.090 124.542  0.00  0.00    +0.000 HD
ATOM     24  H   UNL     1      -6.052  -3.237 126.049  0.00  0.00    +0.000 HD
ENDBRANCH  21  22
BRANCH  20  25
ATOM     25  O   UNL     1      -9.812  -1.361 125.364  0.00  0.00    +0.000 OA
ATOM     26  H   UNL     1     -10.595  -1.595 124.828  0.00  0.00    +0.000 HD
ENDBRANCH  20  25
BRANCH  19  27
ATOM     27  O   UNL     1      -7.269  -2.080 122.676  0.00  0.00    +0.000 OA
ATOM     28  H   UNL     1      -7.528  -2.239 121.748  0.00  0.00    +0.000 HD
ENDBRANCH  19  27
BRANCH  18  29
ATOM     29  C   UNL     1      -9.707   0.724 123.337  0.00  0.00    +0.000 C 
BRANCH  29  30
ATOM     30  N   UNL     1     -10.786   1.366 124.115  0.00  0.00    +0.000 NA
ATOM     31  H   UNL     1     -11.564   1.527 123.502  0.00  0.00    +0.000 HD
ATOM     32  H   UNL     1     -10.422   2.299 124.392  0.00  0.00    +0.000 HD
ENDBRANCH  29  30
ENDBRANCH  18  29
ENDBRANCH  15  16
ENDBRANCH   6  15
BRANCH   1  33
ATOM     33  O   UNL     1      -6.257   4.685 127.845  0.00  0.00    +0.000 OA
BRANCH  33  37
ATOM     34  C   UNL     1      -8.794   4.763 129.766  0.00  0.00    +0.000 C 
ATOM     35  C   UNL     1      -8.197   3.687 130.702  0.00  0.00    +0.000 C 
ATOM     36  O   UNL     1      -6.856   3.507 130.098  0.00  0.00    +0.000 OA
ATOM     37  C   UNL     1      -6.493   4.726 129.303  0.00  0.00    +0.000 C 
ATOM     38  C   UNL     1      -7.597   5.697 129.576  0.00  0.00    +0.000 C 
BRANCH  38  39
ATOM     39  O   UNL     1      -7.256   6.424 130.770  0.00  0.00    +0.000 OA
ATOM     40  H   UNL     1      -8.016   6.386 131.377  0.00  0.00    +0.000 HD
ENDBRANCH  38  39
BRANCH  35  41
ATOM     41  C   UNL     1      -9.129   2.471 131.061  0.00  0.00    +0.000 C 
BRANCH  41  42
ATOM     42  O   UNL     1     -10.221   2.730 131.898  0.00  0.00    +0.000 OA
ATOM     43  H   UNL     1     -10.828   1.974 131.912  0.00  0.00    +0.000 HD
ENDBRANCH  41  42
ENDBRANCH  35  41
BRANCH  34  44
ATOM     44  O   UNL     1      -9.846   5.654 129.979  0.00  0.00    +0.000 OA
BRANCH  44  47
ATOM     45  C   UNL     1     -12.307   6.397 131.139  0.00  0.00    +0.000 C 
ATOM     46  O   UNL     1     -12.075   5.263 130.271  0.00  0.00    +0.000 OA
ATOM     47  C   UNL     1     -11.049   5.438 129.299  0.00  0.00    +0.000 C 
ATOM     48  C   UNL     1     -11.275   6.689 128.415  0.00  0.00    +0.000 C 
ATOM     49  C   UNL     1     -11.493   7.907 129.330  0.00  0.00    +0.000 C 
ATOM     50  C   UNL     1     -12.647   7.621 130.302  0.00  0.00    +0.000 C 
BRANCH  48  51
ATOM     51  N   UNL     1     -10.153   7.000 127.490  0.00  0.00    +0.000 NA
ATOM     52  H   UNL     1      -9.990   6.162 126.918  0.00  0.00    +0.000 HD
ATOM     53  H   UNL     1      -9.305   7.045 128.069  0.00  0.00    +0.000 HD
ENDBRANCH  48  51
BRANCH  50  54
ATOM     54  O   UNL     1     -12.892   8.755 131.129  0.00  0.00    +0.000 OA
ATOM     55  H   UNL     1     -12.067   8.885 131.658  0.00  0.00    +0.000 HD
ENDBRANCH  50  54
BRANCH  49  56
ATOM     56  O   UNL     1     -11.762   9.059 128.526  0.00  0.00    +0.000 OA
ATOM     57  H   UNL     1     -11.576   8.807 127.607  0.00  0.00    +0.000 HD
ENDBRANCH  49  56
BRANCH  45  58
ATOM     58  C   UNL     1     -11.149   6.725 132.109  0.00  0.00    +0.000 C 
BRANCH  58  59
ATOM     59  N   UNL     1     -10.472   5.683 132.862  0.00  0.00    +0.000 NA
ATOM     60  H   UNL     1      -9.595   5.478 132.371  0.00  0.00    +0.000 HD
ATOM     61  H   UNL     1     -11.037   4.837 132.817  0.00  0.00    +0.000 HD
ENDBRANCH  58  59
ENDBRANCH  45  58
ENDBRANCH  44  47
ENDBRANCH  34  44
ENDBRANCH  33  37
ENDBRANCH   1  33
TORSDOF 22
ENDMDL
MODEL 5
REMARK VINA RESULT:      -7.9      2.161      9.156
REMARK  Name = Framycetin
REMARK  22 active torsions:
REMARK  status: ('A' for Active; 'I' for Inactive)
REMARK    1  A    between atoms: N_1  and  C_2
REMARK    2  A    between atoms: C_2  and  C_3
REMARK    3  A    between atoms: C_5  and  O_6
REMARK    4  A    between atoms: O_6  and  C_7
REMARK    5  A    between atoms: C_8  and  C_9
REMARK    6  A    between atoms: C_9  and  O_10
REMARK    7  A    between atoms: C_12  and  O_13
REMARK    8  A    between atoms: O_13  and  C_14
REMARK    9  A    between atoms: C_15  and  O_16
REMARK   10  A    between atoms: C_17  and  N_18
REMARK   11  A    between atoms: C_20  and  N_21
REMARK   12  A    between atoms: C_22  and  O_23
REMARK   13  A    between atoms: O_23  and  C_24
REMARK   14  A    between atoms: C_26  and  C_27
REMARK   15  A    between atoms: C_27  and  N_28
REMARK   16  A    between atoms: C_29  and  O_30
REMARK   17  A    between atoms: C_31  and  O_32
REMARK   18  A    between atoms: C_33  and  N_34
REMARK   19  A    between atoms: C_35  and  O_36
REMARK   20  A    between atoms: C_37  and  N_38
REMARK   21  A    between atoms: C_39  and  O_40
REMARK   22  A    between atoms: C_41  and  O_42
REMARK                            x       y       z     vdW  Elec       q    Type
REMARK                         _______ _______ _______ _____ _____    ______ ____
ROOT
ATOM      1  C   UNL     1      -7.382   2.458 127.455  0.00  0.00    +0.000 C 
ATOM      2  C   UNL     1      -6.715   1.194 127.895  0.00  0.00    +0.000 C 
ATOM      3  C   UNL     1      -5.321   0.703 127.508  0.00  0.00    +0.000 C 
ATOM      4  C   UNL     1      -5.435   0.503 125.943  0.00  0.00    +0.000 C 
ATOM      5  C   UNL     1      -6.111   1.769 125.347  0.00  0.00    +0.000 C 
ATOM      6  C   UNL     1      -7.590   2.240 125.947  0.00  0.00    +0.000 C 
ENDROOT
BRANCH   3   7
ATOM      7  N   UNL     1      -4.307   1.341 128.290  0.00  0.00    +0.000 NA
ATOM      8  H   UNL     1      -3.396   1.343 127.866  0.00  0.00    +0.000 HD
ATOM      9  H   UNL     1      -4.321   0.982 129.232  0.00  0.00    +0.000 HD
ENDBRANCH   3   7
BRANCH   5  10
ATOM     10  N   UNL     1      -5.100   2.773 125.719  0.00  0.00    +0.000 NA
ATOM     11  H   UNL     1      -4.708   3.151 124.840  0.00  0.00    +0.000 HD
ATOM     12  H   UNL     1      -4.277   2.348 126.123  0.00  0.00    +0.000 HD
ENDBRANCH   5  10
BRANCH   2  13
ATOM     13  O   UNL     1      -7.218   0.062 127.256  0.00  0.00    +0.000 OA
ATOM     14  H   UNL     1      -6.552  -0.077 126.645  0.00  0.00    +0.000 HD
ENDBRANCH   2  13
BRANCH   6  15
ATOM     15  O   UNL     1      -8.895   1.289 125.681  0.00  0.00    +0.000 OA
BRANCH  15  16
ATOM     16  C   UNL     1      -8.955   0.165 124.618  0.00  0.00    +0.000 C 
ATOM     17  O   UNL     1      -9.306  -1.118 125.233  0.00  0.00    +0.000 OA
ATOM     18  C   UNL     1      -8.527  -2.469 124.932  0.00  0.00    +0.000 C 
ATOM     19  C   UNL     1      -8.752  -2.781 123.525  0.00  0.00    +0.000 C 
ATOM     20  C   UNL     1      -8.249  -1.529 122.753  0.00  0.00    +0.000 C 
ATOM     21  C   UNL     1      -9.025  -0.130 123.074  0.00  0.00    +0.000 C 
BRANCH  21  22
ATOM     22  N   UNL     1     -10.428  -0.237 122.710  0.00  0.00    +0.000 NA
ATOM     23  H   UNL     1     -10.688  -1.194 122.960  0.00  0.00    +0.000 HD
ATOM     24  H   UNL     1     -10.471  -0.226 121.690  0.00  0.00    +0.000 HD
ENDBRANCH  21  22
BRANCH  20  25
ATOM     25  O   UNL     1      -6.825  -1.326 122.853  0.00  0.00    +0.000 OA
ATOM     26  H   UNL     1      -6.539  -1.452 123.779  0.00  0.00    +0.000 HD
ENDBRANCH  20  25
BRANCH  19  27
ATOM     27  O   UNL     1     -10.150  -3.026 123.370  0.00  0.00    +0.000 OA
ATOM     28  H   UNL     1     -10.573  -2.679 124.179  0.00  0.00    +0.000 HD
ENDBRANCH  19  27
BRANCH  18  29
ATOM     29  C   UNL     1      -6.869  -2.998 125.234  0.00  0.00    +0.000 C 
BRANCH  29  30
ATOM     30  N   UNL     1      -5.468  -2.968 124.769  0.00  0.00    +0.000 NA
ATOM     31  H   UNL     1      -5.390  -2.274 124.047  0.00  0.00    +0.000 HD
ATOM     32  H   UNL     1      -5.294  -3.890 124.321  0.00  0.00    +0.000 HD
ENDBRANCH  29  30
ENDBRANCH  18  29
ENDBRANCH  15  16
ENDBRANCH   6  15
BRANCH   1  33
ATOM     33  O   UNL     1      -6.482   3.415 128.032  0.00  0.00    +0.000 OA
BRANCH  33  37
ATOM     34  C   UNL     1      -9.094   4.454 129.525  0.00  0.00    +0.000 C 
ATOM     35  C   UNL     1      -8.819   3.566 130.759  0.00  0.00    +0.000 C 
ATOM     36  O   UNL     1      -7.501   2.992 130.399  0.00  0.00    +0.000 OA
ATOM     37  C   UNL     1      -6.823   3.875 129.394  0.00  0.00    +0.000 C 
ATOM     38  C   UNL     1      -7.715   5.070 129.280  0.00  0.00    +0.000 C 
BRANCH  38  39
ATOM     39  O   UNL     1      -7.328   6.006 130.303  0.00  0.00    +0.000 OA
ATOM     40  H   UNL     1      -6.818   5.527 130.978  0.00  0.00    +0.000 HD
ENDBRANCH  38  39
BRANCH  35  41
ATOM     41  C   UNL     1     -10.013   2.678 131.270  0.00  0.00    +0.000 C 
BRANCH  41  42
ATOM     42  O   UNL     1     -11.298   3.025 130.834  0.00  0.00    +0.000 OA
ATOM     43  H   UNL     1     -11.971   2.657 131.427  0.00  0.00    +0.000 HD
ENDBRANCH  41  42
ENDBRANCH  35  41
BRANCH  34  44
ATOM     44  O   UNL     1      -9.947   5.549 129.379  0.00  0.00    +0.000 OA
BRANCH  44  47
ATOM     45  C   UNL     1     -10.504   8.133 128.395  0.00  0.00    +0.000 C 
ATOM     46  O   UNL     1      -9.439   7.773 129.306  0.00  0.00    +0.000 OA
ATOM     47  C   UNL     1      -9.722   6.678 130.173  0.00  0.00    +0.000 C 
ATOM     48  C   UNL     1     -11.016   6.891 130.997  0.00  0.00    +0.000 C 
ATOM     49  C   UNL     1     -12.162   7.246 130.032  0.00  0.00    +0.000 C 
ATOM     50  C   UNL     1     -11.763   8.462 129.183  0.00  0.00    +0.000 C 
BRANCH  48  51
ATOM     51  N   UNL     1     -11.435   5.712 131.800  0.00  0.00    +0.000 NA
ATOM     52  H   UNL     1     -10.710   5.555 132.510  0.00  0.00    +0.000 HD
ATOM     53  H   UNL     1     -11.331   4.893 131.188  0.00  0.00    +0.000 HD
ENDBRANCH  48  51
BRANCH  50  54
ATOM     54  O   UNL     1     -12.829   8.832 128.314  0.00  0.00    +0.000 OA
ATOM     55  H   UNL     1     -13.414   8.036 128.252  0.00  0.00    +0.000 HD
ENDBRANCH  50  54
BRANCH  49  56
ATOM     56  O   UNL     1     -13.350   7.503 130.785  0.00  0.00    +0.000 OA
ATOM     57  H   UNL     1     -14.030   7.774 130.149  0.00  0.00    +0.000 HD
ENDBRANCH  49  56
BRANCH  45  58
ATOM     58  C   UNL     1     -10.820   7.078 127.310  0.00  0.00    +0.000 C 
BRANCH  58  59
ATOM     59  N   UNL     1      -9.766   6.463 126.521  0.00  0.00    +0.000 NA
ATOM     60  H   UNL     1      -9.918   5.449 126.554  0.00  0.00    +0.000 HD
ATOM     61  H   UNL     1      -8.876   6.640 126.982  0.00  0.00    +0.000 HD
ENDBRANCH  58  59
ENDBRANCH  45  58
ENDBRANCH  44  47
ENDBRANCH  34  44
ENDBRANCH  33  37
ENDBRANCH   1  33
TORSDOF 22
ENDMDL
MODEL 6
REMARK VINA RESULT:      -7.9      3.026      5.850
REMARK  Name = Framycetin
REMARK  22 active torsions:
REMARK  status: ('A' for Active; 'I' for Inactive)
REMARK    1  A    between atoms: N_1  and  C_2
REMARK    2  A    between atoms: C_2  and  C_3
REMARK    3  A    between atoms: C_5  and  O_6
REMARK    4  A    between atoms: O_6  and  C_7
REMARK    5  A    between atoms: C_8  and  C_9
REMARK    6  A    between atoms: C_9  and  O_10
REMARK    7  A    between atoms: C_12  and  O_13
REMARK    8  A    between atoms: O_13  and  C_14
REMARK    9  A    between atoms: C_15  and  O_16
REMARK   10  A    between atoms: C_17  and  N_18
REMARK   11  A    between atoms: C_20  and  N_21
REMARK   12  A    between atoms: C_22  and  O_23
REMARK   13  A    between atoms: O_23  and  C_24
REMARK   14  A    between atoms: C_26  and  C_27
REMARK   15  A    between atoms: C_27  and  N_28
REMARK   16  A    between atoms: C_29  and  O_30
REMARK   17  A    between atoms: C_31  and  O_32
REMARK   18  A    between atoms: C_33  and  N_34
REMARK   19  A    between atoms: C_35  and  O_36
REMARK   20  A    between atoms: C_37  and  N_38
REMARK   21  A    between atoms: C_39  and  O_40
REMARK   22  A    between atoms: C_41  and  O_42
REMARK                            x       y       z     vdW  Elec       q    Type
REMARK                         _______ _______ _______ _____ _____    ______ ____
ROOT
ATOM      1  C   UNL     1      -7.725   5.015 130.359  0.00  0.00    +0.000 C 
ATOM      2  C   UNL     1      -8.423   6.248 130.838  0.00  0.00    +0.000 C 
ATOM      3  C   UNL     1      -9.704   6.321 131.666  0.00  0.00    +0.000 C 
ATOM      4  C   UNL     1     -10.783   5.665 130.714  0.00  0.00    +0.000 C 
ATOM      5  C   UNL     1     -10.183   4.348 130.148  0.00  0.00    +0.000 C 
ATOM      6  C   UNL     1      -8.722   4.413 129.354  0.00  0.00    +0.000 C 
ENDROOT
BRANCH   3   7
ATOM      7  N   UNL     1      -9.441   6.105 133.056  0.00  0.00    +0.000 NA
ATOM      8  H   UNL     1      -8.885   5.291 133.251  0.00  0.00    +0.000 HD
ATOM      9  H   UNL     1     -10.299   6.152 133.581  0.00  0.00    +0.000 HD
ENDBRANCH   3   7
BRANCH   5  10
ATOM     10  N   UNL     1     -10.014   3.606 131.408  0.00  0.00    +0.000 NA
ATOM     11  H   UNL     1      -9.555   2.709 131.174  0.00  0.00    +0.000 HD
ATOM     12  H   UNL     1     -10.896   3.275 131.772  0.00  0.00    +0.000 HD
ENDBRANCH   5  10
BRANCH   2  13
ATOM     13  O   UNL     1      -9.120   6.907 129.826  0.00  0.00    +0.000 OA
ATOM     14  H   UNL     1      -8.427   7.090 129.258  0.00  0.00    +0.000 HD
ENDBRANCH   2  13
BRANCH   6  15
ATOM     15  O   UNL     1      -8.631   5.196 127.920  0.00  0.00    +0.000 OA
BRANCH  15  16
ATOM     16  C   UNL     1      -7.924   4.634 126.662  0.00  0.00    +0.000 C 
ATOM     17  O   UNL     1      -8.903   4.233 125.647  0.00  0.00    +0.000 OA
ATOM     18  C   UNL     1      -8.839   2.846 124.879  0.00  0.00    +0.000 C 
ATOM     19  C   UNL     1      -7.620   2.864 124.077  0.00  0.00    +0.000 C 
ATOM     20  C   UNL     1      -6.475   3.120 125.096  0.00  0.00    +0.000 C 
ATOM     21  C   UNL     1      -6.545   4.532 125.911  0.00  0.00    +0.000 C 
BRANCH  21  22
ATOM     22  N   UNL     1      -6.462   5.651 124.988  0.00  0.00    +0.000 NA
ATOM     23  H   UNL     1      -7.206   5.481 124.308  0.00  0.00    +0.000 HD
ATOM     24  H   UNL     1      -5.602   5.530 124.451  0.00  0.00    +0.000 HD
ENDBRANCH  21  22
BRANCH  20  25
ATOM     25  O   UNL     1      -6.279   2.034 126.024  0.00  0.00    +0.000 OA
ATOM     26  H   UNL     1      -5.636   1.398 125.653  0.00  0.00    +0.000 HD
ENDBRANCH  20  25
BRANCH  19  27
ATOM     27  O   UNL     1      -7.771   3.904 123.111  0.00  0.00    +0.000 OA
ATOM     28  H   UNL     1      -7.753   4.741 123.614  0.00  0.00    +0.000 HD
ENDBRANCH  19  27
BRANCH  18  29
ATOM     29  C   UNL     1      -8.987   1.166 125.406  0.00  0.00    +0.000 C 
BRANCH  29  30
ATOM     30  N   UNL     1      -8.547   0.141 126.374  0.00  0.00    +0.000 NA
ATOM     31  H   UNL     1      -7.545   0.082 126.338  0.00  0.00    +0.000 HD
ATOM     32  H   UNL     1      -8.915  -0.764 126.019  0.00  0.00    +0.000 HD
ENDBRANCH  29  30
ENDBRANCH  18  29
ENDBRANCH  15  16
ENDBRANCH   6  15
BRANCH   1  33
ATOM     33  O   UNL     1      -7.378   4.432 131.624  0.00  0.00    +0.000 OA
BRANCH  33  37
ATOM     34  C   UNL     1      -5.812   1.997 130.302  0.00  0.00    +0.000 C 
ATOM     35  C   UNL     1      -4.562   2.865 130.033  0.00  0.00    +0.000 C 
ATOM     36  O   UNL     1      -4.958   4.133 130.689  0.00  0.00    +0.000 OA
ATOM     37  C   UNL     1      -6.019   3.860 131.714  0.00  0.00    +0.000 C 
ATOM     38  C   UNL     1      -6.134   2.371 131.750  0.00  0.00    +0.000 C 
BRANCH  38  39
ATOM     39  O   UNL     1      -5.160   1.877 132.688  0.00  0.00    +0.000 OA
ATOM     40  H   UNL     1      -5.387   0.957 132.907  0.00  0.00    +0.000 HD
ENDBRANCH  38  39
BRANCH  35  41
ATOM     41  C   UNL     1      -3.973   2.821 128.574  0.00  0.00    +0.000 C 
BRANCH  41  42
ATOM     42  O   UNL     1      -4.118   1.623 127.864  0.00  0.00    +0.000 OA
ATOM     43  H   UNL     1      -3.255   1.292 127.573  0.00  0.00    +0.000 HD
ENDBRANCH  41  42
ENDBRANCH  35  41
BRANCH  34  44
ATOM     44  O   UNL     1      -5.958   0.610 130.304  0.00  0.00    +0.000 OA
BRANCH  44  47
ATOM     45  C   UNL     1      -5.173  -1.699 128.886  0.00  0.00    +0.000 C 
ATOM     46  O   UNL     1      -6.002  -0.624 128.385  0.00  0.00    +0.000 OA
ATOM     47  C   UNL     1      -6.810   0.029 129.359  0.00  0.00    +0.000 C 
ATOM     48  C   UNL     1      -7.712  -0.957 130.141  0.00  0.00    +0.000 C 
ATOM     49  C   UNL     1      -6.834  -2.089 130.704  0.00  0.00    +0.000 C 
ATOM     50  C   UNL     1      -6.046  -2.746 129.562  0.00  0.00    +0.000 C 
BRANCH  48  51
ATOM     51  N   UNL     1      -8.459  -0.344 131.272  0.00  0.00    +0.000 NA
ATOM     52  H   UNL     1      -9.264  -0.951 131.467  0.00  0.00    +0.000 HD
ATOM     53  H   UNL     1      -8.902   0.505 130.899  0.00  0.00    +0.000 HD
ENDBRANCH  48  51
BRANCH  50  54
ATOM     54  O   UNL     1      -5.259  -3.825 130.058  0.00  0.00    +0.000 OA
ATOM     55  H   UNL     1      -5.360  -4.556 129.399  0.00  0.00    +0.000 HD
ENDBRANCH  50  54
BRANCH  49  56
ATOM     56  O   UNL     1      -7.663  -3.039 131.379  0.00  0.00    +0.000 OA
ATOM     57  H   UNL     1      -8.455  -2.559 131.671  0.00  0.00    +0.000 HD
ENDBRANCH  49  56
BRANCH  45  58
ATOM     58  C   UNL     1      -4.040  -1.259 129.841  0.00  0.00    +0.000 C 
BRANCH  58  59
ATOM     59  N   UNL     1      -2.822  -2.039 129.983  0.00  0.00    +0.000 NA
ATOM     60  H   UNL     1      -2.506  -1.931 130.953  0.00  0.00    +0.000 HD
ATOM     61  H   UNL     1      -2.104  -1.622 129.393  0.00  0.00    +0.000 HD
ENDBRANCH  58  59
ENDBRANCH  45  58
ENDBRANCH  44  47
ENDBRANCH  34  44
ENDBRANCH  33  37
ENDBRANCH   1  33
TORSDOF 22
ENDMDL
MODEL 7
REMARK VINA RESULT:      -7.9      1.637      2.699
REMARK  Name = Framycetin
REMARK  22 active torsions:
REMARK  status: ('A' for Active; 'I' for Inactive)
REMARK    1  A    between atoms: N_1  and  C_2
REMARK    2  A    between atoms: C_2  and  C_3
REMARK    3  A    between atoms: C_5  and  O_6
REMARK    4  A    between atoms: O_6  and  C_7
REMARK    5  A    between atoms: C_8  and  C_9
REMARK    6  A    between atoms: C_9  and  O_10
REMARK    7  A    between atoms: C_12  and  O_13
REMARK    8  A    between atoms: O_13  and  C_14
REMARK    9  A    between atoms: C_15  and  O_16
REMARK   10  A    between atoms: C_17  and  N_18
REMARK   11  A    between atoms: C_20  and  N_21
REMARK   12  A    between atoms: C_22  and  O_23
REMARK   13  A    between atoms: O_23  and  C_24
REMARK   14  A    between atoms: C_26  and  C_27
REMARK   15  A    between atoms: C_27  and  N_28
REMARK   16  A    between atoms: C_29  and  O_30
REMARK   17  A    between atoms: C_31  and  O_32
REMARK   18  A    between atoms: C_33  and  N_34
REMARK   19  A    between atoms: C_35  and  O_36
REMARK   20  A    between atoms: C_37  and  N_38
REMARK   21  A    between atoms: C_39  and  O_40
REMARK   22  A    between atoms: C_41  and  O_42
REMARK                            x       y       z     vdW  Elec       q    Type
REMARK                         _______ _______ _______ _____ _____    ______ ____
ROOT
ATOM      1  C   UNL     1      -7.875   1.995 130.163  0.00  0.00    +0.000 C 
ATOM      2  C   UNL     1      -7.302   2.611 131.399  0.00  0.00    +0.000 C 
ATOM      3  C   UNL     1      -7.784   2.418 132.835  0.00  0.00    +0.000 C 
ATOM      4  C   UNL     1      -9.248   3.015 132.803  0.00  0.00    +0.000 C 
ATOM      5  C   UNL     1      -9.973   2.439 131.554  0.00  0.00    +0.000 C 
ATOM      6  C   UNL     1      -9.268   2.641 130.061  0.00  0.00    +0.000 C 
ENDROOT
BRANCH   3   7
ATOM      7  N   UNL     1      -7.294   1.194 133.391  0.00  0.00    +0.000 NA
ATOM      8  H   UNL     1      -7.896   0.403 133.247  0.00  0.00    +0.000 HD
ATOM      9  H   UNL     1      -7.022   1.336 134.351  0.00  0.00    +0.000 HD
ENDBRANCH   3   7
BRANCH   5  10
ATOM     10  N   UNL     1      -9.951   1.010 131.908  0.00  0.00    +0.000 NA
ATOM     11  H   UNL     1     -10.929   0.724 132.082  0.00  0.00    +0.000 HD
ATOM     12  H   UNL     1      -9.545   0.854 132.820  0.00  0.00    +0.000 HD
ENDBRANCH   5  10
BRANCH   2  13
ATOM     13  O   UNL     1      -7.632   3.958 131.540  0.00  0.00    +0.000 OA
ATOM     14  H   UNL     1      -8.535   3.881 131.664  0.00  0.00    +0.000 HD
ENDBRANCH   2  13
BRANCH   6  15
ATOM     15  O   UNL     1      -9.155   4.147 129.432  0.00  0.00    +0.000 OA
BRANCH  15  16
ATOM     16  C   UNL     1      -9.984   5.362 129.917  0.00  0.00    +0.000 C 
ATOM     17  O   UNL     1     -11.420   5.092 129.811  0.00  0.00    +0.000 OA
ATOM     18  C   UNL     1     -12.452   6.116 129.175  0.00  0.00    +0.000 C 
ATOM     19  C   UNL     1     -12.469   7.290 130.041  0.00  0.00    +0.000 C 
ATOM     20  C   UNL     1     -10.992   7.770 130.091  0.00  0.00    +0.000 C 
ATOM     21  C   UNL     1      -9.917   6.714 130.719  0.00  0.00    +0.000 C 
BRANCH  21  22
ATOM     22  N   UNL     1     -10.248   6.422 132.103  0.00  0.00    +0.000 NA
ATOM     23  H   UNL     1     -11.059   7.011 132.306  0.00  0.00    +0.000 HD
ATOM     24  H   UNL     1      -9.503   6.820 132.677  0.00  0.00    +0.000 HD
ENDBRANCH  21  22
BRANCH  20  25
ATOM     25  O   UNL     1     -10.504   8.263 128.827  0.00  0.00    +0.000 OA
ATOM     26  H   UNL     1      -9.872   7.622 128.447  0.00  0.00    +0.000 HD
ENDBRANCH  20  25
BRANCH  19  27
ATOM     27  O   UNL     1     -12.978   6.868 131.306  0.00  0.00    +0.000 OA
ATOM     28  H   UNL     1     -13.068   5.898 131.248  0.00  0.00    +0.000 HD
ENDBRANCH  19  27
BRANCH  18  29
ATOM     29  C   UNL     1     -12.652   6.775 127.547  0.00  0.00    +0.000 C 
BRANCH  29  30
ATOM     30  N   UNL     1     -12.080   6.885 126.191  0.00  0.00    +0.000 NA
ATOM     31  H   UNL     1     -11.133   6.554 126.219  0.00  0.00    +0.000 HD
ATOM     32  H   UNL     1     -12.036   7.902 125.981  0.00  0.00    +0.000 HD
ENDBRANCH  29  30
ENDBRANCH  18  29
ENDBRANCH  15  16
ENDBRANCH   6  15
BRANCH   1  33
ATOM     33  O   UNL     1      -7.629   0.611 130.449  0.00  0.00    +0.000 OA
BRANCH  33  37
ATOM     34  C   UNL     1      -6.897   0.955 127.371  0.00  0.00    +0.000 C 
ATOM     35  C   UNL     1      -5.399   0.680 127.632  0.00  0.00    +0.000 C 
ATOM     36  O   UNL     1      -5.426   0.340 129.073  0.00  0.00    +0.000 OA
ATOM     37  C   UNL     1      -6.803  -0.111 129.460  0.00  0.00    +0.000 C 
ATOM     38  C   UNL     1      -7.556  -0.171 128.170  0.00  0.00    +0.000 C 
BRANCH  38  39
ATOM     39  O   UNL     1      -7.337  -1.471 127.593  0.00  0.00    +0.000 OA
ATOM     40  H   UNL     1      -6.378  -1.615 127.521  0.00  0.00    +0.000 HD
ENDBRANCH  38  39
BRANCH  35  41
ATOM     41  C   UNL     1      -4.377   1.713 127.029  0.00  0.00    +0.000 C 
BRANCH  41  42
ATOM     42  O   UNL     1      -3.377   2.193 127.884  0.00  0.00    +0.000 OA
ATOM     43  H   UNL     1      -3.605   2.016 128.810  0.00  0.00    +0.000 HD
ENDBRANCH  41  42
ENDBRANCH  35  41
BRANCH  34  44
ATOM     44  O   UNL     1      -7.618   0.945 126.177  0.00  0.00    +0.000 OA
BRANCH  44  47
ATOM     45  C   UNL     1      -8.551   2.980 124.461  0.00  0.00    +0.000 C 
ATOM     46  O   UNL     1      -9.018   2.708 125.803  0.00  0.00    +0.000 OA
ATOM     47  C   UNL     1      -8.959   1.342 126.205  0.00  0.00    +0.000 C 
ATOM     48  C   UNL     1      -9.708   0.403 125.229  0.00  0.00    +0.000 C 
ATOM     49  C   UNL     1      -9.195   0.664 123.801  0.00  0.00    +0.000 C 
ATOM     50  C   UNL     1      -9.349   2.154 123.464  0.00  0.00    +0.000 C 
BRANCH  48  51
ATOM     51  N   UNL     1      -9.544  -1.046 125.521  0.00  0.00    +0.000 NA
ATOM     52  H   UNL     1      -9.134  -1.121 126.460  0.00  0.00    +0.000 HD
ATOM     53  H   UNL     1      -8.782  -1.378 124.916  0.00  0.00    +0.000 HD
ENDBRANCH  48  51
BRANCH  50  54
ATOM     54  O   UNL     1      -8.919   2.409 122.129  0.00  0.00    +0.000 OA
ATOM     55  H   UNL     1      -7.996   2.755 122.206  0.00  0.00    +0.000 HD
ENDBRANCH  50  54
BRANCH  49  56
ATOM     56  O   UNL     1      -9.921  -0.156 122.881  0.00  0.00    +0.000 OA
ATOM     57  H   UNL     1     -10.186   0.417 122.145  0.00  0.00    +0.000 HD
ENDBRANCH  49  56
BRANCH  45  58
ATOM     58  C   UNL     1      -7.037   2.759 124.239  0.00  0.00    +0.000 C 
BRANCH  58  59
ATOM     59  N   UNL     1      -6.047   3.647 124.825  0.00  0.00    +0.000 NA
ATOM     60  H   UNL     1      -5.366   3.866 124.091  0.00  0.00    +0.000 HD
ATOM     61  H   UNL     1      -5.544   3.134 125.547  0.00  0.00    +0.000 HD
ENDBRANCH  58  59
ENDBRANCH  45  58
ENDBRANCH  44  47
ENDBRANCH  34  44
ENDBRANCH  33  37
ENDBRANCH   1  33
TORSDOF 22
ENDMDL
MODEL 8
REMARK VINA RESULT:      -7.6      2.963      6.219
REMARK  Name = Framycetin
REMARK  22 active torsions:
REMARK  status: ('A' for Active; 'I' for Inactive)
REMARK    1  A    between atoms: N_1  and  C_2
REMARK    2  A    between atoms: C_2  and  C_3
REMARK    3  A    between atoms: C_5  and  O_6
REMARK    4  A    between atoms: O_6  and  C_7
REMARK    5  A    between atoms: C_8  and  C_9
REMARK    6  A    between atoms: C_9  and  O_10
REMARK    7  A    between atoms: C_12  and  O_13
REMARK    8  A    between atoms: O_13  and  C_14
REMARK    9  A    between atoms: C_15  and  O_16
REMARK   10  A    between atoms: C_17  and  N_18
REMARK   11  A    between atoms: C_20  and  N_21
REMARK   12  A    between atoms: C_22  and  O_23
REMARK   13  A    between atoms: O_23  and  C_24
REMARK   14  A    between atoms: C_26  and  C_27
REMARK   15  A    between atoms: C_27  and  N_28
REMARK   16  A    between atoms: C_29  and  O_30
REMARK   17  A    between atoms: C_31  and  O_32
REMARK   18  A    between atoms: C_33  and  N_34
REMARK   19  A    between atoms: C_35  and  O_36
REMARK   20  A    between atoms: C_37  and  N_38
REMARK   21  A    between atoms: C_39  and  O_40
REMARK   22  A    between atoms: C_41  and  O_42
REMARK                            x       y       z     vdW  Elec       q    Type
REMARK                         _______ _______ _______ _____ _____    ______ ____
ROOT
ATOM      1  C   UNL     1      -8.804   4.039 130.493  0.00  0.00    +0.000 C 
ATOM      2  C   UNL     1      -8.385   5.233 131.289  0.00  0.00    +0.000 C 
ATOM      3  C   UNL     1      -9.217   6.477 131.594  0.00  0.00    +0.000 C 
ATOM      4  C   UNL     1      -9.475   7.095 130.162  0.00  0.00    +0.000 C 
ATOM      5  C   UNL     1      -9.935   5.946 129.221  0.00  0.00    +0.000 C 
ATOM      6  C   UNL     1      -8.965   4.602 129.070  0.00  0.00    +0.000 C 
ENDROOT
BRANCH   3   7
ATOM      7  N   UNL     1     -10.119   6.248 132.681  0.00  0.00    +0.000 NA
ATOM      8  H   UNL     1     -10.064   6.930 133.417  0.00  0.00    +0.000 HD
ATOM      9  H   UNL     1     -10.042   5.294 132.998  0.00  0.00    +0.000 HD
ENDBRANCH   3   7
BRANCH   5  10
ATOM     10  N   UNL     1     -11.181   5.565 129.907  0.00  0.00    +0.000 NA
ATOM     11  H   UNL     1     -11.763   5.055 129.222  0.00  0.00    +0.000 HD
ATOM     12  H   UNL     1     -11.769   6.365 130.093  0.00  0.00    +0.000 HD
ENDBRANCH   5  10
BRANCH   2  13
ATOM     13  O   UNL     1      -7.511   6.070 130.597  0.00  0.00    +0.000 OA
ATOM     14  H   UNL     1      -7.528   6.799 131.149  0.00  0.00    +0.000 HD
ENDBRANCH   2  13
BRANCH   6  15
ATOM     15  O   UNL     1      -7.506   4.753 128.346  0.00  0.00    +0.000 OA
BRANCH  15  16
ATOM     16  C   UNL     1      -7.209   4.344 126.883  0.00  0.00    +0.000 C 
ATOM     17  O   UNL     1      -8.442   3.969 126.185  0.00  0.00    +0.000 OA
ATOM     18  C   UNL     1      -8.575   2.657 125.301  0.00  0.00    +0.000 C 
ATOM     19  C   UNL     1      -7.670   2.817 124.168  0.00  0.00    +0.000 C 
ATOM     20  C   UNL     1      -6.273   3.058 124.805  0.00  0.00    +0.000 C 
ATOM     21  C   UNL     1      -6.131   4.391 125.738  0.00  0.00    +0.000 C 
BRANCH  21  22
ATOM     22  N   UNL     1      -6.378   5.585 124.949  0.00  0.00    +0.000 NA
ATOM     23  H   UNL     1      -7.390   5.721 124.993  0.00  0.00    +0.000 HD
ATOM     24  H   UNL     1      -6.202   5.339 123.974  0.00  0.00    +0.000 HD
ENDBRANCH  21  22
BRANCH  20  25
ATOM     25  O   UNL     1      -5.760   1.914 125.516  0.00  0.00    +0.000 OA
ATOM     26  H   UNL     1      -5.780   2.088 126.477  0.00  0.00    +0.000 HD
ENDBRANCH  20  25
BRANCH  19  27
ATOM     27  O   UNL     1      -8.150   3.923 123.404  0.00  0.00    +0.000 OA
ATOM     28  H   UNL     1      -8.314   4.641 124.046  0.00  0.00    +0.000 HD
ENDBRANCH  19  27
BRANCH  18  29
ATOM     29  C   UNL     1      -8.495   0.933 125.680  0.00  0.00    +0.000 C 
BRANCH  29  30
ATOM     30  N   UNL     1      -7.792  -0.126 126.430  0.00  0.00    +0.000 NA
ATOM     31  H   UNL     1      -7.842   0.094 127.409  0.00  0.00    +0.000 HD
ATOM     32  H   UNL     1      -6.792  -0.054 126.157  0.00  0.00    +0.000 HD
ENDBRANCH  29  30
ENDBRANCH  18  29
ENDBRANCH  15  16
ENDBRANCH   6  15
BRANCH   1  33
ATOM     33  O   UNL     1      -9.879   3.567 131.318  0.00  0.00    +0.000 OA
BRANCH  33  37
ATOM     34  C   UNL     1      -7.385   1.641 131.765  0.00  0.00    +0.000 C 
ATOM     35  C   UNL     1      -7.519   1.721 133.303  0.00  0.00    +0.000 C 
ATOM     36  O   UNL     1      -8.762   2.517 133.432  0.00  0.00    +0.000 OA
ATOM     37  C   UNL     1      -9.568   2.403 132.172  0.00  0.00    +0.000 C 
ATOM     38  C   UNL     1      -8.836   1.394 131.347  0.00  0.00    +0.000 C 
BRANCH  38  39
ATOM     39  O   UNL     1      -9.314   0.089 131.722  0.00  0.00    +0.000 OA
ATOM     40  H   UNL     1      -8.985  -0.111 132.616  0.00  0.00    +0.000 HD
ENDBRANCH  38  39
BRANCH  35  41
ATOM     41  C   UNL     1      -6.211   2.065 134.107  0.00  0.00    +0.000 C 
BRANCH  41  42
ATOM     42  O   UNL     1      -5.264   1.044 134.252  0.00  0.00    +0.000 OA
ATOM     43  H   UNL     1      -4.451   1.386 134.655  0.00  0.00    +0.000 HD
ENDBRANCH  41  42
ENDBRANCH  35  41
BRANCH  34  44
ATOM     44  O   UNL     1      -6.680   0.736 130.971  0.00  0.00    +0.000 OA
BRANCH  44  47
ATOM     45  C   UNL     1      -4.871  -1.426 131.071  0.00  0.00    +0.000 C 
ATOM     46  O   UNL     1      -4.611  -0.070 131.502  0.00  0.00    +0.000 OA
ATOM     47  C   UNL     1      -5.309   0.943 130.783  0.00  0.00    +0.000 C 
ATOM     48  C   UNL     1      -5.066   0.863 129.257  0.00  0.00    +0.000 C 
ATOM     49  C   UNL     1      -5.369  -0.570 128.783  0.00  0.00    +0.000 C 
ATOM     50  C   UNL     1      -4.531  -1.568 129.595  0.00  0.00    +0.000 C 
BRANCH  48  51
ATOM     51  N   UNL     1      -5.893   1.801 128.452  0.00  0.00    +0.000 NA
ATOM     52  H   UNL     1      -6.292   1.262 127.674  0.00  0.00    +0.000 HD
ATOM     53  H   UNL     1      -5.236   2.430 127.975  0.00  0.00    +0.000 HD
ENDBRANCH  48  51
BRANCH  50  54
ATOM     54  O   UNL     1      -4.766  -2.898 129.142  0.00  0.00    +0.000 OA
ATOM     55  H   UNL     1      -4.253  -2.990 128.301  0.00  0.00    +0.000 HD
ENDBRANCH  50  54
BRANCH  49  56
ATOM     56  O   UNL     1      -5.092  -0.673 127.384  0.00  0.00    +0.000 OA
ATOM     57  H   UNL     1      -5.921  -0.937 126.955  0.00  0.00    +0.000 HD
ENDBRANCH  49  56
BRANCH  45  58
ATOM     58  C   UNL     1      -6.308  -1.931 131.333  0.00  0.00    +0.000 C 
BRANCH  58  59
ATOM     59  N   UNL     1      -6.932  -1.798 132.639  0.00  0.00    +0.000 NA
ATOM     60  H   UNL     1      -7.297  -2.722 132.895  0.00  0.00    +0.000 HD
ATOM     61  H   UNL     1      -7.736  -1.180 132.549  0.00  0.00    +0.000 HD
ENDBRANCH  58  59
ENDBRANCH  45  58
ENDBRANCH  44  47
ENDBRANCH  34  44
ENDBRANCH  33  37
ENDBRANCH   1  33
TORSDOF 22
ENDMDL
MODEL 9
REMARK VINA RESULT:      -7.6      3.461      4.821
REMARK  Name = Framycetin
REMARK  22 active torsions:
REMARK  status: ('A' for Active; 'I' for Inactive)
REMARK    1  A    between atoms: N_1  and  C_2
REMARK    2  A    between atoms: C_2  and  C_3
REMARK    3  A    between atoms: C_5  and  O_6
REMARK    4  A    between atoms: O_6  and  C_7
REMARK    5  A    between atoms: C_8  and  C_9
REMARK    6  A    between atoms: C_9  and  O_10
REMARK    7  A    between atoms: C_12  and  O_13
REMARK    8  A    between atoms: O_13  and  C_14
REMARK    9  A    between atoms: C_15  and  O_16
REMARK   10  A    between atoms: C_17  and  N_18
REMARK   11  A    between atoms: C_20  and  N_21
REMARK   12  A    between atoms: C_22  and  O_23
REMARK   13  A    between atoms: O_23  and  C_24
REMARK   14  A    between atoms: C_26  and  C_27
REMARK   15  A    between atoms: C_27  and  N_28
REMARK   16  A    between atoms: C_29  and  O_30
REMARK   17  A    between atoms: C_31  and  O_32
REMARK   18  A    between atoms: C_33  and  N_34
REMARK   19  A    between atoms: C_35  and  O_36
REMARK   20  A    between atoms: C_37  and  N_38
REMARK   21  A    between atoms: C_39  and  O_40
REMARK   22  A    between atoms: C_41  and  O_42
REMARK                            x       y       z     vdW  Elec       q    Type
REMARK                         _______ _______ _______ _____ _____    ______ ____
ROOT
ATOM      1  C   UNL     1      -5.067   5.281 129.762  0.00  0.00    +0.000 C 
ATOM      2  C   UNL     1      -4.324   6.567 129.589  0.00  0.00    +0.000 C 
ATOM      3  C   UNL     1      -3.148   7.072 130.421  0.00  0.00    +0.000 C 
ATOM      4  C   UNL     1      -3.773   7.230 131.865  0.00  0.00    +0.000 C 
ATOM      5  C   UNL     1      -4.575   5.937 132.182  0.00  0.00    +0.000 C 
ATOM      6  C   UNL     1      -5.764   5.456 131.122  0.00  0.00    +0.000 C 
ENDROOT
BRANCH   3   7
ATOM      7  N   UNL     1      -1.917   6.472 130.004  0.00  0.00    +0.000 NA
ATOM      8  H   UNL     1      -1.219   7.127 129.698  0.00  0.00    +0.000 HD
ATOM      9  H   UNL     1      -2.101   5.730 129.347  0.00  0.00    +0.000 HD
ENDBRANCH   3   7
BRANCH   5  10
ATOM     10  N   UNL     1      -3.473   4.961 132.145  0.00  0.00    +0.000 NA
ATOM     11  H   UNL     1      -2.614   5.482 131.901  0.00  0.00    +0.000 HD
ATOM     12  H   UNL     1      -3.547   4.340 131.352  0.00  0.00    +0.000 HD
ENDBRANCH   5  10
BRANCH   2  13
ATOM     13  O   UNL     1      -5.037   7.673 130.048  0.00  0.00    +0.000 OA
ATOM     14  H   UNL     1      -4.910   7.574 130.948  0.00  0.00    +0.000 HD
ENDBRANCH   2  13
BRANCH   6  15
ATOM     15  O   UNL     1      -7.107   6.377 130.962  0.00  0.00    +0.000 OA
BRANCH  15  16
ATOM     16  C   UNL     1      -8.386   5.934 130.212  0.00  0.00    +0.000 C 
ATOM     17  O   UNL     1      -9.144   7.095 129.738  0.00  0.00    +0.000 OA
ATOM     18  C   UNL     1     -10.712   7.248 129.933  0.00  0.00    +0.000 C 
ATOM     19  C   UNL     1     -11.340   6.187 129.153  0.00  0.00    +0.000 C 
ATOM     20  C   UNL     1     -10.721   4.871 129.699  0.00  0.00    +0.000 C 
ATOM     21  C   UNL     1      -9.106   4.713 129.527  0.00  0.00    +0.000 C 
BRANCH  21  22
ATOM     22  N   UNL     1      -8.747   4.723 128.119  0.00  0.00    +0.000 NA
ATOM     23  H   UNL     1      -9.503   5.237 127.662  0.00  0.00    +0.000 HD
ATOM     24  H   UNL     1      -8.854   3.767 127.778  0.00  0.00    +0.000 HD
ENDBRANCH  21  22
BRANCH  20  25
ATOM     25  O   UNL     1     -11.093   4.582 131.062  0.00  0.00    +0.000 OA
ATOM     26  H   UNL     1     -10.956   5.377 131.615  0.00  0.00    +0.000 HD
ENDBRANCH  20  25
BRANCH  19  27
ATOM     27  O   UNL     1     -11.033   6.440 127.782  0.00  0.00    +0.000 OA
ATOM     28  H   UNL     1     -11.759   6.037 127.267  0.00  0.00    +0.000 HD
ENDBRANCH  19  27
BRANCH  18  29
ATOM     29  C   UNL     1     -11.740   7.404 131.362  0.00  0.00    +0.000 C 
BRANCH  29  30
ATOM     30  N   UNL     1     -13.120   7.531 131.871  0.00  0.00    +0.000 NA
ATOM     31  H   UNL     1     -13.720   6.957 131.306  0.00  0.00    +0.000 HD
ATOM     32  H   UNL     1     -13.399   8.518 131.699  0.00  0.00    +0.000 HD
ENDBRANCH  29  30
ENDBRANCH  18  29
ENDBRANCH  15  16
ENDBRANCH   6  15
BRANCH   1  33
ATOM     33  O   UNL     1      -4.004   4.354 129.495  0.00  0.00    +0.000 OA
BRANCH  33  37
ATOM     34  C   UNL     1      -5.645   3.307 126.977  0.00  0.00    +0.000 C 
ATOM     35  C   UNL     1      -5.073   4.415 126.064  0.00  0.00    +0.000 C 
ATOM     36  O   UNL     1      -4.104   5.058 126.982  0.00  0.00    +0.000 OA
ATOM     37  C   UNL     1      -3.723   4.096 128.068  0.00  0.00    +0.000 C 
ATOM     38  C   UNL     1      -4.381   2.811 127.681  0.00  0.00    +0.000 C 
BRANCH  38  39
ATOM     39  O   UNL     1      -3.487   2.107 126.800  0.00  0.00    +0.000 OA
ATOM     40  H   UNL     1      -3.950   1.323 126.458  0.00  0.00    +0.000 HD
ENDBRANCH  38  39
BRANCH  35  41
ATOM     41  C   UNL     1      -6.113   5.244 125.222  0.00  0.00    +0.000 C 
BRANCH  41  42
ATOM     42  O   UNL     1      -7.344   5.523 125.828  0.00  0.00    +0.000 OA
ATOM     43  H   UNL     1      -7.911   4.737 125.829  0.00  0.00    +0.000 HD
ENDBRANCH  41  42
ENDBRANCH  35  41
BRANCH  34  44
ATOM     44  O   UNL     1      -6.297   2.119 126.645  0.00  0.00    +0.000 OA
BRANCH  44  47
ATOM     45  C   UNL     1      -8.968   1.226 126.490  0.00  0.00    +0.000 C 
ATOM     46  O   UNL     1      -8.259   1.604 127.692  0.00  0.00    +0.000 OA
ATOM     47  C   UNL     1      -6.856   1.357 127.677  0.00  0.00    +0.000 C 
ATOM     48  C   UNL     1      -6.516  -0.119 127.356  0.00  0.00    +0.000 C 
ATOM     49  C   UNL     1      -7.243  -0.522 126.060  0.00  0.00    +0.000 C 
ATOM     50  C   UNL     1      -8.747  -0.253 126.209  0.00  0.00    +0.000 C 
BRANCH  48  51
ATOM     51  N   UNL     1      -5.065  -0.391 127.176  0.00  0.00    +0.000 NA
ATOM     52  H   UNL     1      -4.851  -1.249 127.699  0.00  0.00    +0.000 HD
ATOM     53  H   UNL     1      -4.567   0.329 127.713  0.00  0.00    +0.000 HD
ENDBRANCH  48  51
BRANCH  50  54
ATOM     54  O   UNL     1      -9.443  -0.660 125.034  0.00  0.00    +0.000 OA
ATOM     55  H   UNL     1      -8.795  -1.191 124.509  0.00  0.00    +0.000 HD
ENDBRANCH  50  54
BRANCH  49  56
ATOM     56  O   UNL     1      -6.985  -1.901 125.783  0.00  0.00    +0.000 OA
ATOM     57  H   UNL     1      -6.107  -1.943 125.372  0.00  0.00    +0.000 HD
ENDBRANCH  49  56
BRANCH  45  58
ATOM     58  C   UNL     1      -8.619   2.060 125.236  0.00  0.00    +0.000 C 
BRANCH  58  59
ATOM     59  N   UNL     1      -9.065   3.436 125.092  0.00  0.00    +0.000 NA
ATOM     60  H   UNL     1      -9.754   3.452 124.333  0.00  0.00    +0.000 HD
ATOM     61  H   UNL     1      -8.275   3.998 124.783  0.00  0.00    +0.000 HD
ENDBRANCH  58  59
ENDBRANCH  45  58
ENDBRANCH  44  47
ENDBRANCH  34  44
ENDBRANCH  33  37
ENDBRANCH   1  33
TORSDOF 22
ENDMDL
