MODEL 1
REMARK VINA RESULT:      -7.4      0.000      0.000
REMARK  Name = Frovatriptan
REMARK  3 active torsions:
REMARK  status: ('A' for Active; 'I' for Inactive)
REMARK    1  A    between atoms: C_1  and  N_2
REMARK    2  A    between atoms: N_2  and  C_3
REMARK    3  A    between atoms: C_14  and  C_16
REMARK                            x       y       z     vdW  Elec       q    Type
REMARK                         _______ _______ _______ _____ _____    ______ ____
ROOT
ATOM      1  C   UNL     1      -6.105   6.375 132.228  0.00  0.00    +0.000 C 
ATOM      2  C   UNL     1      -6.318   5.091 133.078  0.00  0.00    +0.000 C 
ATOM      3  C   UNL     1      -7.751   5.002 133.655  0.00  0.00    +0.000 C 
ATOM      4  C   UNL     1      -8.746   5.603 132.725  0.00  0.00    +0.000 A 
ATOM      5  C   UNL     1      -8.483   6.258 131.540  0.00  0.00    +0.000 A 
ATOM      6  C   UNL     1      -7.095   6.398 131.029  0.00  0.00    +0.000 C 
ATOM      7  C   UNL     1      -9.715   6.745 131.022  0.00  0.00    +0.000 A 
ATOM      8  C   UNL     1     -10.705   6.344 131.921  0.00  0.00    +0.000 A 
ATOM      9  N   UNL     1     -10.091   5.658 132.948  0.00  0.00    +0.000 N 
ATOM     10  C   UNL     1     -12.056   6.633 131.729  0.00  0.00    +0.000 A 
ATOM     11  C   UNL     1     -12.410   7.357 130.587  0.00  0.00    +0.000 A 
ATOM     12  C   UNL     1     -11.451   7.797 129.669  0.00  0.00    +0.000 A 
ATOM     13  C   UNL     1     -10.092   7.492 129.884  0.00  0.00    +0.000 A 
ATOM     14  H   UNL     1     -10.570   5.271 133.748  0.00  0.00    +0.000 HD
ENDROOT
BRANCH  12  15
ATOM     15  C   UNL     1     -11.821   8.585 128.454  0.00  0.00    +0.000 C 
ATOM     16  N   UNL     1     -12.824   9.512 128.556  0.00  0.00    +0.000 N 
ATOM     17  O   UNL     1     -11.251   8.422 127.378  0.00  0.00    +0.000 OA
ATOM     18  H   UNL     1     -13.346   9.716 129.392  0.00  0.00    +0.000 HD
ATOM     19  H   UNL     1     -13.058  10.034 127.723  0.00  0.00    +0.000 HD
ENDBRANCH  12  15
BRANCH   1  21
ATOM     20  C   UNL     1      -4.688   7.347 130.554  0.00  0.00    +0.000 C 
ATOM     21  N   UNL     1      -4.717   6.508 131.753  0.00  0.00    +0.000 NA
ATOM     22  H   UNL     1      -4.140   6.944 132.472  0.00  0.00    +0.000 HD
ENDBRANCH   1  21
TORSDOF 2
ENDMDL
MODEL 2
REMARK VINA RESULT:      -7.3      2.338      5.776
REMARK  Name = Frovatriptan
REMARK  3 active torsions:
REMARK  status: ('A' for Active; 'I' for Inactive)
REMARK    1  A    between atoms: C_1  and  N_2
REMARK    2  A    between atoms: N_2  and  C_3
REMARK    3  A    between atoms: C_14  and  C_16
REMARK                            x       y       z     vdW  Elec       q    Type
REMARK                         _______ _______ _______ _____ _____    ______ ____
ROOT
ATOM      1  C   UNL     1     -11.766   7.220 128.774  0.00  0.00    +0.000 C 
ATOM      2  C   UNL     1     -12.897   7.477 129.809  0.00  0.00    +0.000 C 
ATOM      3  C   UNL     1     -12.656   6.723 131.138  0.00  0.00    +0.000 C 
ATOM      4  C   UNL     1     -11.202   6.621 131.445  0.00  0.00    +0.000 A 
ATOM      5  C   UNL     1     -10.156   7.032 130.647  0.00  0.00    +0.000 A 
ATOM      6  C   UNL     1     -10.399   7.694 129.339  0.00  0.00    +0.000 C 
ATOM      7  C   UNL     1      -8.941   6.665 131.289  0.00  0.00    +0.000 A 
ATOM      8  C   UNL     1      -9.301   6.048 132.489  0.00  0.00    +0.000 A 
ATOM      9  N   UNL     1     -10.678   6.028 132.556  0.00  0.00    +0.000 N 
ATOM     10  C   UNL     1      -8.359   5.566 133.398  0.00  0.00    +0.000 A 
ATOM     11  C   UNL     1      -7.007   5.714 133.074  0.00  0.00    +0.000 A 
ATOM     12  C   UNL     1      -6.600   6.308 131.875  0.00  0.00    +0.000 A 
ATOM     13  C   UNL     1      -7.570   6.788 130.972  0.00  0.00    +0.000 A 
ATOM     14  H   UNL     1     -11.210   5.621 133.312  0.00  0.00    +0.000 HD
ENDROOT
BRANCH  12  15
ATOM     15  C   UNL     1      -5.156   6.455 131.515  0.00  0.00    +0.000 C 
ATOM     16  N   UNL     1      -4.801   7.433 130.624  0.00  0.00    +0.000 N 
ATOM     17  O   UNL     1      -4.292   5.727 131.996  0.00  0.00    +0.000 OA
ATOM     18  H   UNL     1      -5.435   8.076 130.180  0.00  0.00    +0.000 HD
ATOM     19  H   UNL     1      -3.819   7.515 130.395  0.00  0.00    +0.000 HD
ENDBRANCH  12  15
BRANCH   1  21
ATOM     20  C   UNL     1     -10.900   7.655 126.579  0.00  0.00    +0.000 C 
ATOM     21  N   UNL     1     -12.039   7.862 127.475  0.00  0.00    +0.000 NA
ATOM     22  H   UNL     1     -12.870   7.454 127.049  0.00  0.00    +0.000 HD
ENDBRANCH   1  21
TORSDOF 2
ENDMDL
MODEL 3
REMARK VINA RESULT:      -6.4      9.278      9.940
REMARK  Name = Frovatriptan
REMARK  3 active torsions:
REMARK  status: ('A' for Active; 'I' for Inactive)
REMARK    1  A    between atoms: C_1  and  N_2
REMARK    2  A    between atoms: N_2  and  C_3
REMARK    3  A    between atoms: C_14  and  C_16
REMARK                            x       y       z     vdW  Elec       q    Type
REMARK                         _______ _______ _______ _____ _____    ______ ____
ROOT
ATOM      1  C   UNL     1      -9.043  -3.008 126.344  0.00  0.00    +0.000 C 
ATOM      2  C   UNL     1      -8.701  -3.832 125.072  0.00  0.00    +0.000 C 
ATOM      3  C   UNL     1      -9.046  -3.070 123.771  0.00  0.00    +0.000 C 
ATOM      4  C   UNL     1      -8.848  -1.603 123.936  0.00  0.00    +0.000 A 
ATOM      5  C   UNL     1      -8.504  -0.939 125.094  0.00  0.00    +0.000 A 
ATOM      6  C   UNL     1      -8.241  -1.677 126.357  0.00  0.00    +0.000 C 
ATOM      7  C   UNL     1      -8.510   0.457 124.821  0.00  0.00    +0.000 A 
ATOM      8  C   UNL     1      -8.846   0.592 123.472  0.00  0.00    +0.000 A 
ATOM      9  N   UNL     1      -9.053  -0.671 122.960  0.00  0.00    +0.000 N 
ATOM     10  C   UNL     1      -8.935   1.833 122.840  0.00  0.00    +0.000 A 
ATOM     11  C   UNL     1      -8.675   2.973 123.606  0.00  0.00    +0.000 A 
ATOM     12  C   UNL     1      -8.353   2.888 124.965  0.00  0.00    +0.000 A 
ATOM     13  C   UNL     1      -8.270   1.623 125.581  0.00  0.00    +0.000 A 
ATOM     14  H   UNL     1      -9.328  -0.868 122.008  0.00  0.00    +0.000 HD
ENDROOT
BRANCH  12  15
ATOM     15  C   UNL     1      -8.090   4.104 125.793  0.00  0.00    +0.000 C 
ATOM     16  N   UNL     1      -7.001   4.106 126.623  0.00  0.00    +0.000 N 
ATOM     17  O   UNL     1      -8.822   5.089 125.746  0.00  0.00    +0.000 OA
ATOM     18  H   UNL     1      -6.346   3.350 126.728  0.00  0.00    +0.000 HD
ATOM     19  H   UNL     1      -6.841   4.939 127.175  0.00  0.00    +0.000 HD
ENDBRANCH  12  15
BRANCH   1  21
ATOM     20  C   UNL     1      -8.074  -2.928 128.538  0.00  0.00    +0.000 C 
ATOM     21  N   UNL     1      -8.801  -3.767 127.585  0.00  0.00    +0.000 NA
ATOM     22  H   UNL     1      -9.687  -4.047 128.003  0.00  0.00    +0.000 HD
ENDBRANCH   1  21
TORSDOF 2
ENDMDL
MODEL 4
REMARK VINA RESULT:      -6.4     10.686     11.824
REMARK  Name = Frovatriptan
REMARK  3 active torsions:
REMARK  status: ('A' for Active; 'I' for Inactive)
REMARK    1  A    between atoms: C_1  and  N_2
REMARK    2  A    between atoms: N_2  and  C_3
REMARK    3  A    between atoms: C_14  and  C_16
REMARK                            x       y       z     vdW  Elec       q    Type
REMARK                         _______ _______ _______ _____ _____    ______ ____
ROOT
ATOM      1  C   UNL     1      -7.268  -2.640 124.515  0.00  0.00    +0.000 C 
ATOM      2  C   UNL     1      -8.781  -2.314 124.662  0.00  0.00    +0.000 C 
ATOM      3  C   UNL     1      -9.374  -2.867 125.980  0.00  0.00    +0.000 C 
ATOM      4  C   UNL     1      -8.368  -2.839 127.077  0.00  0.00    +0.000 A 
ATOM      5  C   UNL     1      -7.042  -2.477 126.977  0.00  0.00    +0.000 A 
ATOM      6  C   UNL     1      -6.465  -2.012 125.688  0.00  0.00    +0.000 C 
ATOM      7  C   UNL     1      -6.431  -2.680 128.245  0.00  0.00    +0.000 A 
ATOM      8  C   UNL     1      -7.435  -3.151 129.094  0.00  0.00    +0.000 A 
ATOM      9  N   UNL     1      -8.598  -3.244 128.360  0.00  0.00    +0.000 N 
ATOM     10  C   UNL     1      -7.205  -3.450 130.437  0.00  0.00    +0.000 A 
ATOM     11  C   UNL     1      -5.911  -3.266 130.932  0.00  0.00    +0.000 A 
ATOM     12  C   UNL     1      -4.869  -2.815 130.115  0.00  0.00    +0.000 A 
ATOM     13  C   UNL     1      -5.126  -2.520 128.761  0.00  0.00    +0.000 A 
ATOM     14  H   UNL     1      -9.481  -3.578 128.721  0.00  0.00    +0.000 HD
ENDROOT
BRANCH  12  15
ATOM     15  C   UNL     1      -3.479  -2.631 130.634  0.00  0.00    +0.000 C 
ATOM     16  N   UNL     1      -2.516  -2.174 129.775  0.00  0.00    +0.000 N 
ATOM     17  O   UNL     1      -3.187  -2.878 131.801  0.00  0.00    +0.000 OA
ATOM     18  H   UNL     1      -2.660  -1.945 128.806  0.00  0.00    +0.000 HD
ATOM     19  H   UNL     1      -1.583  -2.057 130.146  0.00  0.00    +0.000 HD
ENDBRANCH  12  15
BRANCH   1  21
ATOM     20  C   UNL     1      -6.799  -0.736 123.133  0.00  0.00    +0.000 C 
ATOM     21  N   UNL     1      -6.723  -2.195 123.220  0.00  0.00    +0.000 NA
ATOM     22  H   UNL     1      -5.748  -2.478 123.134  0.00  0.00    +0.000 HD
ENDBRANCH   1  21
TORSDOF 2
ENDMDL
MODEL 5
REMARK VINA RESULT:      -6.4      8.141      9.978
REMARK  Name = Frovatriptan
REMARK  3 active torsions:
REMARK  status: ('A' for Active; 'I' for Inactive)
REMARK    1  A    between atoms: C_1  and  N_2
REMARK    2  A    between atoms: N_2  and  C_3
REMARK    3  A    between atoms: C_14  and  C_16
REMARK                            x       y       z     vdW  Elec       q    Type
REMARK                         _______ _______ _______ _____ _____    ______ ____
ROOT
ATOM      1  C   UNL     1      -6.812   3.356 121.377  0.00  0.00    +0.000 C 
ATOM      2  C   UNL     1      -8.332   3.389 121.699  0.00  0.00    +0.000 C 
ATOM      3  C   UNL     1      -8.666   2.659 123.022  0.00  0.00    +0.000 C 
ATOM      4  C   UNL     1      -7.564   2.805 124.013  0.00  0.00    +0.000 A 
ATOM      5  C   UNL     1      -6.342   3.410 123.810  0.00  0.00    +0.000 A 
ATOM      6  C   UNL     1      -6.005   4.049 122.511  0.00  0.00    +0.000 C 
ATOM      7  C   UNL     1      -5.567   3.246 124.991  0.00  0.00    +0.000 A 
ATOM      8  C   UNL     1      -6.371   2.549 125.895  0.00  0.00    +0.000 A 
ATOM      9  N   UNL     1      -7.574   2.288 125.275  0.00  0.00    +0.000 N 
ATOM     10  C   UNL     1      -5.943   2.218 127.181  0.00  0.00    +0.000 A 
ATOM     11  C   UNL     1      -4.654   2.607 127.557  0.00  0.00    +0.000 A 
ATOM     12  C   UNL     1      -3.806   3.290 126.679  0.00  0.00    +0.000 A 
ATOM     13  C   UNL     1      -4.261   3.613 125.385  0.00  0.00    +0.000 A 
ATOM     14  H   UNL     1      -8.338   1.777 125.695  0.00  0.00    +0.000 HD
ENDROOT
BRANCH  12  15
ATOM     15  C   UNL     1      -2.421   3.694 127.070  0.00  0.00    +0.000 C 
ATOM     16  N   UNL     1      -2.245   4.895 127.705  0.00  0.00    +0.000 N 
ATOM     17  O   UNL     1      -1.449   2.981 126.837  0.00  0.00    +0.000 OA
ATOM     18  H   UNL     1      -2.978   5.544 127.938  0.00  0.00    +0.000 HD
ATOM     19  H   UNL     1      -1.300   5.149 127.960  0.00  0.00    +0.000 HD
ENDBRANCH  12  15
BRANCH   1  21
ATOM     20  C   UNL     1      -5.352   4.865 120.216  0.00  0.00    +0.000 C 
ATOM     21  N   UNL     1      -6.502   3.970 120.074  0.00  0.00    +0.000 NA
ATOM     22  H   UNL     1      -6.273   3.248 119.391  0.00  0.00    +0.000 HD
ENDBRANCH   1  21
TORSDOF 2
ENDMDL
MODEL 6
REMARK VINA RESULT:      -6.4      1.521      2.032
REMARK  Name = Frovatriptan
REMARK  3 active torsions:
REMARK  status: ('A' for Active; 'I' for Inactive)
REMARK    1  A    between atoms: C_1  and  N_2
REMARK    2  A    between atoms: N_2  and  C_3
REMARK    3  A    between atoms: C_14  and  C_16
REMARK                            x       y       z     vdW  Elec       q    Type
REMARK                         _______ _______ _______ _____ _____    ______ ____
ROOT
ATOM      1  C   UNL     1      -4.283   7.015 132.157  0.00  0.00    +0.000 C 
ATOM      2  C   UNL     1      -4.107   5.751 133.043  0.00  0.00    +0.000 C 
ATOM      3  C   UNL     1      -5.403   5.383 133.803  0.00  0.00    +0.000 C 
ATOM      4  C   UNL     1      -6.612   5.722 133.002  0.00  0.00    +0.000 A 
ATOM      5  C   UNL     1      -6.646   6.370 131.786  0.00  0.00    +0.000 A 
ATOM      6  C   UNL     1      -5.395   6.780 131.097  0.00  0.00    +0.000 C 
ATOM      7  C   UNL     1      -8.008   6.564 131.426  0.00  0.00    +0.000 A 
ATOM      8  C   UNL     1      -8.770   5.998 132.451  0.00  0.00    +0.000 A 
ATOM      9  N   UNL     1      -7.899   5.500 133.397  0.00  0.00    +0.000 N 
ATOM     10  C   UNL     1     -10.164   5.986 132.432  0.00  0.00    +0.000 A 
ATOM     11  C   UNL     1     -10.805   6.573 131.337  0.00  0.00    +0.000 A 
ATOM     12  C   UNL     1     -10.084   7.169 130.297  0.00  0.00    +0.000 A 
ATOM     13  C   UNL     1      -8.676   7.168 130.337  0.00  0.00    +0.000 A 
ATOM     14  H   UNL     1      -8.181   5.052 134.258  0.00  0.00    +0.000 HD
ENDROOT
BRANCH  12  15
ATOM     15  C   UNL     1     -10.764   7.812 129.130  0.00  0.00    +0.000 C 
ATOM     16  N   UNL     1     -12.123   7.695 129.020  0.00  0.00    +0.000 N 
ATOM     17  O   UNL     1     -10.135   8.436 128.279  0.00  0.00    +0.000 OA
ATOM     18  H   UNL     1     -12.721   7.207 129.666  0.00  0.00    +0.000 HD
ATOM     19  H   UNL     1     -12.563   8.138 128.224  0.00  0.00    +0.000 HD
ENDBRANCH  12  15
BRANCH   1  21
ATOM     20  C   UNL     1      -2.086   7.911 132.514  0.00  0.00    +0.000 C 
ATOM     21  N   UNL     1      -3.025   7.421 131.504  0.00  0.00    +0.000 NA
ATOM     22  H   UNL     1      -2.606   6.626 131.025  0.00  0.00    +0.000 HD
ENDBRANCH   1  21
TORSDOF 2
ENDMDL
MODEL 7
REMARK VINA RESULT:      -6.1      9.849     10.971
REMARK  Name = Frovatriptan
REMARK  3 active torsions:
REMARK  status: ('A' for Active; 'I' for Inactive)
REMARK    1  A    between atoms: C_1  and  N_2
REMARK    2  A    between atoms: N_2  and  C_3
REMARK    3  A    between atoms: C_14  and  C_16
REMARK                            x       y       z     vdW  Elec       q    Type
REMARK                         _______ _______ _______ _____ _____    ______ ____
ROOT
ATOM      1  C   UNL     1      -7.866  -0.008 123.653  0.00  0.00    +0.000 C 
ATOM      2  C   UNL     1      -8.980  -0.761 122.875  0.00  0.00    +0.000 C 
ATOM      3  C   UNL     1      -9.179  -2.206 123.389  0.00  0.00    +0.000 C 
ATOM      4  C   UNL     1      -8.930  -2.297 124.854  0.00  0.00    +0.000 A 
ATOM      5  C   UNL     1      -8.481  -1.290 125.682  0.00  0.00    +0.000 A 
ATOM      6  C   UNL     1      -8.227   0.079 125.162  0.00  0.00    +0.000 C 
ATOM      7  C   UNL     1      -8.300  -1.836 126.983  0.00  0.00    +0.000 A 
ATOM      8  C   UNL     1      -8.671  -3.180 126.900  0.00  0.00    +0.000 A 
ATOM      9  N   UNL     1      -9.043  -3.435 125.598  0.00  0.00    +0.000 N 
ATOM     10  C   UNL     1      -8.637  -4.037 128.000  0.00  0.00    +0.000 A 
ATOM     11  C   UNL     1      -8.209  -3.512 129.222  0.00  0.00    +0.000 A 
ATOM     12  C   UNL     1      -7.809  -2.177 129.348  0.00  0.00    +0.000 A 
ATOM     13  C   UNL     1      -7.852  -1.330 128.223  0.00  0.00    +0.000 A 
ATOM     14  H   UNL     1      -9.340  -4.337 125.251  0.00  0.00    +0.000 HD
ENDROOT
BRANCH  12  15
ATOM     15  C   UNL     1      -7.335  -1.612 130.649  0.00  0.00    +0.000 C 
ATOM     16  N   UNL     1      -6.498  -0.529 130.625  0.00  0.00    +0.000 N 
ATOM     17  O   UNL     1      -7.677  -2.094 131.726  0.00  0.00    +0.000 OA
ATOM     18  H   UNL     1      -6.166  -0.067 129.795  0.00  0.00    +0.000 HD
ATOM     19  H   UNL     1      -6.189  -0.163 131.515  0.00  0.00    +0.000 HD
ENDBRANCH  12  15
BRANCH   1  21
ATOM     20  C   UNL     1      -8.866   2.089 123.054  0.00  0.00    +0.000 C 
ATOM     21  N   UNL     1      -7.611   1.337 123.106  0.00  0.00    +0.000 NA
ATOM     22  H   UNL     1      -6.952   1.838 123.700  0.00  0.00    +0.000 HD
ENDBRANCH   1  21
TORSDOF 2
ENDMDL
MODEL 8
REMARK VINA RESULT:      -6.0      7.324      9.167
REMARK  Name = Frovatriptan
REMARK  3 active torsions:
REMARK  status: ('A' for Active; 'I' for Inactive)
REMARK    1  A    between atoms: C_1  and  N_2
REMARK    2  A    between atoms: N_2  and  C_3
REMARK    3  A    between atoms: C_14  and  C_16
REMARK                            x       y       z     vdW  Elec       q    Type
REMARK                         _______ _______ _______ _____ _____    ______ ____
ROOT
ATOM      1  C   UNL     1      -6.790   2.666 123.212  0.00  0.00    +0.000 C 
ATOM      2  C   UNL     1      -7.329   1.288 123.690  0.00  0.00    +0.000 C 
ATOM      3  C   UNL     1      -6.379   0.609 124.704  0.00  0.00    +0.000 C 
ATOM      4  C   UNL     1      -5.690   1.616 125.557  0.00  0.00    +0.000 A 
ATOM      5  C   UNL     1      -5.765   2.988 125.444  0.00  0.00    +0.000 A 
ATOM      6  C   UNL     1      -6.629   3.630 124.420  0.00  0.00    +0.000 C 
ATOM      7  C   UNL     1      -4.883   3.559 126.403  0.00  0.00    +0.000 A 
ATOM      8  C   UNL     1      -4.305   2.490 127.091  0.00  0.00    +0.000 A 
ATOM      9  N   UNL     1      -4.807   1.323 126.555  0.00  0.00    +0.000 N 
ATOM     10  C   UNL     1      -3.389   2.671 128.127  0.00  0.00    +0.000 A 
ATOM     11  C   UNL     1      -3.047   3.982 128.471  0.00  0.00    +0.000 A 
ATOM     12  C   UNL     1      -3.585   5.083 127.797  0.00  0.00    +0.000 A 
ATOM     13  C   UNL     1      -4.509   4.875 126.754  0.00  0.00    +0.000 A 
ATOM     14  H   UNL     1      -4.543   0.394 126.853  0.00  0.00    +0.000 HD
ENDROOT
BRANCH  12  15
ATOM     15  C   UNL     1      -3.211   6.487 128.150  0.00  0.00    +0.000 C 
ATOM     16  N   UNL     1      -1.890   6.844 128.100  0.00  0.00    +0.000 N 
ATOM     17  O   UNL     1      -4.054   7.317 128.480  0.00  0.00    +0.000 OA
ATOM     18  H   UNL     1      -1.131   6.236 127.841  0.00  0.00    +0.000 HD
ATOM     19  H   UNL     1      -1.659   7.798 128.342  0.00  0.00    +0.000 HD
ENDBRANCH  12  15
BRANCH   1  21
ATOM     20  C   UNL     1      -8.995   2.713 122.267  0.00  0.00    +0.000 C 
ATOM     21  N   UNL     1      -7.646   3.273 122.177  0.00  0.00    +0.000 NA
ATOM     22  H   UNL     1      -7.700   4.282 122.314  0.00  0.00    +0.000 HD
ENDBRANCH   1  21
TORSDOF 2
ENDMDL
MODEL 9
REMARK VINA RESULT:      -5.9      9.959     10.579
REMARK  Name = Frovatriptan
REMARK  3 active torsions:
REMARK  status: ('A' for Active; 'I' for Inactive)
REMARK    1  A    between atoms: C_1  and  N_2
REMARK    2  A    between atoms: N_2  and  C_3
REMARK    3  A    between atoms: C_14  and  C_16
REMARK                            x       y       z     vdW  Elec       q    Type
REMARK                         _______ _______ _______ _____ _____    ______ ____
ROOT
ATOM      1  C   UNL     1      -5.131  -1.457 129.716  0.00  0.00    +0.000 C 
ATOM      2  C   UNL     1      -5.648  -2.526 130.718  0.00  0.00    +0.000 C 
ATOM      3  C   UNL     1      -7.109  -2.943 130.428  0.00  0.00    +0.000 C 
ATOM      4  C   UNL     1      -7.401  -2.907 128.968  0.00  0.00    +0.000 A 
ATOM      5  C   UNL     1      -6.560  -2.473 127.966  0.00  0.00    +0.000 A 
ATOM      6  C   UNL     1      -5.180  -2.010 128.264  0.00  0.00    +0.000 C 
ATOM      7  C   UNL     1      -7.273  -2.529 126.736  0.00  0.00    +0.000 A 
ATOM      8  C   UNL     1      -8.543  -3.023 127.041  0.00  0.00    +0.000 A 
ATOM      9  N   UNL     1      -8.597  -3.238 128.402  0.00  0.00    +0.000 N 
ATOM     10  C   UNL     1      -9.522  -3.230 126.069  0.00  0.00    +0.000 A 
ATOM     11  C   UNL     1      -9.199  -2.920 124.744  0.00  0.00    +0.000 A 
ATOM     12  C   UNL     1      -7.946  -2.405 124.394  0.00  0.00    +0.000 A 
ATOM     13  C   UNL     1      -6.973  -2.205 125.394  0.00  0.00    +0.000 A 
ATOM     14  H   UNL     1      -9.409  -3.577 128.898  0.00  0.00    +0.000 HD
ENDROOT
BRANCH  12  15
ATOM     15  C   UNL     1      -7.600  -2.057 122.983  0.00  0.00    +0.000 C 
ATOM     16  N   UNL     1      -6.341  -1.589 122.715  0.00  0.00    +0.000 N 
ATOM     17  O   UNL     1      -8.411  -2.181 122.068  0.00  0.00    +0.000 OA
ATOM     18  H   UNL     1      -5.612  -1.455 123.395  0.00  0.00    +0.000 HD
ATOM     19  H   UNL     1      -6.128  -1.359 121.753  0.00  0.00    +0.000 HD
ENDBRANCH  12  15
BRANCH   1  21
ATOM     20  C   UNL     1      -2.907  -2.145 130.296  0.00  0.00    +0.000 C 
ATOM     21  N   UNL     1      -3.772  -0.991 130.045  0.00  0.00    +0.000 NA
ATOM     22  H   UNL     1      -3.387  -0.455 129.269  0.00  0.00    +0.000 HD
ENDBRANCH   1  21
TORSDOF 2
ENDMDL
