MODEL 1
REMARK VINA RESULT:      -5.1      0.000      0.000
REMARK  Name = Fructose
REMARK  7 active torsions:
REMARK  status: ('A' for Active; 'I' for Inactive)
REMARK    1  A    between atoms: O_1  and  C_2
REMARK    2  A    between atoms: C_2  and  C_3
REMARK    3  A    between atoms: C_5  and  O_6
REMARK    4  A    between atoms: C_5  and  C_7
REMARK    5  A    between atoms: C_7  and  O_8
REMARK    6  A    between atoms: C_9  and  O_10
REMARK    7  A    between atoms: C_11  and  O_12
REMARK                            x       y       z     vdW  Elec       q    Type
REMARK                         _______ _______ _______ _____ _____    ______ ____
ROOT
ATOM      1  C   UNL     1      -9.858   6.700 129.787  0.00  0.00    +0.000 C 
ATOM      2  O   UNL     1      -9.825   7.770 128.823  0.00  0.00    +0.000 OA
ATOM      3  C   UNL     1     -11.125   7.825 128.191  0.00  0.00    +0.000 C 
ATOM      4  C   UNL     1     -11.992   6.729 128.849  0.00  0.00    +0.000 C 
ATOM      5  C   UNL     1     -11.313   6.564 130.198  0.00  0.00    +0.000 C 
ENDROOT
BRANCH   3   6
ATOM      6  O   UNL     1     -11.712   9.100 128.456  0.00  0.00    +0.000 OA
ATOM      7  H   UNL     1     -12.259   9.287 127.673  0.00  0.00    +0.000 HD
ENDBRANCH   3   6
BRANCH   4   8
ATOM      8  O   UNL     1     -13.369   7.071 128.970  0.00  0.00    +0.000 OA
ATOM      9  H   UNL     1     -13.834   6.233 129.167  0.00  0.00    +0.000 HD
ENDBRANCH   4   8
BRANCH   5  10
ATOM     10  O   UNL     1     -11.579   5.307 130.814  0.00  0.00    +0.000 OA
ATOM     11  H   UNL     1     -12.401   5.375 131.328  0.00  0.00    +0.000 HD
ENDBRANCH   5  10
BRANCH   1  12
ATOM     12  C   UNL     1      -8.921   6.819 130.997  0.00  0.00    +0.000 C 
BRANCH  12  13
ATOM     13  O   UNL     1      -9.548   6.536 132.239  0.00  0.00    +0.000 OA
ATOM     14  H   UNL     1      -9.152   5.711 132.565  0.00  0.00    +0.000 HD
ENDBRANCH  12  13
ENDBRANCH   1  12
BRANCH   3  15
ATOM     15  C   UNL     1     -11.030   7.581 126.668  0.00  0.00    +0.000 C 
BRANCH  15  16
ATOM     16  O   UNL     1     -11.995   6.627 126.208  0.00  0.00    +0.000 OA
ATOM     17  H   UNL     1     -11.686   6.274 125.364  0.00  0.00    +0.000 HD
ENDBRANCH  15  16
ENDBRANCH   3  15
TORSDOF 7
ENDMDL
MODEL 2
REMARK VINA RESULT:      -4.8      1.271      4.094
REMARK  Name = Fructose
REMARK  7 active torsions:
REMARK  status: ('A' for Active; 'I' for Inactive)
REMARK    1  A    between atoms: O_1  and  C_2
REMARK    2  A    between atoms: C_2  and  C_3
REMARK    3  A    between atoms: C_5  and  O_6
REMARK    4  A    between atoms: C_5  and  C_7
REMARK    5  A    between atoms: C_7  and  O_8
REMARK    6  A    between atoms: C_9  and  O_10
REMARK    7  A    between atoms: C_11  and  O_12
REMARK                            x       y       z     vdW  Elec       q    Type
REMARK                         _______ _______ _______ _____ _____    ______ ____
ROOT
ATOM      1  C   UNL     1     -11.255   7.352 128.458  0.00  0.00    +0.000 C 
ATOM      2  O   UNL     1     -10.600   6.236 129.090  0.00  0.00    +0.000 OA
ATOM      3  C   UNL     1     -11.054   6.186 130.462  0.00  0.00    +0.000 C 
ATOM      4  C   UNL     1     -12.069   7.336 130.643  0.00  0.00    +0.000 C 
ATOM      5  C   UNL     1     -12.555   7.548 129.219  0.00  0.00    +0.000 C 
ENDROOT
BRANCH   3   6
ATOM      6  O   UNL     1     -11.721   4.942 130.682  0.00  0.00    +0.000 OA
ATOM      7  H   UNL     1     -11.823   4.557 129.794  0.00  0.00    +0.000 HD
ENDBRANCH   3   6
BRANCH   4   8
ATOM      8  O   UNL     1     -13.131   7.038 131.543  0.00  0.00    +0.000 OA
ATOM      9  H   UNL     1     -13.706   6.401 131.072  0.00  0.00    +0.000 HD
ENDBRANCH   4   8
BRANCH   5  10
ATOM     10  O   UNL     1     -13.113   8.840 128.999  0.00  0.00    +0.000 OA
ATOM     11  H   UNL     1     -13.612   8.831 128.166  0.00  0.00    +0.000 HD
ENDBRANCH   5  10
BRANCH   1  12
ATOM     12  C   UNL     1     -11.477   7.267 126.942  0.00  0.00    +0.000 C 
BRANCH  12  13
ATOM     13  O   UNL     1     -10.532   6.449 126.267  0.00  0.00    +0.000 OA
ATOM     14  H   UNL     1     -10.496   5.611 126.757  0.00  0.00    +0.000 HD
ENDBRANCH  12  13
ENDBRANCH   1  12
BRANCH   3  15
ATOM     15  C   UNL     1      -9.883   6.353 131.457  0.00  0.00    +0.000 C 
BRANCH  15  16
ATOM     16  O   UNL     1     -10.330   6.430 132.816  0.00  0.00    +0.000 OA
ATOM     17  H   UNL     1     -10.466   5.530 133.137  0.00  0.00    +0.000 HD
ENDBRANCH  15  16
ENDBRANCH   3  15
TORSDOF 7
ENDMDL
MODEL 3
REMARK VINA RESULT:      -4.8      1.498      4.232
REMARK  Name = Fructose
REMARK  7 active torsions:
REMARK  status: ('A' for Active; 'I' for Inactive)
REMARK    1  A    between atoms: O_1  and  C_2
REMARK    2  A    between atoms: C_2  and  C_3
REMARK    3  A    between atoms: C_5  and  O_6
REMARK    4  A    between atoms: C_5  and  C_7
REMARK    5  A    between atoms: C_7  and  O_8
REMARK    6  A    between atoms: C_9  and  O_10
REMARK    7  A    between atoms: C_11  and  O_12
REMARK                            x       y       z     vdW  Elec       q    Type
REMARK                         _______ _______ _______ _____ _____    ______ ____
ROOT
ATOM      1  C   UNL     1     -11.741   6.988 128.713  0.00  0.00    +0.000 C 
ATOM      2  O   UNL     1     -12.389   6.001 129.536  0.00  0.00    +0.000 OA
ATOM      3  C   UNL     1     -11.450   5.608 130.564  0.00  0.00    +0.000 C 
ATOM      4  C   UNL     1     -10.169   6.444 130.346  0.00  0.00    +0.000 C 
ATOM      5  C   UNL     1     -10.712   7.656 129.608  0.00  0.00    +0.000 C 
ENDROOT
BRANCH   3   6
ATOM      6  O   UNL     1     -12.002   5.931 131.841  0.00  0.00    +0.000 OA
ATOM      7  H   UNL     1     -12.956   6.034 131.679  0.00  0.00    +0.000 HD
ENDBRANCH   3   6
BRANCH   4   8
ATOM      8  O   UNL     1      -9.493   6.796 131.549  0.00  0.00    +0.000 OA
ATOM      9  H   UNL     1     -10.099   7.398 132.026  0.00  0.00    +0.000 HD
ENDBRANCH   4   8
BRANCH   5  10
ATOM     10  O   UNL     1      -9.720   8.349 128.856  0.00  0.00    +0.000 OA
ATOM     11  H   UNL     1      -8.909   8.416 129.387  0.00  0.00    +0.000 HD
ENDBRANCH   5  10
BRANCH   1  12
ATOM     12  C   UNL     1     -12.642   8.008 128.003  0.00  0.00    +0.000 C 
BRANCH  12  13
ATOM     13  O   UNL     1     -12.462   9.344 128.452  0.00  0.00    +0.000 OA
ATOM     14  H   UNL     1     -12.608   9.915 127.679  0.00  0.00    +0.000 HD
ENDBRANCH  12  13
ENDBRANCH   1  12
BRANCH   3  15
ATOM     15  C   UNL     1     -11.117   4.101 130.487  0.00  0.00    +0.000 C 
BRANCH  15  16
ATOM     16  O   UNL     1     -10.245   3.681 131.542  0.00  0.00    +0.000 OA
ATOM     17  H   UNL     1     -10.644   2.915 131.973  0.00  0.00    +0.000 HD
ENDBRANCH  15  16
ENDBRANCH   3  15
TORSDOF 7
ENDMDL
MODEL 4
REMARK VINA RESULT:      -4.8      1.370      2.670
REMARK  Name = Fructose
REMARK  7 active torsions:
REMARK  status: ('A' for Active; 'I' for Inactive)
REMARK    1  A    between atoms: O_1  and  C_2
REMARK    2  A    between atoms: C_2  and  C_3
REMARK    3  A    between atoms: C_5  and  O_6
REMARK    4  A    between atoms: C_5  and  C_7
REMARK    5  A    between atoms: C_7  and  O_8
REMARK    6  A    between atoms: C_9  and  O_10
REMARK    7  A    between atoms: C_11  and  O_12
REMARK                            x       y       z     vdW  Elec       q    Type
REMARK                         _______ _______ _______ _____ _____    ______ ____
ROOT
ATOM      1  C   UNL     1     -11.393   5.818 130.053  0.00  0.00    +0.000 C 
ATOM      2  O   UNL     1     -12.328   5.914 128.963  0.00  0.00    +0.000 OA
ATOM      3  C   UNL     1     -12.084   7.172 128.291  0.00  0.00    +0.000 C 
ATOM      4  C   UNL     1     -10.904   7.850 129.020  0.00  0.00    +0.000 C 
ATOM      5  C   UNL     1     -10.196   6.657 129.641  0.00  0.00    +0.000 C 
ENDROOT
BRANCH   3   6
ATOM      6  O   UNL     1     -11.702   6.906 126.940  0.00  0.00    +0.000 OA
ATOM      7  H   UNL     1     -12.365   7.370 126.400  0.00  0.00    +0.000 HD
ENDBRANCH   3   6
BRANCH   4   8
ATOM      8  O   UNL     1     -10.050   8.606 128.167  0.00  0.00    +0.000 OA
ATOM      9  H   UNL     1      -9.324   8.928 128.738  0.00  0.00    +0.000 HD
ENDBRANCH   4   8
BRANCH   5  10
ATOM     10  O   UNL     1      -9.378   7.003 130.755  0.00  0.00    +0.000 OA
ATOM     11  H   UNL     1      -8.840   7.778 130.523  0.00  0.00    +0.000 HD
ENDBRANCH   5  10
BRANCH   1  12
ATOM     12  C   UNL     1     -10.985   4.408 130.504  0.00  0.00    +0.000 C 
BRANCH  12  13
ATOM     13  O   UNL     1     -10.360   4.370 131.778  0.00  0.00    +0.000 OA
ATOM     14  H   UNL     1     -10.851   4.989 132.343  0.00  0.00    +0.000 HD
ENDBRANCH  12  13
ENDBRANCH   1  12
BRANCH   3  15
ATOM     15  C   UNL     1     -13.327   8.090 128.329  0.00  0.00    +0.000 C 
BRANCH  15  16
ATOM     16  O   UNL     1     -12.979   9.471 128.480  0.00  0.00    +0.000 OA
ATOM     17  H   UNL     1     -12.422   9.555 129.263  0.00  0.00    +0.000 HD
ENDBRANCH  15  16
ENDBRANCH   3  15
TORSDOF 7
ENDMDL
MODEL 5
REMARK VINA RESULT:      -4.4      1.399      4.120
REMARK  Name = Fructose
REMARK  7 active torsions:
REMARK  status: ('A' for Active; 'I' for Inactive)
REMARK    1  A    between atoms: O_1  and  C_2
REMARK    2  A    between atoms: C_2  and  C_3
REMARK    3  A    between atoms: C_5  and  O_6
REMARK    4  A    between atoms: C_5  and  C_7
REMARK    5  A    between atoms: C_7  and  O_8
REMARK    6  A    between atoms: C_9  and  O_10
REMARK    7  A    between atoms: C_11  and  O_12
REMARK                            x       y       z     vdW  Elec       q    Type
REMARK                         _______ _______ _______ _____ _____    ______ ____
ROOT
ATOM      1  C   UNL     1     -10.610   7.611 129.608  0.00  0.00    +0.000 C 
ATOM      2  O   UNL     1      -9.293   7.172 129.989  0.00  0.00    +0.000 OA
ATOM      3  C   UNL     1      -9.444   5.948 130.745  0.00  0.00    +0.000 C 
ATOM      4  C   UNL     1     -10.955   5.630 130.788  0.00  0.00    +0.000 C 
ATOM      5  C   UNL     1     -11.460   6.354 129.551  0.00  0.00    +0.000 C 
ENDROOT
BRANCH   3   6
ATOM      6  O   UNL     1      -8.769   4.895 130.055  0.00  0.00    +0.000 OA
ATOM      7  H   UNL     1      -8.621   5.241 129.158  0.00  0.00    +0.000 HD
ENDBRANCH   3   6
BRANCH   4   8
ATOM      8  O   UNL     1     -11.257   4.239 130.766  0.00  0.00    +0.000 OA
ATOM      9  H   UNL     1     -11.389   4.011 129.824  0.00  0.00    +0.000 HD
ENDBRANCH   4   8
BRANCH   5  10
ATOM     10  O   UNL     1     -12.853   6.648 129.599  0.00  0.00    +0.000 OA
ATOM     11  H   UNL     1     -13.256   6.407 128.748  0.00  0.00    +0.000 HD
ENDBRANCH   5  10
BRANCH   1  12
ATOM     12  C   UNL     1     -10.726   8.449 128.327  0.00  0.00    +0.000 C 
BRANCH  12  13
ATOM     13  O   UNL     1     -11.963   9.134 128.199  0.00  0.00    +0.000 OA
ATOM     14  H   UNL     1     -11.913   9.905 128.788  0.00  0.00    +0.000 HD
ENDBRANCH  12  13
ENDBRANCH   1  12
BRANCH   3  15
ATOM     15  C   UNL     1      -8.893   6.092 132.181  0.00  0.00    +0.000 C 
BRANCH  15  16
ATOM     16  O   UNL     1      -9.913   6.441 133.124  0.00  0.00    +0.000 OA
ATOM     17  H   UNL     1     -10.736   6.575 132.637  0.00  0.00    +0.000 HD
ENDBRANCH  15  16
ENDBRANCH   3  15
TORSDOF 7
ENDMDL
MODEL 6
REMARK VINA RESULT:      -4.3      2.534      3.956
REMARK  Name = Fructose
REMARK  7 active torsions:
REMARK  status: ('A' for Active; 'I' for Inactive)
REMARK    1  A    between atoms: O_1  and  C_2
REMARK    2  A    between atoms: C_2  and  C_3
REMARK    3  A    between atoms: C_5  and  O_6
REMARK    4  A    between atoms: C_5  and  C_7
REMARK    5  A    between atoms: C_7  and  O_8
REMARK    6  A    between atoms: C_9  and  O_10
REMARK    7  A    between atoms: C_11  and  O_12
REMARK                            x       y       z     vdW  Elec       q    Type
REMARK                         _______ _______ _______ _____ _____    ______ ____
ROOT
ATOM      1  C   UNL     1     -10.955   6.622 130.588  0.00  0.00    +0.000 C 
ATOM      2  O   UNL     1     -10.774   5.659 129.532  0.00  0.00    +0.000 OA
ATOM      3  C   UNL     1      -9.980   4.574 130.066  0.00  0.00    +0.000 C 
ATOM      4  C   UNL     1      -9.698   4.908 131.547  0.00  0.00    +0.000 C 
ATOM      5  C   UNL     1     -10.856   5.834 131.882  0.00  0.00    +0.000 C 
ENDROOT
BRANCH   3   6
ATOM      6  O   UNL     1     -10.745   3.369 130.001  0.00  0.00    +0.000 OA
ATOM      7  H   UNL     1     -11.413   3.537 129.313  0.00  0.00    +0.000 HD
ENDBRANCH   3   6
BRANCH   4   8
ATOM      8  O   UNL     1      -9.646   3.770 132.401  0.00  0.00    +0.000 OA
ATOM      9  H   UNL     1      -8.849   3.272 132.130  0.00  0.00    +0.000 HD
ENDBRANCH   4   8
BRANCH   5  10
ATOM     10  O   UNL     1     -10.599   6.676 133.002  0.00  0.00    +0.000 OA
ATOM     11  H   UNL     1     -10.433   6.122 133.782  0.00  0.00    +0.000 HD
ENDBRANCH   5  10
BRANCH   1  12
ATOM     12  C   UNL     1     -12.218   7.492 130.533  0.00  0.00    +0.000 C 
BRANCH  12  13
ATOM     13  O   UNL     1     -13.161   7.200 131.553  0.00  0.00    +0.000 OA
ATOM     14  H   UNL     1     -13.105   6.243 131.714  0.00  0.00    +0.000 HD
ENDBRANCH  12  13
ENDBRANCH   1  12
BRANCH   3  15
ATOM     15  C   UNL     1      -8.649   4.409 129.298  0.00  0.00    +0.000 C 
BRANCH  15  16
ATOM     16  O   UNL     1      -8.656   5.095 128.041  0.00  0.00    +0.000 OA
ATOM     17  H   UNL     1      -8.844   4.448 127.349  0.00  0.00    +0.000 HD
ENDBRANCH  15  16
ENDBRANCH   3  15
TORSDOF 7
ENDMDL
MODEL 7
REMARK VINA RESULT:      -4.1      1.967      3.240
REMARK  Name = Fructose
REMARK  7 active torsions:
REMARK  status: ('A' for Active; 'I' for Inactive)
REMARK    1  A    between atoms: O_1  and  C_2
REMARK    2  A    between atoms: C_2  and  C_3
REMARK    3  A    between atoms: C_5  and  O_6
REMARK    4  A    between atoms: C_5  and  C_7
REMARK    5  A    between atoms: C_7  and  O_8
REMARK    6  A    between atoms: C_9  and  O_10
REMARK    7  A    between atoms: C_11  and  O_12
REMARK                            x       y       z     vdW  Elec       q    Type
REMARK                         _______ _______ _______ _____ _____    ______ ____
ROOT
ATOM      1  C   UNL     1      -8.805   5.781 131.889  0.00  0.00    +0.000 C 
ATOM      2  O   UNL     1      -9.893   6.724 131.885  0.00  0.00    +0.000 OA
ATOM      3  C   UNL     1     -10.933   6.185 131.037  0.00  0.00    +0.000 C 
ATOM      4  C   UNL     1     -10.433   4.814 130.529  0.00  0.00    +0.000 C 
ATOM      5  C   UNL     1      -9.436   4.428 131.608  0.00  0.00    +0.000 C 
ENDROOT
BRANCH   3   6
ATOM      6  O   UNL     1     -12.110   5.986 131.821  0.00  0.00    +0.000 OA
ATOM      7  H   UNL     1     -12.733   5.538 131.223  0.00  0.00    +0.000 HD
ENDBRANCH   3   6
BRANCH   4   8
ATOM      8  O   UNL     1     -11.463   3.843 130.367  0.00  0.00    +0.000 OA
ATOM      9  H   UNL     1     -11.489   3.644 129.410  0.00  0.00    +0.000 HD
ENDBRANCH   4   8
BRANCH   5  10
ATOM     10  O   UNL     1      -8.474   3.471 131.172  0.00  0.00    +0.000 OA
ATOM     11  H   UNL     1      -8.883   2.590 131.173  0.00  0.00    +0.000 HD
ENDBRANCH   5  10
BRANCH   1  12
ATOM     12  C   UNL     1      -7.906   5.755 133.132  0.00  0.00    +0.000 C 
BRANCH  12  13
ATOM     13  O   UNL     1      -8.608   5.933 134.354  0.00  0.00    +0.000 OA
ATOM     14  H   UNL     1      -7.972   5.747 135.065  0.00  0.00    +0.000 HD
ENDBRANCH  12  13
ENDBRANCH   1  12
BRANCH   3  15
ATOM     15  C   UNL     1     -11.234   7.114 129.840  0.00  0.00    +0.000 C 
BRANCH  15  16
ATOM     16  O   UNL     1     -11.441   6.387 128.623  0.00  0.00    +0.000 OA
ATOM     17  H   UNL     1     -10.576   6.171 128.254  0.00  0.00    +0.000 HD
ENDBRANCH  15  16
ENDBRANCH   3  15
TORSDOF 7
ENDMDL
MODEL 8
REMARK VINA RESULT:      -4.1      7.121      8.526
REMARK  Name = Fructose
REMARK  7 active torsions:
REMARK  status: ('A' for Active; 'I' for Inactive)
REMARK    1  A    between atoms: O_1  and  C_2
REMARK    2  A    between atoms: C_2  and  C_3
REMARK    3  A    between atoms: C_5  and  O_6
REMARK    4  A    between atoms: C_5  and  C_7
REMARK    5  A    between atoms: C_7  and  O_8
REMARK    6  A    between atoms: C_9  and  O_10
REMARK    7  A    between atoms: C_11  and  O_12
REMARK                            x       y       z     vdW  Elec       q    Type
REMARK                         _______ _______ _______ _____ _____    ______ ____
ROOT
ATOM      1  C   UNL     1      -8.559   0.588 123.445  0.00  0.00    +0.000 C 
ATOM      2  O   UNL     1      -7.204   1.013 123.679  0.00  0.00    +0.000 OA
ATOM      3  C   UNL     1      -7.250   2.393 124.110  0.00  0.00    +0.000 C 
ATOM      4  C   UNL     1      -8.739   2.799 124.159  0.00  0.00    +0.000 C 
ATOM      5  C   UNL     1      -9.422   1.455 124.345  0.00  0.00    +0.000 C 
ENDROOT
BRANCH   3   6
ATOM      6  O   UNL     1      -6.702   2.483 125.426  0.00  0.00    +0.000 OA
ATOM      7  H   UNL     1      -6.872   1.612 125.825  0.00  0.00    +0.000 HD
ENDBRANCH   3   6
BRANCH   4   8
ATOM      8  O   UNL     1      -9.057   3.720 125.198  0.00  0.00    +0.000 OA
ATOM      9  H   UNL     1      -9.784   4.272 124.849  0.00  0.00    +0.000 HD
ENDBRANCH   4   8
BRANCH   5  10
ATOM     10  O   UNL     1     -10.787   1.454 123.938  0.00  0.00    +0.000 OA
ATOM     11  H   UNL     1     -11.353   1.433 124.728  0.00  0.00    +0.000 HD
ENDBRANCH   5  10
BRANCH   1  12
ATOM     12  C   UNL     1      -8.863  -0.907 123.614  0.00  0.00    +0.000 C 
BRANCH  12  13
ATOM     13  O   UNL     1     -10.044  -1.333 122.950  0.00  0.00    +0.000 OA
ATOM     14  H   UNL     1     -10.320  -2.159 123.382  0.00  0.00    +0.000 HD
ENDBRANCH  12  13
ENDBRANCH   1  12
BRANCH   3  15
ATOM     15  C   UNL     1      -6.481   3.319 123.142  0.00  0.00    +0.000 C 
BRANCH  15  16
ATOM     16  O   UNL     1      -6.372   4.658 123.639  0.00  0.00    +0.000 OA
ATOM     17  H   UNL     1      -7.050   4.782 124.314  0.00  0.00    +0.000 HD
ENDBRANCH  15  16
ENDBRANCH   3  15
TORSDOF 7
ENDMDL
MODEL 9
REMARK VINA RESULT:      -4.0      2.863      5.196
REMARK  Name = Fructose
REMARK  7 active torsions:
REMARK  status: ('A' for Active; 'I' for Inactive)
REMARK    1  A    between atoms: O_1  and  C_2
REMARK    2  A    between atoms: C_2  and  C_3
REMARK    3  A    between atoms: C_5  and  O_6
REMARK    4  A    between atoms: C_5  and  C_7
REMARK    5  A    between atoms: C_7  and  O_8
REMARK    6  A    between atoms: C_9  and  O_10
REMARK    7  A    between atoms: C_11  and  O_12
REMARK                            x       y       z     vdW  Elec       q    Type
REMARK                         _______ _______ _______ _____ _____    ______ ____
ROOT
ATOM      1  C   UNL     1      -8.347   4.440 129.781  0.00  0.00    +0.000 C 
ATOM      2  O   UNL     1      -8.707   3.236 130.484  0.00  0.00    +0.000 OA
ATOM      3  C   UNL     1      -9.674   3.597 131.497  0.00  0.00    +0.000 C 
ATOM      4  C   UNL     1      -9.921   5.116 131.361  0.00  0.00    +0.000 C 
ATOM      5  C   UNL     1      -9.545   5.364 129.910  0.00  0.00    +0.000 C 
ENDROOT
BRANCH   3   6
ATOM      6  O   UNL     1     -10.896   2.905 131.235  0.00  0.00    +0.000 OA
ATOM      7  H   UNL     1     -10.949   2.227 131.931  0.00  0.00    +0.000 HD
ENDBRANCH   3   6
BRANCH   4   8
ATOM      8  O   UNL     1     -11.256   5.517 131.654  0.00  0.00    +0.000 OA
ATOM      9  H   UNL     1     -11.789   5.246 130.880  0.00  0.00    +0.000 HD
ENDBRANCH   4   8
BRANCH   5  10
ATOM     10  O   UNL     1      -9.205   6.720 129.639  0.00  0.00    +0.000 OA
ATOM     11  H   UNL     1      -8.991   7.166 130.475  0.00  0.00    +0.000 HD
ENDBRANCH   5  10
BRANCH   1  12
ATOM     12  C   UNL     1      -7.885   4.289 128.325  0.00  0.00    +0.000 C 
BRANCH  12  13
ATOM     13  O   UNL     1      -8.613   5.089 127.405  0.00  0.00    +0.000 OA
ATOM     14  H   UNL     1      -8.464   6.013 127.668  0.00  0.00    +0.000 HD
ENDBRANCH  12  13
ENDBRANCH   1  12
BRANCH   3  15
ATOM     15  C   UNL     1      -9.162   3.270 132.918  0.00  0.00    +0.000 C 
BRANCH  15  16
ATOM     16  O   UNL     1      -9.911   3.944 133.936  0.00  0.00    +0.000 OA
ATOM     17  H   UNL     1      -9.559   4.838 134.023  0.00  0.00    +0.000 HD
ENDBRANCH  15  16
ENDBRANCH   3  15
TORSDOF 7
ENDMDL
