MODEL 1
REMARK VINA RESULT:      -7.6      0.000      0.000
REMARK  Name = Fulvestrant
REMARK  18 active torsions:
REMARK  status: ('A' for Active; 'I' for Inactive)
REMARK    1  A    between atoms: C_5  and  O_6
REMARK    2  A    between atoms: C_7  and  C_8
REMARK    3  A    between atoms: C_16  and  O_17
REMARK    4  A    between atoms: C_21  and  C_22
REMARK    5  A    between atoms: C_22  and  C_23
REMARK    6  A    between atoms: C_23  and  C_24
REMARK    7  A    between atoms: C_24  and  C_25
REMARK    8  A    between atoms: C_25  and  C_26
REMARK    9  A    between atoms: C_26  and  C_27
REMARK   10  A    between atoms: C_27  and  C_28
REMARK   11  A    between atoms: C_28  and  C_29
REMARK   12  A    between atoms: C_29  and  C_30
REMARK   13  A    between atoms: C_30  and  S_31
REMARK   14  A    between atoms: S_31  and  C_33
REMARK   15  A    between atoms: C_33  and  C_34
REMARK   16  A    between atoms: C_34  and  C_35
REMARK   17  A    between atoms: C_35  and  C_36
REMARK   18  A    between atoms: C_36  and  C_39
REMARK                            x       y       z     vdW  Elec       q    Type
REMARK                         _______ _______ _______ _____ _____    ______ ____
ROOT
ATOM      1  C   UNL     1      -5.275  -2.171 129.819  0.00  0.00    +0.000 C 
ATOM      2  C   UNL     1      -3.775  -2.163 130.111  0.00  0.00    +0.000 C 
ATOM      3  C   UNL     1      -3.700  -2.342 131.641  0.00  0.00    +0.000 C 
ATOM      4  C   UNL     1      -5.129  -2.693 132.104  0.00  0.00    +0.000 C 
ATOM      5  C   UNL     1      -5.828  -3.197 130.826  0.00  0.00    +0.000 C 
ATOM      6  C   UNL     1      -5.440  -4.663 130.519  0.00  0.00    +0.000 C 
ATOM      7  C   UNL     1      -7.354  -3.064 130.844  0.00  0.00    +0.000 C 
ATOM      8  C   UNL     1      -7.948  -3.312 129.450  0.00  0.00    +0.000 C 
ATOM      9  C   UNL     1      -7.325  -2.416 128.358  0.00  0.00    +0.000 C 
ATOM     10  C   UNL     1      -7.838  -2.673 126.944  0.00  0.00    +0.000 A 
ATOM     11  C   UNL     1      -9.134  -3.159 126.721  0.00  0.00    +0.000 A 
ATOM     12  C   UNL     1      -9.614  -3.398 125.431  0.00  0.00    +0.000 A 
ATOM     13  C   UNL     1      -8.800  -3.118 124.341  0.00  0.00    +0.000 A 
ATOM     14  C   UNL     1      -7.532  -2.599 124.526  0.00  0.00    +0.000 A 
ATOM     15  C   UNL     1      -7.036  -2.365 125.821  0.00  0.00    +0.000 A 
ATOM     16  C   UNL     1      -5.627  -1.841 125.946  0.00  0.00    +0.000 C 
ATOM     17  C   UNL     1      -5.229  -1.387 127.364  0.00  0.00    +0.000 C 
ATOM     18  C   UNL     1      -5.762  -2.421 128.386  0.00  0.00    +0.000 C 
ENDROOT
BRANCH   4  19
ATOM     19  O   UNL     1      -5.143  -3.619 133.172  0.00  0.00    +0.000 OA
ATOM     20  H   UNL     1      -4.957  -3.144 133.999  0.00  0.00    +0.000 HD
ENDBRANCH   4  19
BRANCH  13  21
ATOM     21  O   UNL     1      -9.224  -3.350 123.066  0.00  0.00    +0.000 OA
ATOM     22  H   UNL     1      -9.278  -4.308 122.931  0.00  0.00    +0.000 HD
ENDBRANCH  13  21
BRANCH  17  23
ATOM     23  C   UNL     1      -5.722   0.035 127.688  0.00  0.00    +0.000 C 
BRANCH  23  24
ATOM     24  C   UNL     1      -6.139   0.822 126.466  0.00  0.00    +0.000 C 
BRANCH  24  25
ATOM     25  C   UNL     1      -7.234   1.794 126.855  0.00  0.00    +0.000 C 
BRANCH  25  26
ATOM     26  C   UNL     1      -8.473   1.002 127.210  0.00  0.00    +0.000 C 
BRANCH  26  27
ATOM     27  C   UNL     1      -9.112   0.464 125.948  0.00  0.00    +0.000 C 
BRANCH  27  28
ATOM     28  C   UNL     1      -9.581   1.615 125.080  0.00  0.00    +0.000 C 
BRANCH  28  29
ATOM     29  C   UNL     1      -9.564   1.203 123.614  0.00  0.00    +0.000 C 
BRANCH  29  30
ATOM     30  C   UNL     1      -8.796   2.228 122.797  0.00  0.00    +0.000 C 
BRANCH  30  31
ATOM     31  C   UNL     1      -8.158   3.309 123.667  0.00  0.00    +0.000 C 
BRANCH  31  32
ATOM     32  S   UNL     1      -6.377   3.317 123.295  0.00  0.00    +0.000 S 
ATOM     33  O   UNL     1      -6.205   3.980 121.960  0.00  0.00    +0.000 OA
BRANCH  32  34
ATOM     34  C   UNL     1      -5.809   4.498 124.558  0.00  0.00    +0.000 C 
BRANCH  34  35
ATOM     35  C   UNL     1      -4.582   3.881 125.237  0.00  0.00    +0.000 C 
BRANCH  35  36
ATOM     36  C   UNL     1      -4.357   4.405 126.651  0.00  0.00    +0.000 C 
BRANCH  36  37
ATOM     37  C   UNL     1      -3.318   3.561 127.394  0.00  0.00    +0.000 C 
ATOM     38  F   UNL     1      -3.056   2.442 126.663  0.00  0.00    +0.000 F 
ATOM     39  F   UNL     1      -2.148   4.256 127.462  0.00  0.00    +0.000 F 
BRANCH  37  40
ATOM     40  C   UNL     1      -3.802   3.185 128.793  0.00  0.00    +0.000 C 
ATOM     41  F   UNL     1      -3.545   1.882 129.072  0.00  0.00    +0.000 F 
ATOM     42  F   UNL     1      -3.172   3.918 129.746  0.00  0.00    +0.000 F 
ATOM     43  F   UNL     1      -5.132   3.377 128.951  0.00  0.00    +0.000 F 
ENDBRANCH  37  40
ENDBRANCH  36  37
ENDBRANCH  35  36
ENDBRANCH  34  35
ENDBRANCH  32  34
ENDBRANCH  31  32
ENDBRANCH  30  31
ENDBRANCH  29  30
ENDBRANCH  28  29
ENDBRANCH  27  28
ENDBRANCH  26  27
ENDBRANCH  25  26
ENDBRANCH  24  25
ENDBRANCH  23  24
ENDBRANCH  17  23
TORSDOF 17
ENDMDL
MODEL 2
REMARK VINA RESULT:      -7.5      1.808      3.122
REMARK  Name = Fulvestrant
REMARK  18 active torsions:
REMARK  status: ('A' for Active; 'I' for Inactive)
REMARK    1  A    between atoms: C_5  and  O_6
REMARK    2  A    between atoms: C_7  and  C_8
REMARK    3  A    between atoms: C_16  and  O_17
REMARK    4  A    between atoms: C_21  and  C_22
REMARK    5  A    between atoms: C_22  and  C_23
REMARK    6  A    between atoms: C_23  and  C_24
REMARK    7  A    between atoms: C_24  and  C_25
REMARK    8  A    between atoms: C_25  and  C_26
REMARK    9  A    between atoms: C_26  and  C_27
REMARK   10  A    between atoms: C_27  and  C_28
REMARK   11  A    between atoms: C_28  and  C_29
REMARK   12  A    between atoms: C_29  and  C_30
REMARK   13  A    between atoms: C_30  and  S_31
REMARK   14  A    between atoms: S_31  and  C_33
REMARK   15  A    between atoms: C_33  and  C_34
REMARK   16  A    between atoms: C_34  and  C_35
REMARK   17  A    between atoms: C_35  and  C_36
REMARK   18  A    between atoms: C_36  and  C_39
REMARK                            x       y       z     vdW  Elec       q    Type
REMARK                         _______ _______ _______ _____ _____    ______ ____
ROOT
ATOM      1  C   UNL     1      -5.211  -2.202 129.654  0.00  0.00    +0.000 C 
ATOM      2  C   UNL     1      -3.715  -2.352 129.929  0.00  0.00    +0.000 C 
ATOM      3  C   UNL     1      -3.633  -2.438 131.467  0.00  0.00    +0.000 C 
ATOM      4  C   UNL     1      -5.086  -2.587 131.967  0.00  0.00    +0.000 C 
ATOM      5  C   UNL     1      -5.861  -3.088 130.733  0.00  0.00    +0.000 C 
ATOM      6  C   UNL     1      -5.653  -4.606 130.521  0.00  0.00    +0.000 C 
ATOM      7  C   UNL     1      -7.361  -2.774 130.757  0.00  0.00    +0.000 C 
ATOM      8  C   UNL     1      -8.005  -3.041 129.390  0.00  0.00    +0.000 C 
ATOM      9  C   UNL     1      -7.302  -2.298 128.234  0.00  0.00    +0.000 C 
ATOM     10  C   UNL     1      -7.867  -2.585 126.845  0.00  0.00    +0.000 A 
ATOM     11  C   UNL     1      -9.215  -2.928 126.669  0.00  0.00    +0.000 A 
ATOM     12  C   UNL     1      -9.743  -3.193 125.404  0.00  0.00    +0.000 A 
ATOM     13  C   UNL     1      -8.922  -3.083 124.289  0.00  0.00    +0.000 A 
ATOM     14  C   UNL     1      -7.598  -2.706 124.425  0.00  0.00    +0.000 A 
ATOM     15  C   UNL     1      -7.055  -2.448 125.696  0.00  0.00    +0.000 A 
ATOM     16  C   UNL     1      -5.592  -2.086 125.771  0.00  0.00    +0.000 C 
ATOM     17  C   UNL     1      -5.118  -1.592 127.152  0.00  0.00    +0.000 C 
ATOM     18  C   UNL     1      -5.749  -2.486 128.246  0.00  0.00    +0.000 C 
ENDROOT
BRANCH   4  19
ATOM     19  O   UNL     1      -5.188  -3.433 133.095  0.00  0.00    +0.000 OA
ATOM     20  H   UNL     1      -4.678  -4.242 132.925  0.00  0.00    +0.000 HD
ENDBRANCH   4  19
BRANCH  13  21
ATOM     21  O   UNL     1      -9.393  -3.346 123.037  0.00  0.00    +0.000 OA
ATOM     22  H   UNL     1     -10.186  -3.897 123.117  0.00  0.00    +0.000 HD
ENDBRANCH  13  21
BRANCH  17  23
ATOM     23  C   UNL     1      -5.435  -0.103 127.384  0.00  0.00    +0.000 C 
BRANCH  23  24
ATOM     24  C   UNL     1      -5.198   0.761 126.166  0.00  0.00    +0.000 C 
BRANCH  24  25
ATOM     25  C   UNL     1      -4.423   1.996 126.580  0.00  0.00    +0.000 C 
BRANCH  25  26
ATOM     26  C   UNL     1      -5.309   3.206 126.377  0.00  0.00    +0.000 C 
BRANCH  26  27
ATOM     27  C   UNL     1      -5.064   3.793 125.004  0.00  0.00    +0.000 C 
BRANCH  27  28
ATOM     28  C   UNL     1      -6.388   4.162 124.362  0.00  0.00    +0.000 C 
BRANCH  28  29
ATOM     29  C   UNL     1      -6.513   3.488 123.002  0.00  0.00    +0.000 C 
BRANCH  29  30
ATOM     30  C   UNL     1      -7.943   3.023 122.785  0.00  0.00    +0.000 C 
BRANCH  30  31
ATOM     31  C   UNL     1      -8.156   1.571 123.207  0.00  0.00    +0.000 C 
BRANCH  31  32
ATOM     32  S   UNL     1      -9.831   1.455 123.907  0.00  0.00    +0.000 S 
ATOM     33  O   UNL     1     -10.604   0.492 123.055  0.00  0.00    +0.000 OA
BRANCH  32  34
ATOM     34  C   UNL     1      -9.448   0.601 125.469  0.00  0.00    +0.000 C 
BRANCH  34  35
ATOM     35  C   UNL     1      -8.739   1.611 126.376  0.00  0.00    +0.000 C 
BRANCH  35  36
ATOM     36  C   UNL     1      -8.551   1.103 127.802  0.00  0.00    +0.000 C 
BRANCH  36  37
ATOM     37  C   UNL     1      -8.381   2.265 128.785  0.00  0.00    +0.000 C 
ATOM     38  F   UNL     1      -8.036   3.384 128.088  0.00  0.00    +0.000 F 
ATOM     39  F   UNL     1      -9.582   2.533 129.368  0.00  0.00    +0.000 F 
BRANCH  37  40
ATOM     40  C   UNL     1      -7.327   1.949 129.844  0.00  0.00    +0.000 C 
ATOM     41  F   UNL     1      -6.107   2.424 129.487  0.00  0.00    +0.000 F 
ATOM     42  F   UNL     1      -7.636   2.527 131.033  0.00  0.00    +0.000 F 
ATOM     43  F   UNL     1      -7.195   0.621 130.064  0.00  0.00    +0.000 F 
ENDBRANCH  37  40
ENDBRANCH  36  37
ENDBRANCH  35  36
ENDBRANCH  34  35
ENDBRANCH  32  34
ENDBRANCH  31  32
ENDBRANCH  30  31
ENDBRANCH  29  30
ENDBRANCH  28  29
ENDBRANCH  27  28
ENDBRANCH  26  27
ENDBRANCH  25  26
ENDBRANCH  24  25
ENDBRANCH  23  24
ENDBRANCH  17  23
TORSDOF 17
ENDMDL
MODEL 3
REMARK VINA RESULT:      -7.4      4.762      7.221
REMARK  Name = Fulvestrant
REMARK  18 active torsions:
REMARK  status: ('A' for Active; 'I' for Inactive)
REMARK    1  A    between atoms: C_5  and  O_6
REMARK    2  A    between atoms: C_7  and  C_8
REMARK    3  A    between atoms: C_16  and  O_17
REMARK    4  A    between atoms: C_21  and  C_22
REMARK    5  A    between atoms: C_22  and  C_23
REMARK    6  A    between atoms: C_23  and  C_24
REMARK    7  A    between atoms: C_24  and  C_25
REMARK    8  A    between atoms: C_25  and  C_26
REMARK    9  A    between atoms: C_26  and  C_27
REMARK   10  A    between atoms: C_27  and  C_28
REMARK   11  A    between atoms: C_28  and  C_29
REMARK   12  A    between atoms: C_29  and  C_30
REMARK   13  A    between atoms: C_30  and  S_31
REMARK   14  A    between atoms: S_31  and  C_33
REMARK   15  A    between atoms: C_33  and  C_34
REMARK   16  A    between atoms: C_34  and  C_35
REMARK   17  A    between atoms: C_35  and  C_36
REMARK   18  A    between atoms: C_36  and  C_39
REMARK                            x       y       z     vdW  Elec       q    Type
REMARK                         _______ _______ _______ _____ _____    ______ ____
ROOT
ATOM      1  C   UNL     1      -6.793   0.348 130.386  0.00  0.00    +0.000 C 
ATOM      2  C   UNL     1      -7.467  -0.988 130.075  0.00  0.00    +0.000 C 
ATOM      3  C   UNL     1      -6.436  -1.721 129.193  0.00  0.00    +0.000 C 
ATOM      4  C   UNL     1      -5.141  -0.883 129.258  0.00  0.00    +0.000 C 
ATOM      5  C   UNL     1      -5.307  -0.029 130.530  0.00  0.00    +0.000 C 
ATOM      6  C   UNL     1      -4.979  -0.850 131.799  0.00  0.00    +0.000 C 
ATOM      7  C   UNL     1      -4.491   1.267 130.533  0.00  0.00    +0.000 C 
ATOM      8  C   UNL     1      -4.920   2.190 131.682  0.00  0.00    +0.000 C 
ATOM      9  C   UNL     1      -6.435   2.488 131.686  0.00  0.00    +0.000 C 
ATOM     10  C   UNL     1      -6.920   3.348 132.850  0.00  0.00    +0.000 A 
ATOM     11  C   UNL     1      -6.074   4.287 133.457  0.00  0.00    +0.000 A 
ATOM     12  C   UNL     1      -6.507   5.080 134.522  0.00  0.00    +0.000 A 
ATOM     13  C   UNL     1      -7.815   4.958 134.972  0.00  0.00    +0.000 A 
ATOM     14  C   UNL     1      -8.687   4.071 134.367  0.00  0.00    +0.000 A 
ATOM     15  C   UNL     1      -8.257   3.261 133.300  0.00  0.00    +0.000 A 
ATOM     16  C   UNL     1      -9.250   2.284 132.720  0.00  0.00    +0.000 C 
ATOM     17  C   UNL     1      -8.797   1.600 131.416  0.00  0.00    +0.000 C 
ATOM     18  C   UNL     1      -7.308   1.197 131.554  0.00  0.00    +0.000 C 
ENDROOT
BRANCH   4  19
ATOM     19  O   UNL     1      -3.975  -1.682 129.247  0.00  0.00    +0.000 OA
ATOM     20  H   UNL     1      -3.245  -1.173 129.635  0.00  0.00    +0.000 HD
ENDBRANCH   4  19
BRANCH  13  21
ATOM     21  O   UNL     1      -8.274   5.703 136.018  0.00  0.00    +0.000 OA
ATOM     22  H   UNL     1      -7.529   5.897 136.606  0.00  0.00    +0.000 HD
ENDBRANCH  13  21
BRANCH  17  23
ATOM     23  C   UNL     1      -9.032   2.481 130.175  0.00  0.00    +0.000 C 
BRANCH  23  24
ATOM     24  C   UNL     1     -10.102   3.531 130.375  0.00  0.00    +0.000 C 
BRANCH  24  25
ATOM     25  C   UNL     1      -9.518   4.895 130.071  0.00  0.00    +0.000 C 
BRANCH  25  26
ATOM     26  C   UNL     1      -9.814   5.812 131.238  0.00  0.00    +0.000 C 
BRANCH  26  27
ATOM     27  C   UNL     1      -8.568   6.589 131.605  0.00  0.00    +0.000 C 
BRANCH  27  28
ATOM     28  C   UNL     1      -7.426   6.186 130.693  0.00  0.00    +0.000 C 
BRANCH  28  29
ATOM     29  C   UNL     1      -6.197   7.034 130.991  0.00  0.00    +0.000 C 
BRANCH  29  30
ATOM     30  C   UNL     1      -4.946   6.320 130.510  0.00  0.00    +0.000 C 
BRANCH  30  31
ATOM     31  C   UNL     1      -3.975   7.260 129.797  0.00  0.00    +0.000 C 
BRANCH  31  32
ATOM     32  S   UNL     1      -2.419   6.346 129.561  0.00  0.00    +0.000 S 
ATOM     33  O   UNL     1      -1.612   6.510 130.815  0.00  0.00    +0.000 OA
BRANCH  32  34
ATOM     34  C   UNL     1      -3.065   4.644 129.557  0.00  0.00    +0.000 C 
BRANCH  34  35
ATOM     35  C   UNL     1      -2.902   4.100 128.134  0.00  0.00    +0.000 C 
BRANCH  35  36
ATOM     36  C   UNL     1      -4.099   4.401 127.239  0.00  0.00    +0.000 C 
BRANCH  36  37
ATOM     37  C   UNL     1      -4.879   3.126 126.910  0.00  0.00    +0.000 C 
ATOM     38  F   UNL     1      -4.982   3.011 125.556  0.00  0.00    +0.000 F 
ATOM     39  F   UNL     1      -4.163   2.047 127.331  0.00  0.00    +0.000 F 
BRANCH  37  40
ATOM     40  C   UNL     1      -6.264   3.136 127.553  0.00  0.00    +0.000 C 
ATOM     41  F   UNL     1      -6.734   1.877 127.737  0.00  0.00    +0.000 F 
ATOM     42  F   UNL     1      -6.234   3.723 128.776  0.00  0.00    +0.000 F 
ATOM     43  F   UNL     1      -7.176   3.803 126.809  0.00  0.00    +0.000 F 
ENDBRANCH  37  40
ENDBRANCH  36  37
ENDBRANCH  35  36
ENDBRANCH  34  35
ENDBRANCH  32  34
ENDBRANCH  31  32
ENDBRANCH  30  31
ENDBRANCH  29  30
ENDBRANCH  28  29
ENDBRANCH  27  28
ENDBRANCH  26  27
ENDBRANCH  25  26
ENDBRANCH  24  25
ENDBRANCH  23  24
ENDBRANCH  17  23
TORSDOF 17
ENDMDL
MODEL 4
REMARK VINA RESULT:      -7.4      2.404      5.209
REMARK  Name = Fulvestrant
REMARK  18 active torsions:
REMARK  status: ('A' for Active; 'I' for Inactive)
REMARK    1  A    between atoms: C_5  and  O_6
REMARK    2  A    between atoms: C_7  and  C_8
REMARK    3  A    between atoms: C_16  and  O_17
REMARK    4  A    between atoms: C_21  and  C_22
REMARK    5  A    between atoms: C_22  and  C_23
REMARK    6  A    between atoms: C_23  and  C_24
REMARK    7  A    between atoms: C_24  and  C_25
REMARK    8  A    between atoms: C_25  and  C_26
REMARK    9  A    between atoms: C_26  and  C_27
REMARK   10  A    between atoms: C_27  and  C_28
REMARK   11  A    between atoms: C_28  and  C_29
REMARK   12  A    between atoms: C_29  and  C_30
REMARK   13  A    between atoms: C_30  and  S_31
REMARK   14  A    between atoms: S_31  and  C_33
REMARK   15  A    between atoms: C_33  and  C_34
REMARK   16  A    between atoms: C_34  and  C_35
REMARK   17  A    between atoms: C_35  and  C_36
REMARK   18  A    between atoms: C_36  and  C_39
REMARK                            x       y       z     vdW  Elec       q    Type
REMARK                         _______ _______ _______ _____ _____    ______ ____
ROOT
ATOM      1  C   UNL     1      -7.890  -0.247 129.421  0.00  0.00    +0.000 C 
ATOM      2  C   UNL     1      -7.452   0.301 128.063  0.00  0.00    +0.000 C 
ATOM      3  C   UNL     1      -8.148   1.675 127.983  0.00  0.00    +0.000 C 
ATOM      4  C   UNL     1      -8.730   1.945 129.386  0.00  0.00    +0.000 C 
ATOM      5  C   UNL     1      -7.934   1.007 130.314  0.00  0.00    +0.000 C 
ATOM      6  C   UNL     1      -6.545   1.600 130.647  0.00  0.00    +0.000 C 
ATOM      7  C   UNL     1      -8.657   0.635 131.611  0.00  0.00    +0.000 C 
ATOM      8  C   UNL     1      -7.939  -0.510 132.338  0.00  0.00    +0.000 C 
ATOM      9  C   UNL     1      -7.725  -1.753 131.447  0.00  0.00    +0.000 C 
ATOM     10  C   UNL     1      -6.955  -2.894 132.106  0.00  0.00    +0.000 A 
ATOM     11  C   UNL     1      -7.003  -3.093 133.493  0.00  0.00    +0.000 A 
ATOM     12  C   UNL     1      -6.304  -4.134 134.108  0.00  0.00    +0.000 A 
ATOM     13  C   UNL     1      -5.567  -5.013 133.323  0.00  0.00    +0.000 A 
ATOM     14  C   UNL     1      -5.533  -4.868 131.948  0.00  0.00    +0.000 A 
ATOM     15  C   UNL     1      -6.226  -3.817 131.322  0.00  0.00    +0.000 A 
ATOM     16  C   UNL     1      -6.106  -3.695 129.823  0.00  0.00    +0.000 C 
ATOM     17  C   UNL     1      -7.066  -2.677 129.178  0.00  0.00    +0.000 C 
ATOM     18  C   UNL     1      -7.104  -1.402 130.055  0.00  0.00    +0.000 C 
ENDROOT
BRANCH   4  19
ATOM     19  O   UNL     1      -8.663   3.310 129.750  0.00  0.00    +0.000 OA
ATOM     20  H   UNL     1      -9.504   3.736 129.517  0.00  0.00    +0.000 HD
ENDBRANCH   4  19
BRANCH  13  21
ATOM     21  O   UNL     1      -4.859  -6.034 133.884  0.00  0.00    +0.000 OA
ATOM     22  H   UNL     1      -4.286  -5.667 134.573  0.00  0.00    +0.000 HD
ENDBRANCH  13  21
BRANCH  17  23
ATOM     23  C   UNL     1      -8.476  -3.255 128.955  0.00  0.00    +0.000 C 
BRANCH  23  24
ATOM     24  C   UNL     1      -8.668  -3.868 127.587  0.00  0.00    +0.000 C 
BRANCH  24  25
ATOM     25  C   UNL     1      -8.479  -2.794 126.534  0.00  0.00    +0.000 C 
BRANCH  25  26
ATOM     26  C   UNL     1      -8.855  -3.374 125.188  0.00  0.00    +0.000 C 
BRANCH  26  27
ATOM     27  C   UNL     1      -7.617  -3.511 124.328  0.00  0.00    +0.000 C 
BRANCH  27  28
ATOM     28  C   UNL     1      -6.643  -2.394 124.652  0.00  0.00    +0.000 C 
BRANCH  28  29
ATOM     29  C   UNL     1      -6.404  -1.537 123.416  0.00  0.00    +0.000 C 
BRANCH  29  30
ATOM     30  C   UNL     1      -7.523  -0.520 123.267  0.00  0.00    +0.000 C 
BRANCH  30  31
ATOM     31  C   UNL     1      -7.596   0.444 124.450  0.00  0.00    +0.000 C 
BRANCH  31  32
ATOM     32  S   UNL     1      -8.455   1.940 123.870  0.00  0.00    +0.000 S 
ATOM     33  O   UNL     1      -9.594   2.193 124.814  0.00  0.00    +0.000 OA
BRANCH  32  34
ATOM     34  C   UNL     1      -7.175   3.183 124.230  0.00  0.00    +0.000 C 
BRANCH  34  35
ATOM     35  C   UNL     1      -6.050   2.470 124.988  0.00  0.00    +0.000 C 
BRANCH  35  36
ATOM     36  C   UNL     1      -5.336   3.376 125.986  0.00  0.00    +0.000 C 
BRANCH  36  37
ATOM     37  C   UNL     1      -4.247   2.613 126.743  0.00  0.00    +0.000 C 
ATOM     38  F   UNL     1      -4.703   2.319 127.993  0.00  0.00    +0.000 F 
ATOM     39  F   UNL     1      -4.030   1.418 126.126  0.00  0.00    +0.000 F 
BRANCH  37  40
ATOM     40  C   UNL     1      -2.953   3.420 126.823  0.00  0.00    +0.000 C 
ATOM     41  F   UNL     1      -2.523   3.789 125.590  0.00  0.00    +0.000 F 
ATOM     42  F   UNL     1      -3.128   4.563 127.533  0.00  0.00    +0.000 F 
ATOM     43  F   UNL     1      -1.948   2.731 127.411  0.00  0.00    +0.000 F 
ENDBRANCH  37  40
ENDBRANCH  36  37
ENDBRANCH  35  36
ENDBRANCH  34  35
ENDBRANCH  32  34
ENDBRANCH  31  32
ENDBRANCH  30  31
ENDBRANCH  29  30
ENDBRANCH  28  29
ENDBRANCH  27  28
ENDBRANCH  26  27
ENDBRANCH  25  26
ENDBRANCH  24  25
ENDBRANCH  23  24
ENDBRANCH  17  23
TORSDOF 17
ENDMDL
MODEL 5
REMARK VINA RESULT:      -7.2      2.419      3.790
REMARK  Name = Fulvestrant
REMARK  18 active torsions:
REMARK  status: ('A' for Active; 'I' for Inactive)
REMARK    1  A    between atoms: C_5  and  O_6
REMARK    2  A    between atoms: C_7  and  C_8
REMARK    3  A    between atoms: C_16  and  O_17
REMARK    4  A    between atoms: C_21  and  C_22
REMARK    5  A    between atoms: C_22  and  C_23
REMARK    6  A    between atoms: C_23  and  C_24
REMARK    7  A    between atoms: C_24  and  C_25
REMARK    8  A    between atoms: C_25  and  C_26
REMARK    9  A    between atoms: C_26  and  C_27
REMARK   10  A    between atoms: C_27  and  C_28
REMARK   11  A    between atoms: C_28  and  C_29
REMARK   12  A    between atoms: C_29  and  C_30
REMARK   13  A    between atoms: C_30  and  S_31
REMARK   14  A    between atoms: S_31  and  C_33
REMARK   15  A    between atoms: C_33  and  C_34
REMARK   16  A    between atoms: C_34  and  C_35
REMARK   17  A    between atoms: C_35  and  C_36
REMARK   18  A    between atoms: C_36  and  C_39
REMARK                            x       y       z     vdW  Elec       q    Type
REMARK                         _______ _______ _______ _____ _____    ______ ____
ROOT
ATOM      1  C   UNL     1      -5.282  -2.271 129.720  0.00  0.00    +0.000 C 
ATOM      2  C   UNL     1      -3.783  -2.356 130.002  0.00  0.00    +0.000 C 
ATOM      3  C   UNL     1      -3.706  -2.491 131.536  0.00  0.00    +0.000 C 
ATOM      4  C   UNL     1      -5.153  -2.729 132.019  0.00  0.00    +0.000 C 
ATOM      5  C   UNL     1      -5.895  -3.224 130.762  0.00  0.00    +0.000 C 
ATOM      6  C   UNL     1      -5.609  -4.722 130.500  0.00  0.00    +0.000 C 
ATOM      7  C   UNL     1      -7.408  -2.987 130.786  0.00  0.00    +0.000 C 
ATOM      8  C   UNL     1      -8.030  -3.239 129.405  0.00  0.00    +0.000 C 
ATOM      9  C   UNL     1      -7.357  -2.421 128.281  0.00  0.00    +0.000 C 
ATOM     10  C   UNL     1      -7.898  -2.688 126.879  0.00  0.00    +0.000 A 
ATOM     11  C   UNL     1      -9.226  -3.091 126.680  0.00  0.00    +0.000 A 
ATOM     12  C   UNL     1      -9.732  -3.337 125.402  0.00  0.00    +0.000 A 
ATOM     13  C   UNL     1      -8.911  -3.148 124.298  0.00  0.00    +0.000 A 
ATOM     14  C   UNL     1      -7.608  -2.711 124.458  0.00  0.00    +0.000 A 
ATOM     15  C   UNL     1      -7.087  -2.471 125.741  0.00  0.00    +0.000 A 
ATOM     16  C   UNL     1      -5.645  -2.039 125.841  0.00  0.00    +0.000 C 
ATOM     17  C   UNL     1      -5.205  -1.570 127.241  0.00  0.00    +0.000 C 
ATOM     18  C   UNL     1      -5.797  -2.532 128.299  0.00  0.00    +0.000 C 
ENDROOT
BRANCH   4  19
ATOM     19  O   UNL     1      -5.220  -3.618 133.117  0.00  0.00    +0.000 OA
ATOM     20  H   UNL     1      -5.675  -4.428 132.834  0.00  0.00    +0.000 HD
ENDBRANCH   4  19
BRANCH  13  21
ATOM     21  O   UNL     1      -9.360  -3.390 123.034  0.00  0.00    +0.000 OA
ATOM     22  H   UNL     1      -9.892  -2.632 122.747  0.00  0.00    +0.000 HD
ENDBRANCH  13  21
BRANCH  17  23
ATOM     23  C   UNL     1      -5.597  -0.108 127.522  0.00  0.00    +0.000 C 
BRANCH  23  24
ATOM     24  C   UNL     1      -5.800   0.714 126.269  0.00  0.00    +0.000 C 
BRANCH  24  25
ATOM     25  C   UNL     1      -7.176   1.348 126.312  0.00  0.00    +0.000 C 
BRANCH  25  26
ATOM     26  C   UNL     1      -7.808   1.025 127.649  0.00  0.00    +0.000 C 
BRANCH  26  27
ATOM     27  C   UNL     1      -8.252   2.305 128.325  0.00  0.00    +0.000 C 
BRANCH  27  28
ATOM     28  C   UNL     1      -7.921   2.244 129.804  0.00  0.00    +0.000 C 
BRANCH  28  29
ATOM     29  C   UNL     1      -7.919   0.797 130.278  0.00  0.00    +0.000 C 
BRANCH  29  30
ATOM     30  C   UNL     1      -6.834   0.596 131.322  0.00  0.00    +0.000 C 
BRANCH  30  31
ATOM     31  C   UNL     1      -5.472   1.105 130.854  0.00  0.00    +0.000 C 
BRANCH  31  32
ATOM     32  S   UNL     1      -4.661   1.869 132.293  0.00  0.00    +0.000 S 
ATOM     33  O   UNL     1      -3.577   0.934 132.741  0.00  0.00    +0.000 OA
BRANCH  32  34
ATOM     34  C   UNL     1      -3.850   3.276 131.471  0.00  0.00    +0.000 C 
BRANCH  34  35
ATOM     35  C   UNL     1      -4.304   3.271 130.008  0.00  0.00    +0.000 C 
BRANCH  35  36
ATOM     36  C   UNL     1      -3.389   4.082 129.096  0.00  0.00    +0.000 C 
BRANCH  36  37
ATOM     37  C   UNL     1      -4.053   4.349 127.743  0.00  0.00    +0.000 C 
ATOM     38  F   UNL     1      -5.355   3.953 127.806  0.00  0.00    +0.000 F 
ATOM     39  F   UNL     1      -4.072   5.691 127.515  0.00  0.00    +0.000 F 
BRANCH  37  40
ATOM     40  C   UNL     1      -3.327   3.622 126.612  0.00  0.00    +0.000 C 
ATOM     41  F   UNL     1      -2.071   4.105 126.439  0.00  0.00    +0.000 F 
ATOM     42  F   UNL     1      -3.201   2.298 126.879  0.00  0.00    +0.000 F 
ATOM     43  F   UNL     1      -3.971   3.735 125.427  0.00  0.00    +0.000 F 
ENDBRANCH  37  40
ENDBRANCH  36  37
ENDBRANCH  35  36
ENDBRANCH  34  35
ENDBRANCH  32  34
ENDBRANCH  31  32
ENDBRANCH  30  31
ENDBRANCH  29  30
ENDBRANCH  28  29
ENDBRANCH  27  28
ENDBRANCH  26  27
ENDBRANCH  25  26
ENDBRANCH  24  25
ENDBRANCH  23  24
ENDBRANCH  17  23
TORSDOF 17
ENDMDL
MODEL 6
REMARK VINA RESULT:      -7.2      3.679      5.927
REMARK  Name = Fulvestrant
REMARK  18 active torsions:
REMARK  status: ('A' for Active; 'I' for Inactive)
REMARK    1  A    between atoms: C_5  and  O_6
REMARK    2  A    between atoms: C_7  and  C_8
REMARK    3  A    between atoms: C_16  and  O_17
REMARK    4  A    between atoms: C_21  and  C_22
REMARK    5  A    between atoms: C_22  and  C_23
REMARK    6  A    between atoms: C_23  and  C_24
REMARK    7  A    between atoms: C_24  and  C_25
REMARK    8  A    between atoms: C_25  and  C_26
REMARK    9  A    between atoms: C_26  and  C_27
REMARK   10  A    between atoms: C_27  and  C_28
REMARK   11  A    between atoms: C_28  and  C_29
REMARK   12  A    between atoms: C_29  and  C_30
REMARK   13  A    between atoms: C_30  and  S_31
REMARK   14  A    between atoms: S_31  and  C_33
REMARK   15  A    between atoms: C_33  and  C_34
REMARK   16  A    between atoms: C_34  and  C_35
REMARK   17  A    between atoms: C_35  and  C_36
REMARK   18  A    between atoms: C_36  and  C_39
REMARK                            x       y       z     vdW  Elec       q    Type
REMARK                         _______ _______ _______ _____ _____    ______ ____
ROOT
ATOM      1  C   UNL     1      -5.214  -3.333 132.051  0.00  0.00    +0.000 C 
ATOM      2  C   UNL     1      -5.754  -4.426 132.973  0.00  0.00    +0.000 C 
ATOM      3  C   UNL     1      -4.487  -5.171 133.438  0.00  0.00    +0.000 C 
ATOM      4  C   UNL     1      -3.290  -4.319 132.967  0.00  0.00    +0.000 C 
ATOM      5  C   UNL     1      -3.893  -2.921 132.725  0.00  0.00    +0.000 C 
ATOM      6  C   UNL     1      -4.069  -2.152 134.056  0.00  0.00    +0.000 C 
ATOM      7  C   UNL     1      -3.109  -2.056 131.733  0.00  0.00    +0.000 C 
ATOM      8  C   UNL     1      -3.910  -0.811 131.329  0.00  0.00    +0.000 C 
ATOM      9  C   UNL     1      -5.315  -1.147 130.783  0.00  0.00    +0.000 C 
ATOM     10  C   UNL     1      -6.175   0.063 130.430  0.00  0.00    +0.000 A 
ATOM     11  C   UNL     1      -5.592   1.270 130.018  0.00  0.00    +0.000 A 
ATOM     12  C   UNL     1      -6.369   2.384 129.691  0.00  0.00    +0.000 A 
ATOM     13  C   UNL     1      -7.754   2.285 129.746  0.00  0.00    +0.000 A 
ATOM     14  C   UNL     1      -8.360   1.097 130.108  0.00  0.00    +0.000 A 
ATOM     15  C   UNL     1      -7.586  -0.027 130.448  0.00  0.00    +0.000 A 
ATOM     16  C   UNL     1      -8.316  -1.276 130.877  0.00  0.00    +0.000 C 
ATOM     17  C   UNL     1      -7.430  -2.530 131.009  0.00  0.00    +0.000 C 
ATOM     18  C   UNL     1      -6.105  -2.134 131.704  0.00  0.00    +0.000 C 
ENDROOT
BRANCH   4  19
ATOM     19  O   UNL     1      -2.217  -4.333 133.887  0.00  0.00    +0.000 OA
ATOM     20  H   UNL     1      -2.129  -5.230 134.250  0.00  0.00    +0.000 HD
ENDBRANCH   4  19
BRANCH  13  21
ATOM     21  O   UNL     1      -8.549   3.352 129.449  0.00  0.00    +0.000 OA
ATOM     22  H   UNL     1      -8.047   3.962 128.887  0.00  0.00    +0.000 HD
ENDBRANCH  13  21
BRANCH  17  23
ATOM     23  C   UNL     1      -7.177  -3.218 129.655  0.00  0.00    +0.000 C 
BRANCH  23  24
ATOM     24  C   UNL     1      -8.421  -3.359 128.808  0.00  0.00    +0.000 C 
BRANCH  24  25
ATOM     25  C   UNL     1      -8.138  -2.823 127.419  0.00  0.00    +0.000 C 
BRANCH  25  26
ATOM     26  C   UNL     1      -6.769  -2.177 127.428  0.00  0.00    +0.000 C 
BRANCH  26  27
ATOM     27  C   UNL     1      -6.861  -0.779 126.856  0.00  0.00    +0.000 C 
BRANCH  27  28
ATOM     28  C   UNL     1      -5.533  -0.390 126.236  0.00  0.00    +0.000 C 
BRANCH  28  29
ATOM     29  C   UNL     1      -5.375   1.124 126.248  0.00  0.00    +0.000 C 
BRANCH  29  30
ATOM     30  C   UNL     1      -6.741   1.787 126.179  0.00  0.00    +0.000 C 
BRANCH  30  31
ATOM     31  C   UNL     1      -6.792   2.912 125.147  0.00  0.00    +0.000 C 
BRANCH  31  32
ATOM     32  S   UNL     1      -8.503   3.002 124.535  0.00  0.00    +0.000 S 
ATOM     33  O   UNL     1      -8.435   3.301 123.066  0.00  0.00    +0.000 OA
BRANCH  32  34
ATOM     34  C   UNL     1      -8.978   1.254 124.706  0.00  0.00    +0.000 C 
BRANCH  34  35
ATOM     35  C   UNL     1      -8.461   0.519 123.465  0.00  0.00    +0.000 C 
BRANCH  35  36
ATOM     36  C   UNL     1      -9.290  -0.711 123.111  0.00  0.00    +0.000 C 
BRANCH  36  37
ATOM     37  C   UNL     1      -8.433  -1.979 123.127  0.00  0.00    +0.000 C 
ATOM     38  F   UNL     1      -8.155  -2.337 121.842  0.00  0.00    +0.000 F 
ATOM     39  F   UNL     1      -7.235  -1.698 123.712  0.00  0.00    +0.000 F 
BRANCH  37  40
ATOM     40  C   UNL     1      -9.135  -3.119 123.861  0.00  0.00    +0.000 C 
ATOM     41  F   UNL     1      -8.247  -4.048 124.297  0.00  0.00    +0.000 F 
ATOM     42  F   UNL     1      -9.795  -2.667 124.956  0.00  0.00    +0.000 F 
ATOM     43  F   UNL     1     -10.038  -3.758 123.081  0.00  0.00    +0.000 F 
ENDBRANCH  37  40
ENDBRANCH  36  37
ENDBRANCH  35  36
ENDBRANCH  34  35
ENDBRANCH  32  34
ENDBRANCH  31  32
ENDBRANCH  30  31
ENDBRANCH  29  30
ENDBRANCH  28  29
ENDBRANCH  27  28
ENDBRANCH  26  27
ENDBRANCH  25  26
ENDBRANCH  24  25
ENDBRANCH  23  24
ENDBRANCH  17  23
TORSDOF 17
ENDMDL
MODEL 7
REMARK VINA RESULT:      -7.2      2.698      4.302
REMARK  Name = Fulvestrant
REMARK  18 active torsions:
REMARK  status: ('A' for Active; 'I' for Inactive)
REMARK    1  A    between atoms: C_5  and  O_6
REMARK    2  A    between atoms: C_7  and  C_8
REMARK    3  A    between atoms: C_16  and  O_17
REMARK    4  A    between atoms: C_21  and  C_22
REMARK    5  A    between atoms: C_22  and  C_23
REMARK    6  A    between atoms: C_23  and  C_24
REMARK    7  A    between atoms: C_24  and  C_25
REMARK    8  A    between atoms: C_25  and  C_26
REMARK    9  A    between atoms: C_26  and  C_27
REMARK   10  A    between atoms: C_27  and  C_28
REMARK   11  A    between atoms: C_28  and  C_29
REMARK   12  A    between atoms: C_29  and  C_30
REMARK   13  A    between atoms: C_30  and  S_31
REMARK   14  A    between atoms: S_31  and  C_33
REMARK   15  A    between atoms: C_33  and  C_34
REMARK   16  A    between atoms: C_34  and  C_35
REMARK   17  A    between atoms: C_35  and  C_36
REMARK   18  A    between atoms: C_36  and  C_39
REMARK                            x       y       z     vdW  Elec       q    Type
REMARK                         _______ _______ _______ _____ _____    ______ ____
ROOT
ATOM      1  C   UNL     1      -5.245  -2.189 129.708  0.00  0.00    +0.000 C 
ATOM      2  C   UNL     1      -3.744  -2.258 129.984  0.00  0.00    +0.000 C 
ATOM      3  C   UNL     1      -3.659  -2.383 131.518  0.00  0.00    +0.000 C 
ATOM      4  C   UNL     1      -5.101  -2.632 132.009  0.00  0.00    +0.000 C 
ATOM      5  C   UNL     1      -5.844  -3.142 130.759  0.00  0.00    +0.000 C 
ATOM      6  C   UNL     1      -5.545  -4.638 130.504  0.00  0.00    +0.000 C 
ATOM      7  C   UNL     1      -7.359  -2.919 130.787  0.00  0.00    +0.000 C 
ATOM      8  C   UNL     1      -7.984  -3.185 129.411  0.00  0.00    +0.000 C 
ATOM      9  C   UNL     1      -7.325  -2.368 128.279  0.00  0.00    +0.000 C 
ATOM     10  C   UNL     1      -7.869  -2.648 126.881  0.00  0.00    +0.000 A 
ATOM     11  C   UNL     1      -9.194  -3.065 126.690  0.00  0.00    +0.000 A 
ATOM     12  C   UNL     1      -9.704  -3.324 125.416  0.00  0.00    +0.000 A 
ATOM     13  C   UNL     1      -8.889  -3.134 124.308  0.00  0.00    +0.000 A 
ATOM     14  C   UNL     1      -7.590  -2.683 124.459  0.00  0.00    +0.000 A 
ATOM     15  C   UNL     1      -7.066  -2.430 125.739  0.00  0.00    +0.000 A 
ATOM     16  C   UNL     1      -5.627  -1.984 125.829  0.00  0.00    +0.000 C 
ATOM     17  C   UNL     1      -5.185  -1.502 127.225  0.00  0.00    +0.000 C 
ATOM     18  C   UNL     1      -5.764  -2.464 128.291  0.00  0.00    +0.000 C 
ENDROOT
BRANCH   4  19
ATOM     19  O   UNL     1      -5.154  -3.515 133.112  0.00  0.00    +0.000 OA
ATOM     20  H   UNL     1      -6.002  -3.391 133.570  0.00  0.00    +0.000 HD
ENDBRANCH   4  19
BRANCH  13  21
ATOM     21  O   UNL     1      -9.342  -3.388 123.047  0.00  0.00    +0.000 OA
ATOM     22  H   UNL     1      -9.067  -2.660 122.470  0.00  0.00    +0.000 HD
ENDBRANCH  13  21
BRANCH  17  23
ATOM     23  C   UNL     1      -5.590  -0.042 127.499  0.00  0.00    +0.000 C 
BRANCH  23  24
ATOM     24  C   UNL     1      -5.126   0.923 126.431  0.00  0.00    +0.000 C 
BRANCH  24  25
ATOM     25  C   UNL     1      -5.430   2.339 126.880  0.00  0.00    +0.000 C 
BRANCH  25  26
ATOM     26  C   UNL     1      -4.383   3.260 126.293  0.00  0.00    +0.000 C 
BRANCH  26  27
ATOM     27  C   UNL     1      -3.014   2.873 126.811  0.00  0.00    +0.000 C 
BRANCH  27  28
ATOM     28  C   UNL     1      -2.392   4.048 127.541  0.00  0.00    +0.000 C 
BRANCH  28  29
ATOM     29  C   UNL     1      -3.302   5.264 127.441  0.00  0.00    +0.000 C 
BRANCH  29  30
ATOM     30  C   UNL     1      -2.642   6.460 128.107  0.00  0.00    +0.000 C 
BRANCH  30  31
ATOM     31  C   UNL     1      -2.281   6.190 129.566  0.00  0.00    +0.000 C 
BRANCH  31  32
ATOM     32  S   UNL     1      -3.442   7.145 130.592  0.00  0.00    +0.000 S 
ATOM     33  O   UNL     1      -4.789   7.059 129.937  0.00  0.00    +0.000 OA
BRANCH  32  34
ATOM     34  C   UNL     1      -3.493   6.078 132.065  0.00  0.00    +0.000 C 
BRANCH  34  35
ATOM     35  C   UNL     1      -3.031   4.683 131.632  0.00  0.00    +0.000 C 
BRANCH  35  36
ATOM     36  C   UNL     1      -3.914   3.566 132.178  0.00  0.00    +0.000 C 
BRANCH  36  37
ATOM     37  C   UNL     1      -4.796   2.971 131.077  0.00  0.00    +0.000 C 
ATOM     38  F   UNL     1      -6.103   3.100 131.443  0.00  0.00    +0.000 F 
ATOM     39  F   UNL     1      -4.644   3.705 129.940  0.00  0.00    +0.000 F 
BRANCH  37  40
ATOM     40  C   UNL     1      -4.455   1.505 130.820  0.00  0.00    +0.000 C 
ATOM     41  F   UNL     1      -3.709   0.985 131.827  0.00  0.00    +0.000 F 
ATOM     42  F   UNL     1      -5.577   0.746 130.735  0.00  0.00    +0.000 F 
ATOM     43  F   UNL     1      -3.762   1.328 129.671  0.00  0.00    +0.000 F 
ENDBRANCH  37  40
ENDBRANCH  36  37
ENDBRANCH  35  36
ENDBRANCH  34  35
ENDBRANCH  32  34
ENDBRANCH  31  32
ENDBRANCH  30  31
ENDBRANCH  29  30
ENDBRANCH  28  29
ENDBRANCH  27  28
ENDBRANCH  26  27
ENDBRANCH  25  26
ENDBRANCH  24  25
ENDBRANCH  23  24
ENDBRANCH  17  23
TORSDOF 17
ENDMDL
MODEL 8
REMARK VINA RESULT:      -7.1      2.549      6.128
REMARK  Name = Fulvestrant
REMARK  18 active torsions:
REMARK  status: ('A' for Active; 'I' for Inactive)
REMARK    1  A    between atoms: C_5  and  O_6
REMARK    2  A    between atoms: C_7  and  C_8
REMARK    3  A    between atoms: C_16  and  O_17
REMARK    4  A    between atoms: C_21  and  C_22
REMARK    5  A    between atoms: C_22  and  C_23
REMARK    6  A    between atoms: C_23  and  C_24
REMARK    7  A    between atoms: C_24  and  C_25
REMARK    8  A    between atoms: C_25  and  C_26
REMARK    9  A    between atoms: C_26  and  C_27
REMARK   10  A    between atoms: C_27  and  C_28
REMARK   11  A    between atoms: C_28  and  C_29
REMARK   12  A    between atoms: C_29  and  C_30
REMARK   13  A    between atoms: C_30  and  S_31
REMARK   14  A    between atoms: S_31  and  C_33
REMARK   15  A    between atoms: C_33  and  C_34
REMARK   16  A    between atoms: C_34  and  C_35
REMARK   17  A    between atoms: C_35  and  C_36
REMARK   18  A    between atoms: C_36  and  C_39
REMARK                            x       y       z     vdW  Elec       q    Type
REMARK                         _______ _______ _______ _____ _____    ______ ____
ROOT
ATOM      1  C   UNL     1      -7.988  -2.360 126.197  0.00  0.00    +0.000 C 
ATOM      2  C   UNL     1      -9.313  -2.967 125.738  0.00  0.00    +0.000 C 
ATOM      3  C   UNL     1      -9.463  -2.464 124.288  0.00  0.00    +0.000 C 
ATOM      4  C   UNL     1      -8.112  -1.816 123.916  0.00  0.00    +0.000 C 
ATOM      5  C   UNL     1      -7.115  -2.411 124.930  0.00  0.00    +0.000 C 
ATOM      6  C   UNL     1      -6.681  -3.836 124.513  0.00  0.00    +0.000 C 
ATOM      7  C   UNL     1      -5.874  -1.549 125.178  0.00  0.00    +0.000 C 
ATOM      8  C   UNL     1      -5.081  -2.055 126.391  0.00  0.00    +0.000 C 
ATOM      9  C   UNL     1      -5.940  -2.173 127.669  0.00  0.00    +0.000 C 
ATOM     10  C   UNL     1      -5.210  -2.736 128.886  0.00  0.00    +0.000 A 
ATOM     11  C   UNL     1      -3.829  -2.557 129.049  0.00  0.00    +0.000 A 
ATOM     12  C   UNL     1      -3.151  -3.066 130.158  0.00  0.00    +0.000 A 
ATOM     13  C   UNL     1      -3.865  -3.740 131.140  0.00  0.00    +0.000 A 
ATOM     14  C   UNL     1      -5.235  -3.897 131.029  0.00  0.00    +0.000 A 
ATOM     15  C   UNL     1      -5.924  -3.396 129.911  0.00  0.00    +0.000 A 
ATOM     16  C   UNL     1      -7.411  -3.645 129.837  0.00  0.00    +0.000 C 
ATOM     17  C   UNL     1      -8.140  -2.878 128.717  0.00  0.00    +0.000 C 
ATOM     18  C   UNL     1      -7.282  -2.938 127.430  0.00  0.00    +0.000 C 
ENDROOT
BRANCH   4  19
ATOM     19  O   UNL     1      -7.759  -2.032 122.565  0.00  0.00    +0.000 OA
ATOM     20  H   UNL     1      -7.377  -1.213 122.208  0.00  0.00    +0.000 HD
ENDBRANCH   4  19
BRANCH  13  21
ATOM     21  O   UNL     1      -3.241  -4.266 132.232  0.00  0.00    +0.000 OA
ATOM     22  H   UNL     1      -3.840  -4.198 132.990  0.00  0.00    +0.000 HD
ENDBRANCH  13  21
BRANCH  17  23
ATOM     23  C   UNL     1      -8.466  -1.426 129.114  0.00  0.00    +0.000 C 
BRANCH  23  24
ATOM     24  C   UNL     1      -8.113  -1.099 130.547  0.00  0.00    +0.000 C 
BRANCH  24  25
ATOM     25  C   UNL     1      -8.081   0.407 130.717  0.00  0.00    +0.000 C 
BRANCH  25  26
ATOM     26  C   UNL     1      -6.994   0.752 131.711  0.00  0.00    +0.000 C 
BRANCH  26  27
ATOM     27  C   UNL     1      -5.733  -0.013 131.374  0.00  0.00    +0.000 C 
BRANCH  27  28
ATOM     28  C   UNL     1      -4.668   0.947 130.878  0.00  0.00    +0.000 C 
BRANCH  28  29
ATOM     29  C   UNL     1      -4.594   0.902 129.357  0.00  0.00    +0.000 C 
BRANCH  29  30
ATOM     30  C   UNL     1      -4.929   2.267 128.782  0.00  0.00    +0.000 C 
BRANCH  30  31
ATOM     31  C   UNL     1      -3.688   3.131 128.568  0.00  0.00    +0.000 C 
BRANCH  31  32
ATOM     32  S   UNL     1      -3.676   3.631 126.819  0.00  0.00    +0.000 S 
ATOM     33  O   UNL     1      -2.276   3.443 126.312  0.00  0.00    +0.000 OA
BRANCH  32  34
ATOM     34  C   UNL     1      -4.686   2.290 126.114  0.00  0.00    +0.000 C 
BRANCH  34  35
ATOM     35  C   UNL     1      -5.693   2.935 125.157  0.00  0.00    +0.000 C 
BRANCH  35  36
ATOM     36  C   UNL     1      -6.893   2.041 124.862  0.00  0.00    +0.000 C 
BRANCH  36  37
ATOM     37  C   UNL     1      -8.113   2.463 125.685  0.00  0.00    +0.000 C 
ATOM     38  F   UNL     1      -7.867   3.681 126.243  0.00  0.00    +0.000 F 
ATOM     39  F   UNL     1      -9.175   2.632 124.850  0.00  0.00    +0.000 F 
BRANCH  37  40
ATOM     40  C   UNL     1      -8.439   1.435 126.767  0.00  0.00    +0.000 C 
ATOM     41  F   UNL     1      -9.388   0.561 126.350  0.00  0.00    +0.000 F 
ATOM     42  F   UNL     1      -7.346   0.698 127.091  0.00  0.00    +0.000 F 
ATOM     43  F   UNL     1      -8.890   2.008 127.906  0.00  0.00    +0.000 F 
ENDBRANCH  37  40
ENDBRANCH  36  37
ENDBRANCH  35  36
ENDBRANCH  34  35
ENDBRANCH  32  34
ENDBRANCH  31  32
ENDBRANCH  30  31
ENDBRANCH  29  30
ENDBRANCH  28  29
ENDBRANCH  27  28
ENDBRANCH  26  27
ENDBRANCH  25  26
ENDBRANCH  24  25
ENDBRANCH  23  24
ENDBRANCH  17  23
TORSDOF 17
ENDMDL
MODEL 9
REMARK VINA RESULT:      -7.1      3.351      6.630
REMARK  Name = Fulvestrant
REMARK  18 active torsions:
REMARK  status: ('A' for Active; 'I' for Inactive)
REMARK    1  A    between atoms: C_5  and  O_6
REMARK    2  A    between atoms: C_7  and  C_8
REMARK    3  A    between atoms: C_16  and  O_17
REMARK    4  A    between atoms: C_21  and  C_22
REMARK    5  A    between atoms: C_22  and  C_23
REMARK    6  A    between atoms: C_23  and  C_24
REMARK    7  A    between atoms: C_24  and  C_25
REMARK    8  A    between atoms: C_25  and  C_26
REMARK    9  A    between atoms: C_26  and  C_27
REMARK   10  A    between atoms: C_27  and  C_28
REMARK   11  A    between atoms: C_28  and  C_29
REMARK   12  A    between atoms: C_29  and  C_30
REMARK   13  A    between atoms: C_30  and  S_31
REMARK   14  A    between atoms: S_31  and  C_33
REMARK   15  A    between atoms: C_33  and  C_34
REMARK   16  A    between atoms: C_34  and  C_35
REMARK   17  A    between atoms: C_35  and  C_36
REMARK   18  A    between atoms: C_36  and  C_39
REMARK                            x       y       z     vdW  Elec       q    Type
REMARK                         _______ _______ _______ _____ _____    ______ ____
ROOT
ATOM      1  C   UNL     1      -7.390   1.533 130.931  0.00  0.00    +0.000 C 
ATOM      2  C   UNL     1      -8.621   0.659 130.689  0.00  0.00    +0.000 C 
ATOM      3  C   UNL     1      -9.529   0.963 131.897  0.00  0.00    +0.000 C 
ATOM      4  C   UNL     1      -8.890   2.166 132.623  0.00  0.00    +0.000 C 
ATOM      5  C   UNL     1      -7.978   2.809 131.560  0.00  0.00    +0.000 C 
ATOM      6  C   UNL     1      -8.796   3.683 130.579  0.00  0.00    +0.000 C 
ATOM      7  C   UNL     1      -6.818   3.629 132.132  0.00  0.00    +0.000 C 
ATOM      8  C   UNL     1      -5.804   3.993 131.039  0.00  0.00    +0.000 C 
ATOM      9  C   UNL     1      -5.284   2.764 130.263  0.00  0.00    +0.000 C 
ATOM     10  C   UNL     1      -4.323   3.083 129.121  0.00  0.00    +0.000 A 
ATOM     11  C   UNL     1      -3.500   4.217 129.163  0.00  0.00    +0.000 A 
ATOM     12  C   UNL     1      -2.615   4.518 128.125  0.00  0.00    +0.000 A 
ATOM     13  C   UNL     1      -2.526   3.658 127.038  0.00  0.00    +0.000 A 
ATOM     14  C   UNL     1      -3.294   2.509 126.986  0.00  0.00    +0.000 A 
ATOM     15  C   UNL     1      -4.194   2.203 128.022  0.00  0.00    +0.000 A 
ATOM     16  C   UNL     1      -5.032   0.956 127.875  0.00  0.00    +0.000 C 
ATOM     17  C   UNL     1      -5.820   0.554 129.137  0.00  0.00    +0.000 C 
ATOM     18  C   UNL     1      -6.434   1.827 129.768  0.00  0.00    +0.000 C 
ENDROOT
BRANCH   4  19
ATOM     19  O   UNL     1      -9.853   3.047 133.166  0.00  0.00    +0.000 OA
ATOM     20  H   UNL     1      -9.393   3.783 133.602  0.00  0.00    +0.000 HD
ENDBRANCH   4  19
BRANCH  13  21
ATOM     21  O   UNL     1      -1.686   3.922 125.997  0.00  0.00    +0.000 OA
ATOM     22  H   UNL     1      -2.134   4.529 125.389  0.00  0.00    +0.000 HD
ENDBRANCH  13  21
BRANCH  17  23
ATOM     23  C   UNL     1      -4.956  -0.221 130.149  0.00  0.00    +0.000 C 
BRANCH  23  24
ATOM     24  C   UNL     1      -4.490  -1.566 129.640  0.00  0.00    +0.000 C 
BRANCH  24  25
ATOM     25  C   UNL     1      -5.156  -2.659 130.451  0.00  0.00    +0.000 C 
BRANCH  25  26
ATOM     26  C   UNL     1      -6.183  -3.344 129.577  0.00  0.00    +0.000 C 
BRANCH  26  27
ATOM     27  C   UNL     1      -7.575  -3.013 130.071  0.00  0.00    +0.000 C 
BRANCH  27  28
ATOM     28  C   UNL     1      -8.586  -3.280 128.972  0.00  0.00    +0.000 C 
BRANCH  28  29
ATOM     29  C   UNL     1      -7.995  -2.908 127.619  0.00  0.00    +0.000 C 
BRANCH  29  30
ATOM     30  C   UNL     1      -9.011  -3.169 126.521  0.00  0.00    +0.000 C 
BRANCH  30  31
ATOM     31  C   UNL     1      -8.364  -3.684 125.236  0.00  0.00    +0.000 C 
BRANCH  31  32
ATOM     32  S   UNL     1      -6.968  -2.580 124.858  0.00  0.00    +0.000 S 
ATOM     33  O   UNL     1      -5.885  -3.424 124.254  0.00  0.00    +0.000 OA
BRANCH  32  34
ATOM     34  C   UNL     1      -7.707  -1.608 123.509  0.00  0.00    +0.000 C 
BRANCH  34  35
ATOM     35  C   UNL     1      -8.401  -0.400 124.146  0.00  0.00    +0.000 C 
BRANCH  35  36
ATOM     36  C   UNL     1      -7.686   0.110 125.393  0.00  0.00    +0.000 C 
BRANCH  36  37
ATOM     37  C   UNL     1      -8.520   1.173 126.112  0.00  0.00    +0.000 C 
ATOM     38  F   UNL     1      -9.781   1.168 125.595  0.00  0.00    +0.000 F 
ATOM     39  F   UNL     1      -8.645   0.827 127.424  0.00  0.00    +0.000 F 
BRANCH  37  40
ATOM     40  C   UNL     1      -7.893   2.559 125.980  0.00  0.00    +0.000 C 
ATOM     41  F   UNL     1      -7.742   3.152 127.191  0.00  0.00    +0.000 F 
ATOM     42  F   UNL     1      -6.658   2.489 125.424  0.00  0.00    +0.000 F 
ATOM     43  F   UNL     1      -8.634   3.391 125.212  0.00  0.00    +0.000 F 
ENDBRANCH  37  40
ENDBRANCH  36  37
ENDBRANCH  35  36
ENDBRANCH  34  35
ENDBRANCH  32  34
ENDBRANCH  31  32
ENDBRANCH  30  31
ENDBRANCH  29  30
ENDBRANCH  28  29
ENDBRANCH  27  28
ENDBRANCH  26  27
ENDBRANCH  25  26
ENDBRANCH  24  25
ENDBRANCH  23  24
ENDBRANCH  17  23
TORSDOF 17
ENDMDL
