MODEL 1
REMARK VINA RESULT:      -6.6      0.000      0.000
REMARK  Name = Furosemide
REMARK  7 active torsions:
REMARK  status: ('A' for Active; 'I' for Inactive)
REMARK    1  A    between atoms: N_1  and  S_2
REMARK    2  A    between atoms: S_2  and  C_5
REMARK    3  A    between atoms: C_9  and  N_10
REMARK    4  A    between atoms: N_10  and  C_11
REMARK    5  A    between atoms: C_11  and  C_12
REMARK    6  A    between atoms: C_17  and  C_19
REMARK    7  A    between atoms: C_19  and  O_20
REMARK                            x       y       z     vdW  Elec       q    Type
REMARK                         _______ _______ _______ _____ _____    ______ ____
ROOT
ATOM      1  C   UNL     1     -10.667   7.211 130.046  0.00  0.00    +0.000 A 
ATOM      2  C   UNL     1     -11.497   6.842 131.081  0.00  0.00    +0.000 A 
ATOM      3 CL   UNL     1     -13.215   6.974 131.102  0.00  0.00    +0.000 Cl
ATOM      4  C   UNL     1     -10.926   6.298 132.242  0.00  0.00    +0.000 A 
ATOM      5  C   UNL     1      -9.528   6.097 132.447  0.00  0.00    +0.000 A 
ATOM      6  C   UNL     1      -8.653   6.490 131.376  0.00  0.00    +0.000 A 
ATOM      7  C   UNL     1      -9.278   7.036 130.207  0.00  0.00    +0.000 A 
ENDROOT
BRANCH   1   8
ATOM      8  S   UNL     1     -11.203   7.906 128.504  0.00  0.00    +0.000 S 
ATOM      9  O   UNL     1     -11.992   6.903 127.827  0.00  0.00    +0.000 OA
ATOM     10  O   UNL     1     -10.054   8.523 127.882  0.00  0.00    +0.000 OA
BRANCH   8  11
ATOM     11  N   UNL     1     -12.231   9.179 128.839  0.00  0.00    +0.000 NA
ATOM     12  H   UNL     1     -11.736  10.061 128.969  0.00  0.00    +0.000 HD
ATOM     13  H   UNL     1     -12.938   8.978 129.542  0.00  0.00    +0.000 HD
ENDBRANCH   8  11
ENDBRANCH   1   8
BRANCH   5  14
ATOM     14  N   UNL     1      -9.270   5.529 133.701  0.00  0.00    +0.000 N 
ATOM     15  H   UNL     1      -9.316   6.077 134.556  0.00  0.00    +0.000 HD
BRANCH  14  16
ATOM     16  C   UNL     1      -8.912   4.170 133.865  0.00  0.00    +0.000 C 
BRANCH  16  17
ATOM     17  C   UNL     1      -8.771   3.114 132.872  0.00  0.00    +0.000 A 
ATOM     18  C   UNL     1      -9.722   2.197 132.469  0.00  0.00    +0.000 A 
ATOM     19  C   UNL     1      -9.084   1.408 131.498  0.00  0.00    +0.000 A 
ATOM     20  C   UNL     1      -7.807   1.908 131.379  0.00  0.00    +0.000 A 
ATOM     21  O   UNL     1      -7.607   2.958 132.217  0.00  0.00    +0.000 OA
ENDBRANCH  16  17
ENDBRANCH  14  16
ENDBRANCH   5  14
BRANCH   6  22
ATOM     22  C   UNL     1      -7.121   6.484 131.129  0.00  0.00    +0.000 C 
ATOM     23  O   UNL     1      -6.565   7.430 130.604  0.00  0.00    +0.000 OA
BRANCH  22  24
ATOM     24  O   UNL     1      -6.313   5.476 131.470  0.00  0.00    +0.000 OA
ATOM     25  H   UNL     1      -6.675   4.617 131.367  0.00  0.00    +0.000 HD
ENDBRANCH  22  24
ENDBRANCH   6  22
TORSDOF 7
ENDMDL
MODEL 2
REMARK VINA RESULT:      -6.4      7.481      8.855
REMARK  Name = Furosemide
REMARK  7 active torsions:
REMARK  status: ('A' for Active; 'I' for Inactive)
REMARK    1  A    between atoms: N_1  and  S_2
REMARK    2  A    between atoms: S_2  and  C_5
REMARK    3  A    between atoms: C_9  and  N_10
REMARK    4  A    between atoms: N_10  and  C_11
REMARK    5  A    between atoms: C_11  and  C_12
REMARK    6  A    between atoms: C_17  and  C_19
REMARK    7  A    between atoms: C_19  and  O_20
REMARK                            x       y       z     vdW  Elec       q    Type
REMARK                         _______ _______ _______ _____ _____    ______ ____
ROOT
ATOM      1  C   UNL     1      -7.652   2.996 125.173  0.00  0.00    +0.000 A 
ATOM      2  C   UNL     1      -6.507   2.232 125.123  0.00  0.00    +0.000 A 
ATOM      3 CL   UNL     1      -4.965   2.670 125.756  0.00  0.00    +0.000 Cl
ATOM      4  C   UNL     1      -6.564   0.969 124.512  0.00  0.00    +0.000 A 
ATOM      5  C   UNL     1      -7.732   0.402 123.920  0.00  0.00    +0.000 A 
ATOM      6  C   UNL     1      -8.928   1.197 123.958  0.00  0.00    +0.000 A 
ATOM      7  C   UNL     1      -8.828   2.476 124.595  0.00  0.00    +0.000 A 
ENDROOT
BRANCH   1   8
ATOM      8  S   UNL     1      -7.775   4.606 125.908  0.00  0.00    +0.000 S 
ATOM      9  O   UNL     1      -7.241   4.514 127.247  0.00  0.00    +0.000 OA
ATOM     10  O   UNL     1      -9.108   5.100 125.650  0.00  0.00    +0.000 OA
BRANCH   8  11
ATOM     11  N   UNL     1      -6.774   5.640 125.062  0.00  0.00    +0.000 NA
ATOM     12  H   UNL     1      -7.115   6.600 125.056  0.00  0.00    +0.000 HD
ATOM     13  H   UNL     1      -6.469   5.289 124.157  0.00  0.00    +0.000 HD
ENDBRANCH   8  11
ENDBRANCH   1   8
BRANCH   5  14
ATOM     14  N   UNL     1      -7.475  -0.873 123.400  0.00  0.00    +0.000 N 
ATOM     15  H   UNL     1      -7.555  -1.071 122.406  0.00  0.00    +0.000 HD
BRANCH  14  16
ATOM     16  C   UNL     1      -7.108  -1.971 124.214  0.00  0.00    +0.000 C 
BRANCH  16  17
ATOM     17  C   UNL     1      -7.711  -2.465 125.443  0.00  0.00    +0.000 A 
ATOM     18  C   UNL     1      -8.798  -3.309 125.575  0.00  0.00    +0.000 A 
ATOM     19  C   UNL     1      -8.970  -3.474 126.959  0.00  0.00    +0.000 A 
ATOM     20  C   UNL     1      -7.977  -2.731 127.558  0.00  0.00    +0.000 A 
ATOM     21  O   UNL     1      -7.197  -2.112 126.634  0.00  0.00    +0.000 OA
ENDBRANCH  16  17
ENDBRANCH  14  16
ENDBRANCH   5  14
BRANCH   6  22
ATOM     22  C   UNL     1     -10.391   1.035 123.463  0.00  0.00    +0.000 C 
ATOM     23  O   UNL     1     -10.642   0.465 122.419  0.00  0.00    +0.000 OA
BRANCH  22  24
ATOM     24  O   UNL     1     -11.459   1.486 124.127  0.00  0.00    +0.000 OA
ATOM     25  H   UNL     1     -11.367   2.339 124.505  0.00  0.00    +0.000 HD
ENDBRANCH  22  24
ENDBRANCH   6  22
TORSDOF 7
ENDMDL
MODEL 3
REMARK VINA RESULT:      -6.2      8.281      9.591
REMARK  Name = Furosemide
REMARK  7 active torsions:
REMARK  status: ('A' for Active; 'I' for Inactive)
REMARK    1  A    between atoms: N_1  and  S_2
REMARK    2  A    between atoms: S_2  and  C_5
REMARK    3  A    between atoms: C_9  and  N_10
REMARK    4  A    between atoms: N_10  and  C_11
REMARK    5  A    between atoms: C_11  and  C_12
REMARK    6  A    between atoms: C_17  and  C_19
REMARK    7  A    between atoms: C_19  and  O_20
REMARK                            x       y       z     vdW  Elec       q    Type
REMARK                         _______ _______ _______ _____ _____    ______ ____
ROOT
ATOM      1  C   UNL     1      -7.601   2.995 125.182  0.00  0.00    +0.000 A 
ATOM      2  C   UNL     1      -6.474   2.203 125.179  0.00  0.00    +0.000 A 
ATOM      3 CL   UNL     1      -4.949   2.603 125.873  0.00  0.00    +0.000 Cl
ATOM      4  C   UNL     1      -6.539   0.941 124.567  0.00  0.00    +0.000 A 
ATOM      5  C   UNL     1      -7.696   0.402 123.930  0.00  0.00    +0.000 A 
ATOM      6  C   UNL     1      -8.873   1.227 123.918  0.00  0.00    +0.000 A 
ATOM      7  C   UNL     1      -8.765   2.505 124.558  0.00  0.00    +0.000 A 
ENDROOT
BRANCH   1   8
ATOM      8  S   UNL     1      -7.713   4.610 125.910  0.00  0.00    +0.000 S 
ATOM      9  O   UNL     1      -7.157   4.525 127.241  0.00  0.00    +0.000 OA
ATOM     10  O   UNL     1      -9.050   5.103 125.670  0.00  0.00    +0.000 OA
BRANCH   8  11
ATOM     11  N   UNL     1      -6.725   5.639 125.043  0.00  0.00    +0.000 NA
ATOM     12  H   UNL     1      -6.379   5.218 124.181  0.00  0.00    +0.000 HD
ATOM     13  H   UNL     1      -6.020   6.117 125.598  0.00  0.00    +0.000 HD
ENDBRANCH   8  11
ENDBRANCH   1   8
BRANCH   5  14
ATOM     14  N   UNL     1      -7.451  -0.880 123.422  0.00  0.00    +0.000 N 
ATOM     15  H   UNL     1      -7.594  -1.102 122.439  0.00  0.00    +0.000 HD
BRANCH  14  16
ATOM     16  C   UNL     1      -7.009  -1.952 124.233  0.00  0.00    +0.000 C 
BRANCH  16  17
ATOM     17  C   UNL     1      -5.959  -2.932 123.994  0.00  0.00    +0.000 A 
ATOM     18  C   UNL     1      -5.982  -4.285 124.273  0.00  0.00    +0.000 A 
ATOM     19  C   UNL     1      -4.732  -4.768 123.853  0.00  0.00    +0.000 A 
ATOM     20  C   UNL     1      -4.053  -3.682 123.347  0.00  0.00    +0.000 A 
ATOM     21  O   UNL     1      -4.801  -2.551 123.426  0.00  0.00    +0.000 OA
ENDBRANCH  16  17
ENDBRANCH  14  16
ENDBRANCH   5  14
BRANCH   6  22
ATOM     22  C   UNL     1     -10.318   1.101 123.365  0.00  0.00    +0.000 C 
ATOM     23  O   UNL     1     -10.530   0.653 122.255  0.00  0.00    +0.000 OA
BRANCH  22  24
ATOM     24  O   UNL     1     -11.412   1.455 124.045  0.00  0.00    +0.000 OA
ATOM     25  H   UNL     1     -12.179   0.947 123.866  0.00  0.00    +0.000 HD
ENDBRANCH  22  24
ENDBRANCH   6  22
TORSDOF 7
ENDMDL
MODEL 4
REMARK VINA RESULT:      -6.1      1.748      2.198
REMARK  Name = Furosemide
REMARK  7 active torsions:
REMARK  status: ('A' for Active; 'I' for Inactive)
REMARK    1  A    between atoms: N_1  and  S_2
REMARK    2  A    between atoms: S_2  and  C_5
REMARK    3  A    between atoms: C_9  and  N_10
REMARK    4  A    between atoms: N_10  and  C_11
REMARK    5  A    between atoms: C_11  and  C_12
REMARK    6  A    between atoms: C_17  and  C_19
REMARK    7  A    between atoms: C_19  and  O_20
REMARK                            x       y       z     vdW  Elec       q    Type
REMARK                         _______ _______ _______ _____ _____    ______ ____
ROOT
ATOM      1  C   UNL     1     -10.634   6.584 129.382  0.00  0.00    +0.000 A 
ATOM      2  C   UNL     1     -11.394   6.869 130.494  0.00  0.00    +0.000 A 
ATOM      3 CL   UNL     1     -12.798   7.866 130.538  0.00  0.00    +0.000 Cl
ATOM      4  C   UNL     1     -11.023   6.306 131.726  0.00  0.00    +0.000 A 
ATOM      5  C   UNL     1      -9.898   5.452 131.927  0.00  0.00    +0.000 A 
ATOM      6  C   UNL     1      -9.093   5.159 130.773  0.00  0.00    +0.000 A 
ATOM      7  C   UNL     1      -9.509   5.749 129.535  0.00  0.00    +0.000 A 
ENDROOT
BRANCH   1   8
ATOM      8  S   UNL     1     -10.950   7.193 127.745  0.00  0.00    +0.000 S 
ATOM      9  O   UNL     1     -10.599   8.595 127.728  0.00  0.00    +0.000 OA
ATOM     10  O   UNL     1     -12.260   6.729 127.354  0.00  0.00    +0.000 OA
BRANCH   8  11
ATOM     11  N   UNL     1      -9.903   6.425 126.696  0.00  0.00    +0.000 NA
ATOM     12  H   UNL     1      -9.899   6.844 125.766  0.00  0.00    +0.000 HD
ATOM     13  H   UNL     1      -9.962   5.410 126.706  0.00  0.00    +0.000 HD
ENDBRANCH   8  11
ENDBRANCH   1   8
BRANCH   5  14
ATOM     14  N   UNL     1      -9.796   5.045 133.263  0.00  0.00    +0.000 N 
ATOM     15  H   UNL     1      -9.919   5.699 134.032  0.00  0.00    +0.000 HD
BRANCH  14  16
ATOM     16  C   UNL     1      -9.498   3.713 133.636  0.00  0.00    +0.000 C 
BRANCH  16  17
ATOM     17  C   UNL     1      -8.214   3.033 133.726  0.00  0.00    +0.000 A 
ATOM     18  C   UNL     1      -7.044   3.502 134.292  0.00  0.00    +0.000 A 
ATOM     19  C   UNL     1      -6.111   2.467 134.118  0.00  0.00    +0.000 A 
ATOM     20  C   UNL     1      -6.782   1.452 133.474  0.00  0.00    +0.000 A 
ATOM     21  O   UNL     1      -8.075   1.790 133.233  0.00  0.00    +0.000 OA
ENDBRANCH  16  17
ENDBRANCH  14  16
ENDBRANCH   5  14
BRANCH   6  22
ATOM     22  C   UNL     1      -7.815   4.326 130.487  0.00  0.00    +0.000 C 
ATOM     23  O   UNL     1      -6.729   4.860 130.365  0.00  0.00    +0.000 OA
BRANCH  22  24
ATOM     24  O   UNL     1      -7.802   2.995 130.366  0.00  0.00    +0.000 OA
ATOM     25  H   UNL     1      -7.435   2.667 129.567  0.00  0.00    +0.000 HD
ENDBRANCH  22  24
ENDBRANCH   6  22
TORSDOF 7
ENDMDL
MODEL 5
REMARK VINA RESULT:      -6.0      1.389      1.936
REMARK  Name = Furosemide
REMARK  7 active torsions:
REMARK  status: ('A' for Active; 'I' for Inactive)
REMARK    1  A    between atoms: N_1  and  S_2
REMARK    2  A    between atoms: S_2  and  C_5
REMARK    3  A    between atoms: C_9  and  N_10
REMARK    4  A    between atoms: N_10  and  C_11
REMARK    5  A    between atoms: C_11  and  C_12
REMARK    6  A    between atoms: C_17  and  C_19
REMARK    7  A    between atoms: C_19  and  O_20
REMARK                            x       y       z     vdW  Elec       q    Type
REMARK                         _______ _______ _______ _____ _____    ______ ____
ROOT
ATOM      1  C   UNL     1     -10.978   7.395 129.882  0.00  0.00    +0.000 A 
ATOM      2  C   UNL     1     -11.862   7.027 130.871  0.00  0.00    +0.000 A 
ATOM      3 CL   UNL     1     -13.564   7.299 130.865  0.00  0.00    +0.000 Cl
ATOM      4  C   UNL     1     -11.369   6.360 132.003  0.00  0.00    +0.000 A 
ATOM      5  C   UNL     1      -9.998   6.030 132.222  0.00  0.00    +0.000 A 
ATOM      6  C   UNL     1      -9.066   6.420 131.200  0.00  0.00    +0.000 A 
ATOM      7  C   UNL     1      -9.612   7.094 130.059  0.00  0.00    +0.000 A 
ENDROOT
BRANCH   1   8
ATOM      8  S   UNL     1     -11.414   8.234 128.380  0.00  0.00    +0.000 S 
ATOM      9  O   UNL     1     -12.233   7.334 127.602  0.00  0.00    +0.000 OA
ATOM     10  O   UNL     1     -10.209   8.826 127.847  0.00  0.00    +0.000 OA
BRANCH   8  11
ATOM     11  N   UNL     1     -12.380   9.537 128.778  0.00  0.00    +0.000 NA
ATOM     12  H   UNL     1     -12.712   9.501 129.741  0.00  0.00    +0.000 HD
ATOM     13  H   UNL     1     -13.093   9.762 128.089  0.00  0.00    +0.000 HD
ENDBRANCH   8  11
ENDBRANCH   1   8
BRANCH   5  14
ATOM     14  N   UNL     1      -9.820   5.358 133.438  0.00  0.00    +0.000 N 
ATOM     15  H   UNL     1     -10.142   5.753 134.319  0.00  0.00    +0.000 HD
BRANCH  14  16
ATOM     16  C   UNL     1      -9.171   4.105 133.532  0.00  0.00    +0.000 C 
BRANCH  16  17
ATOM     17  C   UNL     1      -7.873   3.765 134.097  0.00  0.00    +0.000 A 
ATOM     18  C   UNL     1      -7.102   2.647 133.841  0.00  0.00    +0.000 A 
ATOM     19  C   UNL     1      -5.954   2.802 134.634  0.00  0.00    +0.000 A 
ATOM     20  C   UNL     1      -6.108   3.997 135.300  0.00  0.00    +0.000 A 
ATOM     21  O   UNL     1      -7.282   4.597 134.973  0.00  0.00    +0.000 OA
ENDBRANCH  16  17
ENDBRANCH  14  16
ENDBRANCH   5  14
BRANCH   6  22
ATOM     22  C   UNL     1      -7.533   6.303 130.984  0.00  0.00    +0.000 C 
ATOM     23  O   UNL     1      -6.974   5.224 131.012  0.00  0.00    +0.000 OA
BRANCH  22  24
ATOM     24  O   UNL     1      -6.730   7.345 130.749  0.00  0.00    +0.000 OA
ATOM     25  H   UNL     1      -5.820   7.138 130.653  0.00  0.00    +0.000 HD
ENDBRANCH  22  24
ENDBRANCH   6  22
TORSDOF 7
ENDMDL
MODEL 6
REMARK VINA RESULT:      -6.0      8.929     10.661
REMARK  Name = Furosemide
REMARK  7 active torsions:
REMARK  status: ('A' for Active; 'I' for Inactive)
REMARK    1  A    between atoms: N_1  and  S_2
REMARK    2  A    between atoms: S_2  and  C_5
REMARK    3  A    between atoms: C_9  and  N_10
REMARK    4  A    between atoms: N_10  and  C_11
REMARK    5  A    between atoms: C_11  and  C_12
REMARK    6  A    between atoms: C_17  and  C_19
REMARK    7  A    between atoms: C_19  and  O_20
REMARK                            x       y       z     vdW  Elec       q    Type
REMARK                         _______ _______ _______ _____ _____    ______ ____
ROOT
ATOM      1  C   UNL     1      -8.029  -1.458 125.156  0.00  0.00    +0.000 A 
ATOM      2  C   UNL     1      -6.886  -0.999 125.771  0.00  0.00    +0.000 A 
ATOM      3 CL   UNL     1      -5.726  -1.960 126.608  0.00  0.00    +0.000 Cl
ATOM      4  C   UNL     1      -6.602   0.375 125.728  0.00  0.00    +0.000 A 
ATOM      5  C   UNL     1      -7.419   1.357 125.092  0.00  0.00    +0.000 A 
ATOM      6  C   UNL     1      -8.620   0.888 124.457  0.00  0.00    +0.000 A 
ATOM      7  C   UNL     1      -8.869  -0.522 124.520  0.00  0.00    +0.000 A 
ENDROOT
BRANCH   1   8
ATOM      8  S   UNL     1      -8.548  -3.154 125.098  0.00  0.00    +0.000 S 
ATOM      9  O   UNL     1      -9.675  -3.233 124.197  0.00  0.00    +0.000 OA
ATOM     10  O   UNL     1      -8.622  -3.633 126.459  0.00  0.00    +0.000 OA
BRANCH   8  11
ATOM     11  N   UNL     1      -7.319  -4.048 124.407  0.00  0.00    +0.000 NA
ATOM     12  H   UNL     1      -7.621  -4.558 123.577  0.00  0.00    +0.000 HD
ATOM     13  H   UNL     1      -6.769  -4.594 125.066  0.00  0.00    +0.000 HD
ENDBRANCH   8  11
ENDBRANCH   1   8
BRANCH   5  14
ATOM     14  N   UNL     1      -6.867   2.639 125.211  0.00  0.00    +0.000 N 
ATOM     15  H   UNL     1      -6.377   2.934 126.053  0.00  0.00    +0.000 HD
BRANCH  14  16
ATOM     16  C   UNL     1      -6.965   3.612 124.189  0.00  0.00    +0.000 C 
BRANCH  16  17
ATOM     17  C   UNL     1      -6.191   3.763 122.966  0.00  0.00    +0.000 A 
ATOM     18  C   UNL     1      -6.257   2.995 121.819  0.00  0.00    +0.000 A 
ATOM     19  C   UNL     1      -5.311   3.555 120.946  0.00  0.00    +0.000 A 
ATOM     20  C   UNL     1      -4.752   4.618 121.619  0.00  0.00    +0.000 A 
ATOM     21  O   UNL     1      -5.289   4.755 122.859  0.00  0.00    +0.000 OA
ENDBRANCH  16  17
ENDBRANCH  14  16
ENDBRANCH   5  14
BRANCH   6  22
ATOM     22  C   UNL     1      -9.794   1.535 123.674  0.00  0.00    +0.000 C 
ATOM     23  O   UNL     1      -9.603   2.124 122.627  0.00  0.00    +0.000 OA
BRANCH  22  24
ATOM     24  O   UNL     1     -11.070   1.493 124.069  0.00  0.00    +0.000 OA
ATOM     25  H   UNL     1     -11.684   1.216 123.417  0.00  0.00    +0.000 HD
ENDBRANCH  22  24
ENDBRANCH   6  22
TORSDOF 7
ENDMDL
MODEL 7
REMARK VINA RESULT:      -5.9      7.762      8.975
REMARK  Name = Furosemide
REMARK  7 active torsions:
REMARK  status: ('A' for Active; 'I' for Inactive)
REMARK    1  A    between atoms: N_1  and  S_2
REMARK    2  A    between atoms: S_2  and  C_5
REMARK    3  A    between atoms: C_9  and  N_10
REMARK    4  A    between atoms: N_10  and  C_11
REMARK    5  A    between atoms: C_11  and  C_12
REMARK    6  A    between atoms: C_17  and  C_19
REMARK    7  A    between atoms: C_19  and  O_20
REMARK                            x       y       z     vdW  Elec       q    Type
REMARK                         _______ _______ _______ _____ _____    ______ ____
ROOT
ATOM      1  C   UNL     1      -8.481   1.839 123.786  0.00  0.00    +0.000 A 
ATOM      2  C   UNL     1      -7.996   1.911 125.073  0.00  0.00    +0.000 A 
ATOM      3 CL   UNL     1      -8.668   1.134 126.457  0.00  0.00    +0.000 Cl
ATOM      4  C   UNL     1      -6.845   2.676 125.319  0.00  0.00    +0.000 A 
ATOM      5  C   UNL     1      -6.123   3.404 124.327  0.00  0.00    +0.000 A 
ATOM      6  C   UNL     1      -6.629   3.344 122.983  0.00  0.00    +0.000 A 
ATOM      7  C   UNL     1      -7.802   2.548 122.775  0.00  0.00    +0.000 A 
ENDROOT
BRANCH   1   8
ATOM      8  S   UNL     1      -9.913   0.920 123.283  0.00  0.00    +0.000 S 
ATOM      9  O   UNL     1     -10.054   1.084 121.854  0.00  0.00    +0.000 OA
ATOM     10  O   UNL     1     -10.982   1.245 124.199  0.00  0.00    +0.000 OA
BRANCH   8  11
ATOM     11  N   UNL     1      -9.609  -0.700 123.551  0.00  0.00    +0.000 NA
ATOM     12  H   UNL     1     -10.009  -1.036 124.427  0.00  0.00    +0.000 HD
ATOM     13  H   UNL     1      -8.646  -0.983 123.385  0.00  0.00    +0.000 HD
ENDBRANCH   8  11
ENDBRANCH   1   8
BRANCH   5  14
ATOM     14  N   UNL     1      -5.015   4.060 124.878  0.00  0.00    +0.000 N 
ATOM     15  H   UNL     1      -4.411   4.654 124.315  0.00  0.00    +0.000 HD
BRANCH  14  16
ATOM     16  C   UNL     1      -4.649   3.932 126.239  0.00  0.00    +0.000 C 
BRANCH  16  17
ATOM     17  C   UNL     1      -3.919   4.852 127.100  0.00  0.00    +0.000 A 
ATOM     18  C   UNL     1      -2.698   4.650 127.715  0.00  0.00    +0.000 A 
ATOM     19  C   UNL     1      -2.444   5.835 128.424  0.00  0.00    +0.000 A 
ATOM     20  C   UNL     1      -3.516   6.663 128.182  0.00  0.00    +0.000 A 
ATOM     21  O   UNL     1      -4.425   6.069 127.366  0.00  0.00    +0.000 OA
ENDBRANCH  16  17
ENDBRANCH  14  16
ENDBRANCH   5  14
BRANCH   6  22
ATOM     22  C   UNL     1      -6.222   3.945 121.611  0.00  0.00    +0.000 C 
ATOM     23  O   UNL     1      -6.827   3.660 120.595  0.00  0.00    +0.000 OA
BRANCH  22  24
ATOM     24  O   UNL     1      -5.213   4.804 121.440  0.00  0.00    +0.000 OA
ATOM     25  H   UNL     1      -4.848   5.158 122.228  0.00  0.00    +0.000 HD
ENDBRANCH  22  24
ENDBRANCH   6  22
TORSDOF 7
ENDMDL
MODEL 8
REMARK VINA RESULT:      -5.8      3.517      4.786
REMARK  Name = Furosemide
REMARK  7 active torsions:
REMARK  status: ('A' for Active; 'I' for Inactive)
REMARK    1  A    between atoms: N_1  and  S_2
REMARK    2  A    between atoms: S_2  and  C_5
REMARK    3  A    between atoms: C_9  and  N_10
REMARK    4  A    between atoms: N_10  and  C_11
REMARK    5  A    between atoms: C_11  and  C_12
REMARK    6  A    between atoms: C_17  and  C_19
REMARK    7  A    between atoms: C_19  and  O_20
REMARK                            x       y       z     vdW  Elec       q    Type
REMARK                         _______ _______ _______ _____ _____    ______ ____
ROOT
ATOM      1  C   UNL     1      -5.532   6.590 131.740  0.00  0.00    +0.000 A 
ATOM      2  C   UNL     1      -5.469   5.934 132.949  0.00  0.00    +0.000 A 
ATOM      3 CL   UNL     1      -4.034   5.550 133.823  0.00  0.00    +0.000 Cl
ATOM      4  C   UNL     1      -6.666   5.529 133.560  0.00  0.00    +0.000 A 
ATOM      5  C   UNL     1      -7.969   5.739 133.019  0.00  0.00    +0.000 A 
ATOM      6  C   UNL     1      -8.044   6.413 131.752  0.00  0.00    +0.000 A 
ATOM      7  C   UNL     1      -6.800   6.814 131.166  0.00  0.00    +0.000 A 
ENDROOT
BRANCH   1   8
ATOM      8  S   UNL     1      -4.133   7.183 130.823  0.00  0.00    +0.000 S 
ATOM      9  O   UNL     1      -3.580   6.060 130.101  0.00  0.00    +0.000 OA
ATOM     10  O   UNL     1      -3.333   7.983 131.722  0.00  0.00    +0.000 OA
BRANCH   8  11
ATOM     11  N   UNL     1      -4.685   8.265 129.678  0.00  0.00    +0.000 NA
ATOM     12  H   UNL     1      -4.722   7.863 128.742  0.00  0.00    +0.000 HD
ATOM     13  H   UNL     1      -4.262   9.188 129.729  0.00  0.00    +0.000 HD
ENDBRANCH   8  11
ENDBRANCH   1   8
BRANCH   5  14
ATOM     14  N   UNL     1      -8.963   5.230 133.865  0.00  0.00    +0.000 N 
ATOM     15  H   UNL     1      -9.568   5.842 134.408  0.00  0.00    +0.000 HD
BRANCH  14  16
ATOM     16  C   UNL     1      -9.184   3.843 134.038  0.00  0.00    +0.000 C 
BRANCH  16  17
ATOM     17  C   UNL     1      -9.001   2.745 133.101  0.00  0.00    +0.000 A 
ATOM     18  C   UNL     1      -9.689   2.507 131.927  0.00  0.00    +0.000 A 
ATOM     19  C   UNL     1      -9.131   1.330 131.404  0.00  0.00    +0.000 A 
ATOM     20  C   UNL     1      -8.147   0.949 132.289  0.00  0.00    +0.000 A 
ATOM     21  O   UNL     1      -8.058   1.814 133.332  0.00  0.00    +0.000 OA
ENDBRANCH  16  17
ENDBRANCH  14  16
ENDBRANCH   5  14
BRANCH   6  22
ATOM     22  C   UNL     1      -9.179   6.850 130.787  0.00  0.00    +0.000 C 
ATOM     23  O   UNL     1      -8.959   7.603 129.858  0.00  0.00    +0.000 OA
BRANCH  22  24
ATOM     24  O   UNL     1     -10.447   6.441 130.890  0.00  0.00    +0.000 OA
ATOM     25  H   UNL     1     -10.895   6.312 130.077  0.00  0.00    +0.000 HD
ENDBRANCH  22  24
ENDBRANCH   6  22
TORSDOF 7
ENDMDL
MODEL 9
REMARK VINA RESULT:      -5.8      9.057     10.859
REMARK  Name = Furosemide
REMARK  7 active torsions:
REMARK  status: ('A' for Active; 'I' for Inactive)
REMARK    1  A    between atoms: N_1  and  S_2
REMARK    2  A    between atoms: S_2  and  C_5
REMARK    3  A    between atoms: C_9  and  N_10
REMARK    4  A    between atoms: N_10  and  C_11
REMARK    5  A    between atoms: C_11  and  C_12
REMARK    6  A    between atoms: C_17  and  C_19
REMARK    7  A    between atoms: C_19  and  O_20
REMARK                            x       y       z     vdW  Elec       q    Type
REMARK                         _______ _______ _______ _____ _____    ______ ____
ROOT
ATOM      1  C   UNL     1      -7.966  -1.314 124.995  0.00  0.00    +0.000 A 
ATOM      2  C   UNL     1      -8.372  -0.699 123.831  0.00  0.00    +0.000 A 
ATOM      3 CL   UNL     1      -9.552  -1.296 122.725  0.00  0.00    +0.000 Cl
ATOM      4  C   UNL     1      -7.799   0.534 123.484  0.00  0.00    +0.000 A 
ATOM      5  C   UNL     1      -6.805   1.215 124.248  0.00  0.00    +0.000 A 
ATOM      6  C   UNL     1      -6.366   0.575 125.458  0.00  0.00    +0.000 A 
ATOM      7  C   UNL     1      -6.981  -0.679 125.778  0.00  0.00    +0.000 A 
ENDROOT
BRANCH   1   8
ATOM      8  S   UNL     1      -8.581  -2.865 125.601  0.00  0.00    +0.000 S 
ATOM      9  O   UNL     1      -7.966  -3.911 124.817  0.00  0.00    +0.000 OA
ATOM     10  O   UNL     1     -10.015  -2.745 125.724  0.00  0.00    +0.000 OA
BRANCH   8  11
ATOM     11  N   UNL     1      -8.040  -3.059 127.168  0.00  0.00    +0.000 NA
ATOM     12  H   UNL     1      -8.101  -4.024 127.489  0.00  0.00    +0.000 HD
ATOM     13  H   UNL     1      -8.391  -2.367 127.826  0.00  0.00    +0.000 HD
ENDBRANCH   8  11
ENDBRANCH   1   8
BRANCH   5  14
ATOM     14  N   UNL     1      -6.437   2.426 123.647  0.00  0.00    +0.000 N 
ATOM     15  H   UNL     1      -5.637   2.963 123.974  0.00  0.00    +0.000 HD
BRANCH  14  16
ATOM     16  C   UNL     1      -7.155   2.993 122.568  0.00  0.00    +0.000 C 
BRANCH  16  17
ATOM     17  C   UNL     1      -6.669   3.709 121.398  0.00  0.00    +0.000 A 
ATOM     18  C   UNL     1      -5.410   4.239 121.189  0.00  0.00    +0.000 A 
ATOM     19  C   UNL     1      -5.462   4.821 119.912  0.00  0.00    +0.000 A 
ATOM     20  C   UNL     1      -6.736   4.594 119.441  0.00  0.00    +0.000 A 
ATOM     21  O   UNL     1      -7.482   3.908 120.345  0.00  0.00    +0.000 OA
ENDBRANCH  16  17
ENDBRANCH  14  16
ENDBRANCH   5  14
BRANCH   6  22
ATOM     22  C   UNL     1      -5.343   0.894 126.580  0.00  0.00    +0.000 C 
ATOM     23  O   UNL     1      -5.564   0.594 127.738  0.00  0.00    +0.000 OA
BRANCH  22  24
ATOM     24  O   UNL     1      -4.169   1.497 126.372  0.00  0.00    +0.000 OA
ATOM     25  H   UNL     1      -3.439   0.924 126.239  0.00  0.00    +0.000 HD
ENDBRANCH  22  24
ENDBRANCH   6  22
TORSDOF 7
ENDMDL
