MODEL 1
REMARK VINA RESULT:      -8.0      0.000      0.000
REMARK  Name = Fursultiamine
REMARK  13 active torsions:
REMARK  status: ('A' for Active; 'I' for Inactive)
REMARK    1  A    between atoms: C_1  and  C_2
REMARK    2  A    between atoms: C_2  and  N_3
REMARK    3  A    between atoms: N_3  and  C_4
REMARK    4  A    between atoms: C_4  and  C_5
REMARK    5  A    between atoms: C_6  and  N_7
REMARK    6  A    between atoms: C_9  and  C_10
REMARK    7  A    between atoms: C_15  and  C_16
REMARK    8  A    between atoms: C_15  and  S_19
REMARK    9  A    between atoms: C_16  and  C_17
REMARK   10  A    between atoms: C_17  and  O_18
REMARK   11  A    between atoms: S_19  and  S_20
REMARK   12  A    between atoms: S_20  and  C_21
REMARK   13  A    between atoms: C_21  and  C_22
REMARK                            x       y       z     vdW  Elec       q    Type
REMARK                         _______ _______ _______ _____ _____    ______ ____
ROOT
ATOM      1  C   UNL     1      -5.092   1.979 126.225  0.00  0.00    +0.000 C 
ATOM      2  C   UNL     1      -6.351   2.200 125.535  0.00  0.00    +0.000 C 
ATOM      3  C   UNL     1      -7.038   1.128 125.171  0.00  0.00    +0.000 C 
ENDROOT
BRANCH   2   4
ATOM      4  N   UNL     1      -6.759   3.422 125.114  0.00  0.00    +0.000 N 
ATOM      5  C   UNL     1      -7.970   4.061 125.483  0.00  0.00    +0.000 C 
ATOM      6  O   UNL     1      -8.254   5.244 125.304  0.00  0.00    +0.000 OA
BRANCH   4   7
ATOM      7  C   UNL     1      -5.900   4.203 124.236  0.00  0.00    +0.000 C 
BRANCH   7   8
ATOM      8  C   UNL     1      -5.673   4.123 122.248  0.00  0.00    +0.000 A 
ATOM      9  C   UNL     1      -7.058   3.837 121.029  0.00  0.00    +0.000 A 
ATOM     10  N   UNL     1      -7.059   4.294 119.867  0.00  0.00    +0.000 NA
ATOM     11  C   UNL     1      -5.920   4.961 119.753  0.00  0.00    +0.000 A 
ATOM     12  C   UNL     1      -6.012   5.684 118.512  0.00  0.00    +0.000 C 
ATOM     13  N   UNL     1      -4.744   5.229 120.579  0.00  0.00    +0.000 NA
ATOM     14  C   UNL     1      -4.641   4.792 121.848  0.00  0.00    +0.000 A 
BRANCH   9  15
ATOM     15  N   UNL     1      -8.604   3.470 121.393  0.00  0.00    +0.000 N 
ATOM     16  H   UNL     1      -9.365   3.457 120.685  0.00  0.00    +0.000 HD
ATOM     17  H   UNL     1      -9.057   3.733 122.253  0.00  0.00    +0.000 HD
ENDBRANCH   9  15
ENDBRANCH   7   8
ENDBRANCH   4   7
ENDBRANCH   2   4
BRANCH   3  18
ATOM     18  C   UNL     1      -7.903   1.339 123.917  0.00  0.00    +0.000 C 
BRANCH  18  19
ATOM     19  C   UNL     1      -9.649   0.454 123.134  0.00  0.00    +0.000 C 
BRANCH  19  20
ATOM     20  O   UNL     1     -10.138  -1.027 122.814  0.00  0.00    +0.000 OA
ATOM     21  H   UNL     1      -9.843  -1.419 121.971  0.00  0.00    +0.000 HD
ENDBRANCH  19  20
ENDBRANCH  18  19
ENDBRANCH   3  18
BRANCH   3  22
ATOM     22  S   UNL     1      -6.809  -0.443 126.154  0.00  0.00    +0.000 S 
BRANCH  22  23
ATOM     23  S   UNL     1      -8.524  -1.521 126.067  0.00  0.00    +0.000 S 
BRANCH  23  24
ATOM     24  C   UNL     1      -8.400  -3.206 125.284  0.00  0.00    +0.000 C 
BRANCH  24  25
ATOM     25  C   UNL     1      -7.470  -3.329 124.013  0.00  0.00    +0.000 C 
ATOM     26  C   UNL     1      -5.995  -3.511 124.347  0.00  0.00    +0.000 C 
ATOM     27  C   UNL     1      -5.263  -2.912 123.168  0.00  0.00    +0.000 C 
ATOM     28  C   UNL     1      -6.204  -1.871 122.669  0.00  0.00    +0.000 C 
ATOM     29  O   UNL     1      -7.535  -2.253 123.057  0.00  0.00    +0.000 OA
ENDBRANCH  24  25
ENDBRANCH  23  24
ENDBRANCH  22  23
ENDBRANCH   3  22
TORSDOF 11
ENDMDL
MODEL 2
REMARK VINA RESULT:      -7.0      2.230      3.418
REMARK  Name = Fursultiamine
REMARK  13 active torsions:
REMARK  status: ('A' for Active; 'I' for Inactive)
REMARK    1  A    between atoms: C_1  and  C_2
REMARK    2  A    between atoms: C_2  and  N_3
REMARK    3  A    between atoms: N_3  and  C_4
REMARK    4  A    between atoms: C_4  and  C_5
REMARK    5  A    between atoms: C_6  and  N_7
REMARK    6  A    between atoms: C_9  and  C_10
REMARK    7  A    between atoms: C_15  and  C_16
REMARK    8  A    between atoms: C_15  and  S_19
REMARK    9  A    between atoms: C_16  and  C_17
REMARK   10  A    between atoms: C_17  and  O_18
REMARK   11  A    between atoms: S_19  and  S_20
REMARK   12  A    between atoms: S_20  and  C_21
REMARK   13  A    between atoms: C_21  and  C_22
REMARK                            x       y       z     vdW  Elec       q    Type
REMARK                         _______ _______ _______ _____ _____    ______ ____
ROOT
ATOM      1  C   UNL     1      -8.574   1.192 126.733  0.00  0.00    +0.000 C 
ATOM      2  C   UNL     1      -7.287   1.865 126.706  0.00  0.00    +0.000 C 
ATOM      3  C   UNL     1      -6.210   1.104 126.588  0.00  0.00    +0.000 C 
ENDROOT
BRANCH   2   4
ATOM      4  N   UNL     1      -7.138   3.188 126.956  0.00  0.00    +0.000 N 
ATOM      5  C   UNL     1      -7.170   3.796 128.236  0.00  0.00    +0.000 C 
ATOM      6  O   UNL     1      -6.814   4.941 128.509  0.00  0.00    +0.000 OA
BRANCH   4   7
ATOM      7  C   UNL     1      -6.883   4.103 125.852  0.00  0.00    +0.000 C 
BRANCH   7   8
ATOM      8  C   UNL     1      -6.245   3.731 123.990  0.00  0.00    +0.000 A 
ATOM      9  C   UNL     1      -7.320   3.089 122.605  0.00  0.00    +0.000 A 
ATOM     10  N   UNL     1      -7.120   3.349 121.400  0.00  0.00    +0.000 NA
ATOM     11  C   UNL     1      -6.044   4.120 121.384  0.00  0.00    +0.000 A 
ATOM     12  C   UNL     1      -5.939   4.617 120.037  0.00  0.00    +0.000 C 
ATOM     13  N   UNL     1      -5.089   4.656 122.354  0.00  0.00    +0.000 NA
ATOM     14  C   UNL     1      -5.214   4.445 123.678  0.00  0.00    +0.000 A 
BRANCH   9  15
ATOM     15  N   UNL     1      -8.872   2.603 122.733  0.00  0.00    +0.000 N 
ATOM     16  H   UNL     1      -9.165   1.611 122.635  0.00  0.00    +0.000 HD
ATOM     17  H   UNL     1      -9.657   3.138 122.399  0.00  0.00    +0.000 HD
ENDBRANCH   9  15
ENDBRANCH   7   8
ENDBRANCH   4   7
ENDBRANCH   2   4
BRANCH   3  18
ATOM     18  C   UNL     1      -4.952   1.699 127.244  0.00  0.00    +0.000 C 
BRANCH  18  19
ATOM     19  C   UNL     1      -3.248   2.734 126.556  0.00  0.00    +0.000 C 
BRANCH  19  20
ATOM     20  O   UNL     1      -1.673   2.522 126.633  0.00  0.00    +0.000 OA
ATOM     21  H   UNL     1      -1.214   2.296 125.802  0.00  0.00    +0.000 HD
ENDBRANCH  19  20
ENDBRANCH  18  19
ENDBRANCH   3  18
BRANCH   3  22
ATOM     22  S   UNL     1      -6.384  -0.549 125.737  0.00  0.00    +0.000 S 
BRANCH  22  23
ATOM     23  S   UNL     1      -6.623  -1.986 127.149  0.00  0.00    +0.000 S 
BRANCH  23  24
ATOM     24  C   UNL     1      -8.319  -2.744 127.276  0.00  0.00    +0.000 C 
BRANCH  24  25
ATOM     25  C   UNL     1      -9.088  -2.989 125.917  0.00  0.00    +0.000 C 
ATOM     26  C   UNL     1      -8.277  -3.756 124.882  0.00  0.00    +0.000 C 
ATOM     27  C   UNL     1      -8.815  -3.284 123.551  0.00  0.00    +0.000 C 
ATOM     28  C   UNL     1      -9.288  -1.901 123.840  0.00  0.00    +0.000 C 
ATOM     29  O   UNL     1      -9.598  -1.823 125.243  0.00  0.00    +0.000 OA
ENDBRANCH  24  25
ENDBRANCH  23  24
ENDBRANCH  22  23
ENDBRANCH   3  22
TORSDOF 11
ENDMDL
MODEL 3
REMARK VINA RESULT:      -6.9      3.773      6.729
REMARK  Name = Fursultiamine
REMARK  13 active torsions:
REMARK  status: ('A' for Active; 'I' for Inactive)
REMARK    1  A    between atoms: C_1  and  C_2
REMARK    2  A    between atoms: C_2  and  N_3
REMARK    3  A    between atoms: N_3  and  C_4
REMARK    4  A    between atoms: C_4  and  C_5
REMARK    5  A    between atoms: C_6  and  N_7
REMARK    6  A    between atoms: C_9  and  C_10
REMARK    7  A    between atoms: C_15  and  C_16
REMARK    8  A    between atoms: C_15  and  S_19
REMARK    9  A    between atoms: C_16  and  C_17
REMARK   10  A    between atoms: C_17  and  O_18
REMARK   11  A    between atoms: S_19  and  S_20
REMARK   12  A    between atoms: S_20  and  C_21
REMARK   13  A    between atoms: C_21  and  C_22
REMARK                            x       y       z     vdW  Elec       q    Type
REMARK                         _______ _______ _______ _____ _____    ______ ____
ROOT
ATOM      1  C   UNL     1      -3.100   2.987 126.255  0.00  0.00    +0.000 C 
ATOM      2  C   UNL     1      -4.470   3.468 126.229  0.00  0.00    +0.000 C 
ATOM      3  C   UNL     1      -4.957   3.967 127.355  0.00  0.00    +0.000 C 
ENDROOT
BRANCH   2   4
ATOM      4  N   UNL     1      -5.301   3.280 125.175  0.00  0.00    +0.000 N 
ATOM      5  C   UNL     1      -6.087   2.124 124.938  0.00  0.00    +0.000 C 
ATOM      6  O   UNL     1      -7.007   2.022 124.128  0.00  0.00    +0.000 OA
BRANCH   4   7
ATOM      7  C   UNL     1      -5.465   4.342 124.193  0.00  0.00    +0.000 C 
BRANCH   7   8
ATOM      8  C   UNL     1      -5.320   4.287 122.196  0.00  0.00    +0.000 A 
ATOM      9  C   UNL     1      -6.728   3.891 121.037  0.00  0.00    +0.000 A 
ATOM     10  N   UNL     1      -6.818   4.350 119.879  0.00  0.00    +0.000 NA
ATOM     11  C   UNL     1      -5.745   5.109 119.720  0.00  0.00    +0.000 A 
ATOM     12  C   UNL     1      -5.951   5.825 118.489  0.00  0.00    +0.000 C 
ATOM     13  N   UNL     1      -4.559   5.472 120.496  0.00  0.00    +0.000 NA
ATOM     14  C   UNL     1      -4.365   5.041 121.757  0.00  0.00    +0.000 A 
BRANCH   9  15
ATOM     15  N   UNL     1      -8.222   3.395 121.466  0.00  0.00    +0.000 N 
ATOM     16  H   UNL     1      -8.707   2.597 121.010  0.00  0.00    +0.000 HD
ATOM     17  H   UNL     1      -8.961   4.018 121.749  0.00  0.00    +0.000 HD
ENDBRANCH   9  15
ENDBRANCH   7   8
ENDBRANCH   4   7
ENDBRANCH   2   4
BRANCH   3  18
ATOM     18  C   UNL     1      -6.479   3.800 127.503  0.00  0.00    +0.000 C 
BRANCH  18  19
ATOM     19  C   UNL     1      -8.177   4.602 126.543  0.00  0.00    +0.000 C 
BRANCH  19  20
ATOM     20  O   UNL     1      -8.463   5.802 125.537  0.00  0.00    +0.000 OA
ATOM     21  H   UNL     1      -8.193   5.675 124.608  0.00  0.00    +0.000 HD
ENDBRANCH  19  20
ENDBRANCH  18  19
ENDBRANCH   3  18
BRANCH   3  22
ATOM     22  S   UNL     1      -3.762   4.708 128.582  0.00  0.00    +0.000 S 
BRANCH  22  23
ATOM     23  S   UNL     1      -4.735   5.016 130.335  0.00  0.00    +0.000 S 
BRANCH  23  24
ATOM     24  C   UNL     1      -5.244   6.770 130.699  0.00  0.00    +0.000 C 
BRANCH  24  25
ATOM     25  C   UNL     1      -6.689   6.977 131.301  0.00  0.00    +0.000 C 
ATOM     26  C   UNL     1      -7.295   5.711 131.894  0.00  0.00    +0.000 C 
ATOM     27  C   UNL     1      -8.787   5.897 131.744  0.00  0.00    +0.000 C 
ATOM     28  C   UNL     1      -8.908   6.771 130.543  0.00  0.00    +0.000 C 
ATOM     29  O   UNL     1      -7.687   7.522 130.416  0.00  0.00    +0.000 OA
ENDBRANCH  24  25
ENDBRANCH  23  24
ENDBRANCH  22  23
ENDBRANCH   3  22
TORSDOF 11
ENDMDL
MODEL 4
REMARK VINA RESULT:      -6.9      4.132      8.178
REMARK  Name = Fursultiamine
REMARK  13 active torsions:
REMARK  status: ('A' for Active; 'I' for Inactive)
REMARK    1  A    between atoms: C_1  and  C_2
REMARK    2  A    between atoms: C_2  and  N_3
REMARK    3  A    between atoms: N_3  and  C_4
REMARK    4  A    between atoms: C_4  and  C_5
REMARK    5  A    between atoms: C_6  and  N_7
REMARK    6  A    between atoms: C_9  and  C_10
REMARK    7  A    between atoms: C_15  and  C_16
REMARK    8  A    between atoms: C_15  and  S_19
REMARK    9  A    between atoms: C_16  and  C_17
REMARK   10  A    between atoms: C_17  and  O_18
REMARK   11  A    between atoms: S_19  and  S_20
REMARK   12  A    between atoms: S_20  and  C_21
REMARK   13  A    between atoms: C_21  and  C_22
REMARK                            x       y       z     vdW  Elec       q    Type
REMARK                         _______ _______ _______ _____ _____    ______ ____
ROOT
ATOM      1  C   UNL     1      -5.733   0.832 126.052  0.00  0.00    +0.000 C 
ATOM      2  C   UNL     1      -6.600  -0.208 125.527  0.00  0.00    +0.000 C 
ATOM      3  C   UNL     1      -7.906  -0.027 125.651  0.00  0.00    +0.000 C 
ENDROOT
BRANCH   2   4
ATOM      4  N   UNL     1      -6.137  -1.400 125.075  0.00  0.00    +0.000 N 
ATOM      5  C   UNL     1      -5.988  -1.766 123.714  0.00  0.00    +0.000 C 
ATOM      6  O   UNL     1      -5.365  -2.735 123.283  0.00  0.00    +0.000 OA
BRANCH   4   7
ATOM      7  C   UNL     1      -5.706  -2.410 126.030  0.00  0.00    +0.000 C 
BRANCH   7   8
ATOM      8  C   UNL     1      -5.819  -2.427 128.030  0.00  0.00    +0.000 A 
ATOM      9  C   UNL     1      -7.241  -3.137 129.009  0.00  0.00    +0.000 A 
ATOM     10  N   UNL     1      -7.114  -3.631 130.149  0.00  0.00    +0.000 NA
ATOM     11  C   UNL     1      -5.827  -3.514 130.439  0.00  0.00    +0.000 A 
ATOM     12  C   UNL     1      -5.624  -4.283 131.638  0.00  0.00    +0.000 C 
ATOM     13  N   UNL     1      -4.630  -2.954 129.813  0.00  0.00    +0.000 NA
ATOM     14  C   UNL     1      -4.650  -2.405 128.583  0.00  0.00    +0.000 A 
BRANCH   9  15
ATOM     15  N   UNL     1      -8.643  -3.707 128.402  0.00  0.00    +0.000 N 
ATOM     16  H   UNL     1      -8.839  -4.721 128.284  0.00  0.00    +0.000 HD
ATOM     17  H   UNL     1      -9.160  -3.256 127.664  0.00  0.00    +0.000 HD
ENDBRANCH   9  15
ENDBRANCH   7   8
ENDBRANCH   4   7
ENDBRANCH   2   4
BRANCH   3  18
ATOM     18  C   UNL     1      -8.708  -1.336 125.757  0.00  0.00    +0.000 C 
BRANCH  18  19
ATOM     19  C   UNL     1      -9.119  -2.952 124.465  0.00  0.00    +0.000 C 
BRANCH  19  20
ATOM     20  O   UNL     1     -10.214  -3.282 123.358  0.00  0.00    +0.000 OA
ATOM     21  H   UNL     1     -11.039  -3.705 123.663  0.00  0.00    +0.000 HD
ENDBRANCH  19  20
ENDBRANCH  18  19
ENDBRANCH   3  18
BRANCH   3  22
ATOM     22  S   UNL     1      -8.550   1.722 125.749  0.00  0.00    +0.000 S 
BRANCH  22  23
ATOM     23  S   UNL     1      -8.368   2.586 123.923  0.00  0.00    +0.000 S 
BRANCH  23  24
ATOM     24  C   UNL     1      -6.760   3.461 123.581  0.00  0.00    +0.000 C 
BRANCH  24  25
ATOM     25  C   UNL     1      -6.197   3.357 122.108  0.00  0.00    +0.000 C 
ATOM     26  C   UNL     1      -5.152   4.412 121.774  0.00  0.00    +0.000 C 
ATOM     27  C   UNL     1      -5.278   4.613 120.282  0.00  0.00    +0.000 C 
ATOM     28  C   UNL     1      -6.707   4.289 120.009  0.00  0.00    +0.000 C 
ATOM     29  O   UNL     1      -7.165   3.398 121.042  0.00  0.00    +0.000 OA
ENDBRANCH  24  25
ENDBRANCH  23  24
ENDBRANCH  22  23
ENDBRANCH   3  22
TORSDOF 11
ENDMDL
MODEL 5
REMARK VINA RESULT:      -6.7      3.639      4.975
REMARK  Name = Fursultiamine
REMARK  13 active torsions:
REMARK  status: ('A' for Active; 'I' for Inactive)
REMARK    1  A    between atoms: C_1  and  C_2
REMARK    2  A    between atoms: C_2  and  N_3
REMARK    3  A    between atoms: N_3  and  C_4
REMARK    4  A    between atoms: C_4  and  C_5
REMARK    5  A    between atoms: C_6  and  N_7
REMARK    6  A    between atoms: C_9  and  C_10
REMARK    7  A    between atoms: C_15  and  C_16
REMARK    8  A    between atoms: C_15  and  S_19
REMARK    9  A    between atoms: C_16  and  C_17
REMARK   10  A    between atoms: C_17  and  O_18
REMARK   11  A    between atoms: S_19  and  S_20
REMARK   12  A    between atoms: S_20  and  C_21
REMARK   13  A    between atoms: C_21  and  C_22
REMARK                            x       y       z     vdW  Elec       q    Type
REMARK                         _______ _______ _______ _____ _____    ______ ____
ROOT
ATOM      1  C   UNL     1      -5.650  -1.555 124.475  0.00  0.00    +0.000 C 
ATOM      2  C   UNL     1      -6.622  -0.537 124.834  0.00  0.00    +0.000 C 
ATOM      3  C   UNL     1      -7.628  -0.339 123.997  0.00  0.00    +0.000 C 
ENDROOT
BRANCH   2   4
ATOM      4  N   UNL     1      -6.456   0.309 125.880  0.00  0.00    +0.000 N 
ATOM      5  C   UNL     1      -7.460   0.681 126.809  0.00  0.00    +0.000 C 
ATOM      6  O   UNL     1      -7.283   1.254 127.883  0.00  0.00    +0.000 OA
BRANCH   4   7
ATOM      7  C   UNL     1      -5.142   0.881 126.138  0.00  0.00    +0.000 C 
BRANCH   7   8
ATOM      8  C   UNL     1      -4.551   2.795 126.164  0.00  0.00    +0.000 A 
ATOM      9  C   UNL     1      -5.679   4.253 126.455  0.00  0.00    +0.000 A 
ATOM     10  N   UNL     1      -5.304   5.319 126.989  0.00  0.00    +0.000 NA
ATOM     11  C   UNL     1      -4.019   5.143 127.253  0.00  0.00    +0.000 A 
ATOM     12  C   UNL     1      -3.632   6.261 128.073  0.00  0.00    +0.000 C 
ATOM     13  N   UNL     1      -3.010   4.104 127.047  0.00  0.00    +0.000 NA
ATOM     14  C   UNL     1      -3.306   2.914 126.491  0.00  0.00    +0.000 A 
BRANCH   9  15
ATOM     15  N   UNL     1      -7.304   4.207 126.585  0.00  0.00    +0.000 N 
ATOM     16  H   UNL     1      -7.932   4.850 126.063  0.00  0.00    +0.000 HD
ATOM     17  H   UNL     1      -7.794   4.006 127.441  0.00  0.00    +0.000 HD
ENDBRANCH   9  15
ENDBRANCH   7   8
ENDBRANCH   4   7
ENDBRANCH   2   4
BRANCH   3  18
ATOM     18  C   UNL     1      -8.177   1.098 124.011  0.00  0.00    +0.000 C 
BRANCH  18  19
ATOM     19  C   UNL     1      -8.978   2.411 122.568  0.00  0.00    +0.000 C 
BRANCH  19  20
ATOM     20  O   UNL     1      -8.547   3.799 121.919  0.00  0.00    +0.000 OA
ATOM     21  H   UNL     1      -8.958   4.037 121.067  0.00  0.00    +0.000 HD
ENDBRANCH  19  20
ENDBRANCH  18  19
ENDBRANCH   3  18
BRANCH   3  22
ATOM     22  S   UNL     1      -8.166  -1.760 122.911  0.00  0.00    +0.000 S 
BRANCH  22  23
ATOM     23  S   UNL     1      -9.097  -3.145 124.064  0.00  0.00    +0.000 S 
BRANCH  23  24
ATOM     24  C   UNL     1      -9.349  -2.693 125.853  0.00  0.00    +0.000 C 
BRANCH  24  25
ATOM     25  C   UNL     1      -8.382  -3.376 126.898  0.00  0.00    +0.000 C 
ATOM     26  C   UNL     1      -9.075  -3.819 128.180  0.00  0.00    +0.000 C 
ATOM     27  C   UNL     1      -7.997  -3.757 129.236  0.00  0.00    +0.000 C 
ATOM     28  C   UNL     1      -7.085  -2.689 128.738  0.00  0.00    +0.000 C 
ATOM     29  O   UNL     1      -7.230  -2.614 127.309  0.00  0.00    +0.000 OA
ENDBRANCH  24  25
ENDBRANCH  23  24
ENDBRANCH  22  23
ENDBRANCH   3  22
TORSDOF 11
ENDMDL
MODEL 6
REMARK VINA RESULT:      -6.7      4.005      5.871
REMARK  Name = Fursultiamine
REMARK  13 active torsions:
REMARK  status: ('A' for Active; 'I' for Inactive)
REMARK    1  A    between atoms: C_1  and  C_2
REMARK    2  A    between atoms: C_2  and  N_3
REMARK    3  A    between atoms: N_3  and  C_4
REMARK    4  A    between atoms: C_4  and  C_5
REMARK    5  A    between atoms: C_6  and  N_7
REMARK    6  A    between atoms: C_9  and  C_10
REMARK    7  A    between atoms: C_15  and  C_16
REMARK    8  A    between atoms: C_15  and  S_19
REMARK    9  A    between atoms: C_16  and  C_17
REMARK   10  A    between atoms: C_17  and  O_18
REMARK   11  A    between atoms: S_19  and  S_20
REMARK   12  A    between atoms: S_20  and  C_21
REMARK   13  A    between atoms: C_21  and  C_22
REMARK                            x       y       z     vdW  Elec       q    Type
REMARK                         _______ _______ _______ _____ _____    ______ ____
ROOT
ATOM      1  C   UNL     1      -5.300   2.794 127.308  0.00  0.00    +0.000 C 
ATOM      2  C   UNL     1      -6.620   2.307 126.946  0.00  0.00    +0.000 C 
ATOM      3  C   UNL     1      -7.245   1.542 127.828  0.00  0.00    +0.000 C 
ENDROOT
BRANCH   2   4
ATOM      4  N   UNL     1      -7.154   2.464 125.710  0.00  0.00    +0.000 N 
ATOM      5  C   UNL     1      -8.185   3.373 125.365  0.00  0.00    +0.000 C 
ATOM      6  O   UNL     1      -8.523   3.695 124.227  0.00  0.00    +0.000 OA
BRANCH   4   7
ATOM      7  C   UNL     1      -6.632   1.682 124.599  0.00  0.00    +0.000 C 
BRANCH   7   8
ATOM      8  C   UNL     1      -7.440   0.135 123.617  0.00  0.00    +0.000 A 
ATOM      9  C   UNL     1      -6.749  -1.599 123.610  0.00  0.00    +0.000 A 
ATOM     10  N   UNL     1      -7.456  -2.622 123.488  0.00  0.00    +0.000 NA
ATOM     11  C   UNL     1      -8.697  -2.177 123.370  0.00  0.00    +0.000 A 
ATOM     12  C   UNL     1      -9.541  -3.339 123.463  0.00  0.00    +0.000 C 
ATOM     13  N   UNL     1      -9.375  -0.882 123.310  0.00  0.00    +0.000 NA
ATOM     14  C   UNL     1      -8.713   0.283 123.440  0.00  0.00    +0.000 A 
BRANCH   9  15
ATOM     15  N   UNL     1      -5.335  -2.078 124.265  0.00  0.00    +0.000 N 
ATOM     16  H   UNL     1      -4.539  -2.433 123.698  0.00  0.00    +0.000 HD
ATOM     17  H   UNL     1      -5.258  -2.559 125.147  0.00  0.00    +0.000 HD
ENDBRANCH   9  15
ENDBRANCH   7   8
ENDBRANCH   4   7
ENDBRANCH   2   4
BRANCH   3  18
ATOM     18  C   UNL     1      -8.215   0.528 127.197  0.00  0.00    +0.000 C 
BRANCH  18  19
ATOM     19  C   UNL     1      -8.252  -1.567 126.964  0.00  0.00    +0.000 C 
BRANCH  19  20
ATOM     20  O   UNL     1      -7.173  -2.710 126.715  0.00  0.00    +0.000 OA
ATOM     21  H   UNL     1      -6.591  -2.942 127.463  0.00  0.00    +0.000 HD
ENDBRANCH  19  20
ENDBRANCH  18  19
ENDBRANCH   3  18
BRANCH   3  22
ATOM     22  S   UNL     1      -6.821   1.750 129.635  0.00  0.00    +0.000 S 
BRANCH  22  23
ATOM     23  S   UNL     1      -6.233  -0.044 130.376  0.00  0.00    +0.000 S 
BRANCH  23  24
ATOM     24  C   UNL     1      -7.573  -1.316 130.618  0.00  0.00    +0.000 C 
BRANCH  24  25
ATOM     25  C   UNL     1      -7.137  -2.831 130.517  0.00  0.00    +0.000 C 
ATOM     26  C   UNL     1      -6.595  -3.402 131.821  0.00  0.00    +0.000 C 
ATOM     27  C   UNL     1      -5.635  -4.487 131.390  0.00  0.00    +0.000 C 
ATOM     28  C   UNL     1      -5.157  -4.018 130.059  0.00  0.00    +0.000 C 
ATOM     29  O   UNL     1      -6.169  -3.159 129.502  0.00  0.00    +0.000 OA
ENDBRANCH  24  25
ENDBRANCH  23  24
ENDBRANCH  22  23
ENDBRANCH   3  22
TORSDOF 11
ENDMDL
MODEL 7
REMARK VINA RESULT:      -6.7      4.278      8.359
REMARK  Name = Fursultiamine
REMARK  13 active torsions:
REMARK  status: ('A' for Active; 'I' for Inactive)
REMARK    1  A    between atoms: C_1  and  C_2
REMARK    2  A    between atoms: C_2  and  N_3
REMARK    3  A    between atoms: N_3  and  C_4
REMARK    4  A    between atoms: C_4  and  C_5
REMARK    5  A    between atoms: C_6  and  N_7
REMARK    6  A    between atoms: C_9  and  C_10
REMARK    7  A    between atoms: C_15  and  C_16
REMARK    8  A    between atoms: C_15  and  S_19
REMARK    9  A    between atoms: C_16  and  C_17
REMARK   10  A    between atoms: C_17  and  O_18
REMARK   11  A    between atoms: S_19  and  S_20
REMARK   12  A    between atoms: S_20  and  C_21
REMARK   13  A    between atoms: C_21  and  C_22
REMARK                            x       y       z     vdW  Elec       q    Type
REMARK                         _______ _______ _______ _____ _____    ______ ____
ROOT
ATOM      1  C   UNL     1      -6.805  -0.385 123.112  0.00  0.00    +0.000 C 
ATOM      2  C   UNL     1      -7.636  -0.775 124.238  0.00  0.00    +0.000 C 
ATOM      3  C   UNL     1      -8.420   0.155 124.761  0.00  0.00    +0.000 C 
ENDROOT
BRANCH   2   4
ATOM      4  N   UNL     1      -7.522  -1.973 124.862  0.00  0.00    +0.000 N 
ATOM      5  C   UNL     1      -8.433  -3.054 124.746  0.00  0.00    +0.000 C 
ATOM      6  O   UNL     1      -8.239  -4.212 125.110  0.00  0.00    +0.000 OA
BRANCH   4   7
ATOM      7  C   UNL     1      -6.364  -2.237 125.703  0.00  0.00    +0.000 C 
BRANCH   7   8
ATOM      8  C   UNL     1      -6.229  -2.414 127.693  0.00  0.00    +0.000 A 
ATOM      9  C   UNL     1      -7.503  -3.242 128.777  0.00  0.00    +0.000 A 
ATOM     10  N   UNL     1      -7.226  -3.820 129.849  0.00  0.00    +0.000 NA
ATOM     11  C   UNL     1      -5.916  -3.686 129.989  0.00  0.00    +0.000 A 
ATOM     12  C   UNL     1      -5.551  -4.540 131.088  0.00  0.00    +0.000 C 
ATOM     13  N   UNL     1      -4.817  -3.042 129.269  0.00  0.00    +0.000 NA
ATOM     14  C   UNL     1      -5.001  -2.400 128.100  0.00  0.00    +0.000 A 
BRANCH   9  15
ATOM     15  N   UNL     1      -8.958  -3.805 128.300  0.00  0.00    +0.000 N 
ATOM     16  H   UNL     1      -9.706  -3.191 127.920  0.00  0.00    +0.000 HD
ATOM     17  H   UNL     1      -9.448  -4.555 128.759  0.00  0.00    +0.000 HD
ENDBRANCH   9  15
ENDBRANCH   7   8
ENDBRANCH   4   7
ENDBRANCH   2   4
BRANCH   3  18
ATOM     18  C   UNL     1      -8.705  -0.043 126.260  0.00  0.00    +0.000 C 
BRANCH  18  19
ATOM     19  C   UNL     1      -8.081   0.896 128.042  0.00  0.00    +0.000 C 
BRANCH  19  20
ATOM     20  O   UNL     1      -6.740   0.950 128.898  0.00  0.00    +0.000 OA
ATOM     21  H   UNL     1      -6.352   1.831 129.059  0.00  0.00    +0.000 HD
ENDBRANCH  19  20
ENDBRANCH  18  19
ENDBRANCH   3  18
BRANCH   3  22
ATOM     22  S   UNL     1      -8.984   1.555 123.663  0.00  0.00    +0.000 S 
BRANCH  22  23
ATOM     23  S   UNL     1      -8.399   3.311 124.493  0.00  0.00    +0.000 S 
BRANCH  23  24
ATOM     24  C   UNL     1      -6.796   4.025 123.869  0.00  0.00    +0.000 C 
BRANCH  24  25
ATOM     25  C   UNL     1      -6.318   3.546 122.441  0.00  0.00    +0.000 C 
ATOM     26  C   UNL     1      -5.137   4.336 121.893  0.00  0.00    +0.000 C 
ATOM     27  C   UNL     1      -5.292   4.259 120.392  0.00  0.00    +0.000 C 
ATOM     28  C   UNL     1      -6.764   4.119 120.203  0.00  0.00    +0.000 C 
ATOM     29  O   UNL     1      -7.310   3.532 121.397  0.00  0.00    +0.000 OA
ENDBRANCH  24  25
ENDBRANCH  23  24
ENDBRANCH  22  23
ENDBRANCH   3  22
TORSDOF 11
ENDMDL
MODEL 8
REMARK VINA RESULT:      -6.6      6.217      9.072
REMARK  Name = Fursultiamine
REMARK  13 active torsions:
REMARK  status: ('A' for Active; 'I' for Inactive)
REMARK    1  A    between atoms: C_1  and  C_2
REMARK    2  A    between atoms: C_2  and  N_3
REMARK    3  A    between atoms: N_3  and  C_4
REMARK    4  A    between atoms: C_4  and  C_5
REMARK    5  A    between atoms: C_6  and  N_7
REMARK    6  A    between atoms: C_9  and  C_10
REMARK    7  A    between atoms: C_15  and  C_16
REMARK    8  A    between atoms: C_15  and  S_19
REMARK    9  A    between atoms: C_16  and  C_17
REMARK   10  A    between atoms: C_17  and  O_18
REMARK   11  A    between atoms: S_19  and  S_20
REMARK   12  A    between atoms: S_20  and  C_21
REMARK   13  A    between atoms: C_21  and  C_22
REMARK                            x       y       z     vdW  Elec       q    Type
REMARK                         _______ _______ _______ _____ _____    ______ ____
ROOT
ATOM      1  C   UNL     1      -8.856   2.602 129.900  0.00  0.00    +0.000 C 
ATOM      2  C   UNL     1      -8.069   3.795 130.159  0.00  0.00    +0.000 C 
ATOM      3  C   UNL     1      -6.753   3.685 130.058  0.00  0.00    +0.000 C 
ENDROOT
BRANCH   2   4
ATOM      4  N   UNL     1      -8.601   4.942 130.646  0.00  0.00    +0.000 N 
ATOM      5  C   UNL     1      -8.884   5.207 132.010  0.00  0.00    +0.000 C 
ATOM      6  O   UNL     1      -9.147   6.304 132.500  0.00  0.00    +0.000 OA
BRANCH   4   7
ATOM      7  C   UNL     1      -8.889   6.043 129.738  0.00  0.00    +0.000 C 
BRANCH   7   8
ATOM      8  C   UNL     1     -10.630   6.926 129.292  0.00  0.00    +0.000 A 
ATOM      9  C   UNL     1     -12.048   7.146 130.485  0.00  0.00    +0.000 A 
ATOM     10  N   UNL     1     -12.858   8.095 130.427  0.00  0.00    +0.000 NA
ATOM     11  C   UNL     1     -12.472   8.819 129.387  0.00  0.00    +0.000 A 
ATOM     12  C   UNL     1     -13.244  10.032 129.447  0.00  0.00    +0.000 C 
ATOM     13  N   UNL     1     -11.438   8.753 128.354  0.00  0.00    +0.000 NA
ATOM     14  C   UNL     1     -10.510   7.779 128.327  0.00  0.00    +0.000 A 
BRANCH   9  15
ATOM     15  N   UNL     1     -12.143   6.537 131.995  0.00  0.00    +0.000 N 
ATOM     16  H   UNL     1     -13.006   6.101 132.377  0.00  0.00    +0.000 HD
ATOM     17  H   UNL     1     -11.683   6.942 132.794  0.00  0.00    +0.000 HD
ENDBRANCH   9  15
ENDBRANCH   7   8
ENDBRANCH   4   7
ENDBRANCH   2   4
BRANCH   3  18
ATOM     18  C   UNL     1      -5.976   4.652 130.967  0.00  0.00    +0.000 C 
BRANCH  18  19
ATOM     19  C   UNL     1      -5.595   6.726 130.972  0.00  0.00    +0.000 C 
BRANCH  19  20
ATOM     20  O   UNL     1      -4.319   7.656 130.771  0.00  0.00    +0.000 OA
ATOM     21  H   UNL     1      -4.179   8.366 131.426  0.00  0.00    +0.000 HD
ENDBRANCH  19  20
ENDBRANCH  18  19
ENDBRANCH   3  18
BRANCH   3  22
ATOM     22  S   UNL     1      -6.061   2.372 128.924  0.00  0.00    +0.000 S 
BRANCH  22  23
ATOM     23  S   UNL     1      -6.702   2.739 127.035  0.00  0.00    +0.000 S 
BRANCH  23  24
ATOM     24  C   UNL     1      -5.380   3.059 125.763  0.00  0.00    +0.000 C 
BRANCH  24  25
ATOM     25  C   UNL     1      -4.294   4.146 126.130  0.00  0.00    +0.000 C 
ATOM     26  C   UNL     1      -3.090   3.585 126.875  0.00  0.00    +0.000 C 
ATOM     27  C   UNL     1      -2.590   4.740 127.712  0.00  0.00    +0.000 C 
ATOM     28  C   UNL     1      -3.819   5.545 127.961  0.00  0.00    +0.000 C 
ATOM     29  O   UNL     1      -4.746   5.281 126.893  0.00  0.00    +0.000 OA
ENDBRANCH  24  25
ENDBRANCH  23  24
ENDBRANCH  22  23
ENDBRANCH   3  22
TORSDOF 11
ENDMDL
MODEL 9
REMARK VINA RESULT:      -6.5      6.013      8.104
REMARK  Name = Fursultiamine
REMARK  13 active torsions:
REMARK  status: ('A' for Active; 'I' for Inactive)
REMARK    1  A    between atoms: C_1  and  C_2
REMARK    2  A    between atoms: C_2  and  N_3
REMARK    3  A    between atoms: N_3  and  C_4
REMARK    4  A    between atoms: C_4  and  C_5
REMARK    5  A    between atoms: C_6  and  N_7
REMARK    6  A    between atoms: C_9  and  C_10
REMARK    7  A    between atoms: C_15  and  C_16
REMARK    8  A    between atoms: C_15  and  S_19
REMARK    9  A    between atoms: C_16  and  C_17
REMARK   10  A    between atoms: C_17  and  O_18
REMARK   11  A    between atoms: S_19  and  S_20
REMARK   12  A    between atoms: S_20  and  C_21
REMARK   13  A    between atoms: C_21  and  C_22
REMARK                            x       y       z     vdW  Elec       q    Type
REMARK                         _______ _______ _______ _____ _____    ______ ____
ROOT
ATOM      1  C   UNL     1      -5.423   3.897 128.556  0.00  0.00    +0.000 C 
ATOM      2  C   UNL     1      -6.464   3.459 129.469  0.00  0.00    +0.000 C 
ATOM      3  C   UNL     1      -7.003   2.270 129.247  0.00  0.00    +0.000 C 
ENDROOT
BRANCH   2   4
ATOM      4  N   UNL     1      -7.008   4.266 130.413  0.00  0.00    +0.000 N 
ATOM      5  C   UNL     1      -6.838   4.129 131.813  0.00  0.00    +0.000 C 
ATOM      6  O   UNL     1      -7.124   4.966 132.668  0.00  0.00    +0.000 OA
BRANCH   4   7
ATOM      7  C   UNL     1      -7.811   5.409 130.004  0.00  0.00    +0.000 C 
BRANCH   7   8
ATOM      8  C   UNL     1      -9.787   5.708 130.132  0.00  0.00    +0.000 A 
ATOM      9  C   UNL     1     -10.766   5.692 131.722  0.00  0.00    +0.000 A 
ATOM     10  N   UNL     1     -11.803   6.365 131.900  0.00  0.00    +0.000 NA
ATOM     11  C   UNL     1     -11.996   7.016 130.763  0.00  0.00    +0.000 A 
ATOM     12  C   UNL     1     -13.043   7.966 131.029  0.00  0.00    +0.000 C 
ATOM     13  N   UNL     1     -11.362   7.094 129.447  0.00  0.00    +0.000 NA
ATOM     14  C   UNL     1     -10.236   6.419 129.149  0.00  0.00    +0.000 A 
BRANCH   9  15
ATOM     15  N   UNL     1     -10.201   5.296 133.199  0.00  0.00    +0.000 N 
ATOM     16  H   UNL     1      -9.197   5.364 133.459  0.00  0.00    +0.000 HD
ATOM     17  H   UNL     1     -10.559   4.535 133.752  0.00  0.00    +0.000 HD
ENDBRANCH   9  15
ENDBRANCH   7   8
ENDBRANCH   4   7
ENDBRANCH   2   4
BRANCH   3  18
ATOM     18  C   UNL     1      -8.463   2.150 129.716  0.00  0.00    +0.000 C 
BRANCH  18  19
ATOM     19  C   UNL     1      -9.421   1.628 131.520  0.00  0.00    +0.000 C 
BRANCH  19  20
ATOM     20  O   UNL     1      -9.921   2.405 132.817  0.00  0.00    +0.000 OA
ATOM     21  H   UNL     1     -10.713   2.055 133.265  0.00  0.00    +0.000 HD
ENDBRANCH  19  20
ENDBRANCH  18  19
ENDBRANCH   3  18
BRANCH   3  22
ATOM     22  S   UNL     1      -5.973   0.984 128.367  0.00  0.00    +0.000 S 
BRANCH  22  23
ATOM     23  S   UNL     1      -6.805   0.611 126.556  0.00  0.00    +0.000 S 
BRANCH  23  24
ATOM     24  C   UNL     1      -8.213  -0.606 126.530  0.00  0.00    +0.000 C 
BRANCH  24  25
ATOM     25  C   UNL     1      -7.914  -2.047 127.105  0.00  0.00    +0.000 C 
ATOM     26  C   UNL     1      -8.958  -3.089 126.727  0.00  0.00    +0.000 C 
ATOM     27  C   UNL     1      -8.920  -4.091 127.857  0.00  0.00    +0.000 C 
ATOM     28  C   UNL     1      -8.485  -3.278 129.027  0.00  0.00    +0.000 C 
ATOM     29  O   UNL     1      -7.740  -2.151 128.531  0.00  0.00    +0.000 OA
ENDBRANCH  24  25
ENDBRANCH  23  24
ENDBRANCH  22  23
ENDBRANCH   3  22
TORSDOF 11
ENDMDL
