MODEL 1
REMARK VINA RESULT:      -8.4      0.000      0.000
REMARK  Name = Fusafungine
REMARK  21 active torsions:
REMARK  status: ('A' for Active; 'I' for Inactive)
REMARK    1  A    between atoms: C_2  and  C_49
REMARK    2  A    between atoms: C_6  and  C_8
REMARK    3  A    between atoms: C_8  and  C_9
REMARK    4  A    between atoms: C_8  and  C_10
REMARK    5  A    between atoms: N_11  and  C_12
REMARK    6  A    between atoms: C_15  and  C_46
REMARK    7  A    between atoms: C_20  and  C_22
REMARK    8  A    between atoms: C_22  and  C_23
REMARK    9  A    between atoms: C_22  and  C_24
REMARK   10  A    between atoms: N_25  and  C_26
REMARK   11  A    between atoms: C_29  and  C_43
REMARK   12  A    between atoms: C_34  and  C_36
REMARK   13  A    between atoms: C_36  and  C_37
REMARK   14  A    between atoms: C_36  and  C_38
REMARK   15  A    between atoms: N_39  and  C_40
REMARK   16  A    between atoms: C_43  and  C_44
REMARK   17  A    between atoms: C_43  and  C_45
REMARK   18  A    between atoms: C_46  and  C_47
REMARK   19  A    between atoms: C_46  and  C_48
REMARK   20  A    between atoms: C_49  and  C_50
REMARK   21  A    between atoms: C_49  and  C_51
REMARK                            x       y       z     vdW  Elec       q    Type
REMARK                         _______ _______ _______ _____ _____    ______ ____
ROOT
ATOM      1  C   UNL     1      -7.780   2.896 126.687  0.00  0.00    +0.000 C 
ATOM      2  O   UNL     1      -8.612   3.169 127.948  0.00  0.00    +0.000 OA
ATOM      3  C   UNL     1      -8.224   3.997 128.999  0.00  0.00    +0.000 C 
ATOM      4  O   UNL     1      -7.851   5.160 128.814  0.00  0.00    +0.000 OA
ATOM      5  C   UNL     1      -8.374   3.309 130.488  0.00  0.00    +0.000 C 
ATOM      6  N   UNL     1      -7.378   3.596 131.667  0.00  0.00    +0.000 N 
ATOM      7  C   UNL     1      -6.563   4.819 131.670  0.00  0.00    +0.000 C 
ATOM      8  C   UNL     1      -7.130   2.620 132.686  0.00  0.00    +0.000 C 
ATOM      9  O   UNL     1      -8.018   2.159 133.405  0.00  0.00    +0.000 OA
ATOM     10  C   UNL     1      -5.693   1.991 132.804  0.00  0.00    +0.000 C 
ATOM     11  O   UNL     1      -5.973   0.603 133.369  0.00  0.00    +0.000 OA
ATOM     12  C   UNL     1      -5.181  -0.518 133.399  0.00  0.00    +0.000 C 
ATOM     13  O   UNL     1      -4.060  -0.510 133.962  0.00  0.00    +0.000 OA
ATOM     14  C   UNL     1      -5.799  -1.772 132.503  0.00  0.00    +0.000 C 
ATOM     15  N   UNL     1      -4.893  -2.898 131.716  0.00  0.00    +0.000 N 
ATOM     16  C   UNL     1      -3.439  -2.884 132.004  0.00  0.00    +0.000 C 
ATOM     17  C   UNL     1      -5.196  -3.562 130.425  0.00  0.00    +0.000 C 
ATOM     18  O   UNL     1      -5.205  -4.796 130.386  0.00  0.00    +0.000 OA
ATOM     19  C   UNL     1      -5.358  -2.773 128.977  0.00  0.00    +0.000 C 
ATOM     20  O   UNL     1      -6.296  -3.111 127.905  0.00  0.00    +0.000 OA
ATOM     21  C   UNL     1      -6.332  -2.343 126.726  0.00  0.00    +0.000 C 
ATOM     22  O   UNL     1      -5.405  -2.396 125.917  0.00  0.00    +0.000 OA
ATOM     23  C   UNL     1      -7.644  -1.206 126.617  0.00  0.00    +0.000 C 
ATOM     24  N   UNL     1      -7.421   0.293 125.897  0.00  0.00    +0.000 N 
ATOM     25  C   UNL     1      -6.163   0.432 125.112  0.00  0.00    +0.000 C 
ATOM     26  C   UNL     1      -8.295   1.463 126.118  0.00  0.00    +0.000 C 
ATOM     27  O   UNL     1      -9.528   1.423 126.068  0.00  0.00    +0.000 OA
ENDROOT
BRANCH   5  28
ATOM     28  C   UNL     1      -9.826   3.609 130.801  0.00  0.00    +0.000 C 
ATOM     29  C   UNL     1     -10.512   2.365 131.390  0.00  0.00    +0.000 C 
ATOM     30  C   UNL     1      -9.931   4.718 131.812  0.00  0.00    +0.000 C 
ENDBRANCH   5  28
BRANCH  14  31
ATOM     31  C   UNL     1      -7.138  -2.332 132.970  0.00  0.00    +0.000 C 
ATOM     32  C   UNL     1      -7.153  -2.396 134.507  0.00  0.00    +0.000 C 
ATOM     33  C   UNL     1      -8.292  -1.395 132.585  0.00  0.00    +0.000 C 
ENDBRANCH  14  31
BRANCH  23  34
ATOM     34  C   UNL     1      -8.917  -1.962 126.342  0.00  0.00    +0.000 C 
ATOM     35  C   UNL     1      -8.990  -2.333 124.859  0.00  0.00    +0.000 C 
ATOM     36  C   UNL     1      -8.899  -3.261 127.105  0.00  0.00    +0.000 C 
ENDBRANCH  23  34
BRANCH  19  37
ATOM     37  C   UNL     1      -5.872  -1.502 129.395  0.00  0.00    +0.000 C 
ATOM     38  C   UNL     1      -5.423  -0.484 128.459  0.00  0.00    +0.000 C 
ATOM     39  C   UNL     1      -7.230  -1.205 129.029  0.00  0.00    +0.000 C 
ENDBRANCH  19  37
BRANCH  10  40
ATOM     40  C   UNL     1      -5.137   1.807 131.421  0.00  0.00    +0.000 C 
ATOM     41  C   UNL     1      -4.497   2.878 130.603  0.00  0.00    +0.000 C 
ATOM     42  C   UNL     1      -3.978   0.813 131.398  0.00  0.00    +0.000 C 
ENDBRANCH  10  40
BRANCH   1  43
ATOM     43  C   UNL     1      -6.383   2.800 127.167  0.00  0.00    +0.000 C 
ATOM     44  C   UNL     1      -5.526   4.004 127.334  0.00  0.00    +0.000 C 
ATOM     45  C   UNL     1      -6.600   2.139 128.444  0.00  0.00    +0.000 C 
ENDBRANCH   1  43
TORSDOF 6
ENDMDL
MODEL 2
REMARK VINA RESULT:      -8.2      1.342      7.036
REMARK  Name = Fusafungine
REMARK  21 active torsions:
REMARK  status: ('A' for Active; 'I' for Inactive)
REMARK    1  A    between atoms: C_2  and  C_49
REMARK    2  A    between atoms: C_6  and  C_8
REMARK    3  A    between atoms: C_8  and  C_9
REMARK    4  A    between atoms: C_8  and  C_10
REMARK    5  A    between atoms: N_11  and  C_12
REMARK    6  A    between atoms: C_15  and  C_46
REMARK    7  A    between atoms: C_20  and  C_22
REMARK    8  A    between atoms: C_22  and  C_23
REMARK    9  A    between atoms: C_22  and  C_24
REMARK   10  A    between atoms: N_25  and  C_26
REMARK   11  A    between atoms: C_29  and  C_43
REMARK   12  A    between atoms: C_34  and  C_36
REMARK   13  A    between atoms: C_36  and  C_37
REMARK   14  A    between atoms: C_36  and  C_38
REMARK   15  A    between atoms: N_39  and  C_40
REMARK   16  A    between atoms: C_43  and  C_44
REMARK   17  A    between atoms: C_43  and  C_45
REMARK   18  A    between atoms: C_46  and  C_47
REMARK   19  A    between atoms: C_46  and  C_48
REMARK   20  A    between atoms: C_49  and  C_50
REMARK   21  A    between atoms: C_49  and  C_51
REMARK                            x       y       z     vdW  Elec       q    Type
REMARK                         _______ _______ _______ _____ _____    ______ ____
ROOT
ATOM      1  C   UNL     1      -4.715  -3.095 130.180  0.00  0.00    +0.000 C 
ATOM      2  O   UNL     1      -5.987  -2.953 129.332  0.00  0.00    +0.000 OA
ATOM      3  C   UNL     1      -6.053  -2.336 128.085  0.00  0.00    +0.000 C 
ATOM      4  O   UNL     1      -5.294  -2.643 127.161  0.00  0.00    +0.000 OA
ATOM      5  C   UNL     1      -7.263  -1.228 127.946  0.00  0.00    +0.000 C 
ATOM      6  N   UNL     1      -7.129   0.084 127.094  0.00  0.00    +0.000 N 
ATOM      7  C   UNL     1      -6.134   0.170 126.016  0.00  0.00    +0.000 C 
ATOM      8  C   UNL     1      -7.861   1.268 127.431  0.00  0.00    +0.000 C 
ATOM      9  O   UNL     1      -9.091   1.303 127.490  0.00  0.00    +0.000 OA
ATOM     10  C   UNL     1      -7.069   2.547 127.893  0.00  0.00    +0.000 C 
ATOM     11  O   UNL     1      -8.056   3.243 128.822  0.00  0.00    +0.000 OA
ATOM     12  C   UNL     1      -7.849   4.218 129.767  0.00  0.00    +0.000 C 
ATOM     13  O   UNL     1      -7.349   5.327 129.460  0.00  0.00    +0.000 OA
ATOM     14  C   UNL     1      -8.181   3.706 131.310  0.00  0.00    +0.000 C 
ATOM     15  N   UNL     1      -7.410   4.238 132.662  0.00  0.00    +0.000 N 
ATOM     16  C   UNL     1      -6.499   5.393 132.482  0.00  0.00    +0.000 C 
ATOM     17  C   UNL     1      -7.086   3.463 133.885  0.00  0.00    +0.000 C 
ATOM     18  O   UNL     1      -7.468   3.899 134.976  0.00  0.00    +0.000 OA
ATOM     19  C   UNL     1      -6.098   2.134 133.921  0.00  0.00    +0.000 C 
ATOM     20  O   UNL     1      -6.270   0.949 134.763  0.00  0.00    +0.000 OA
ATOM     21  C   UNL     1      -5.353  -0.116 134.682  0.00  0.00    +0.000 C 
ATOM     22  O   UNL     1      -4.208   0.010 135.114  0.00  0.00    +0.000 OA
ATOM     23  C   UNL     1      -5.894  -1.497 133.773  0.00  0.00    +0.000 C 
ATOM     24  N   UNL     1      -4.822  -2.373 132.826  0.00  0.00    +0.000 N 
ATOM     25  C   UNL     1      -3.383  -2.081 133.072  0.00  0.00    +0.000 C 
ATOM     26  C   UNL     1      -5.222  -3.261 131.716  0.00  0.00    +0.000 C 
ATOM     27  O   UNL     1      -6.119  -4.106 131.796  0.00  0.00    +0.000 OA
ENDROOT
BRANCH   5  28
ATOM     28  C   UNL     1      -8.427  -2.117 127.556  0.00  0.00    +0.000 C 
ATOM     29  C   UNL     1      -8.261  -2.610 126.109  0.00  0.00    +0.000 C 
ATOM     30  C   UNL     1      -8.494  -3.325 128.451  0.00  0.00    +0.000 C 
ENDBRANCH   5  28
BRANCH  14  31
ATOM     31  C   UNL     1      -9.629   3.316 131.588  0.00  0.00    +0.000 C 
ATOM     32  C   UNL     1     -10.538   3.933 130.511  0.00  0.00    +0.000 C 
ATOM     33  C   UNL     1      -9.824   1.796 131.470  0.00  0.00    +0.000 C 
ENDBRANCH  14  31
BRANCH  23  34
ATOM     34  C   UNL     1      -6.919  -2.242 134.588  0.00  0.00    +0.000 C 
ATOM     35  C   UNL     1      -8.092  -2.655 133.694  0.00  0.00    +0.000 C 
ATOM     36  C   UNL     1      -6.309  -3.519 135.106  0.00  0.00    +0.000 C 
ENDBRANCH  23  34
BRANCH  19  37
ATOM     37  C   UNL     1      -6.316   1.575 132.620  0.00  0.00    +0.000 C 
ATOM     38  C   UNL     1      -5.048   1.093 132.099  0.00  0.00    +0.000 C 
ATOM     39  C   UNL     1      -6.819   0.228 132.574  0.00  0.00    +0.000 C 
ENDBRANCH  19  37
BRANCH  10  40
ATOM     40  C   UNL     1      -5.901   2.109 128.730  0.00  0.00    +0.000 C 
ATOM     41  C   UNL     1      -4.744   1.306 128.236  0.00  0.00    +0.000 C 
ATOM     42  C   UNL     1      -5.109   3.296 129.272  0.00  0.00    +0.000 C 
ENDBRANCH  10  40
BRANCH   1  43
ATOM     43  C   UNL     1      -3.995  -1.814 130.000  0.00  0.00    +0.000 C 
ATOM     44  C   UNL     1      -3.895  -0.809 131.092  0.00  0.00    +0.000 C 
ATOM     45  C   UNL     1      -2.679  -2.314 129.636  0.00  0.00    +0.000 C 
ENDBRANCH   1  43
TORSDOF 6
ENDMDL
MODEL 3
REMARK VINA RESULT:      -8.2      1.354      1.629
REMARK  Name = Fusafungine
REMARK  21 active torsions:
REMARK  status: ('A' for Active; 'I' for Inactive)
REMARK    1  A    between atoms: C_2  and  C_49
REMARK    2  A    between atoms: C_6  and  C_8
REMARK    3  A    between atoms: C_8  and  C_9
REMARK    4  A    between atoms: C_8  and  C_10
REMARK    5  A    between atoms: N_11  and  C_12
REMARK    6  A    between atoms: C_15  and  C_46
REMARK    7  A    between atoms: C_20  and  C_22
REMARK    8  A    between atoms: C_22  and  C_23
REMARK    9  A    between atoms: C_22  and  C_24
REMARK   10  A    between atoms: N_25  and  C_26
REMARK   11  A    between atoms: C_29  and  C_43
REMARK   12  A    between atoms: C_34  and  C_36
REMARK   13  A    between atoms: C_36  and  C_37
REMARK   14  A    between atoms: C_36  and  C_38
REMARK   15  A    between atoms: N_39  and  C_40
REMARK   16  A    between atoms: C_43  and  C_44
REMARK   17  A    between atoms: C_43  and  C_45
REMARK   18  A    between atoms: C_46  and  C_47
REMARK   19  A    between atoms: C_46  and  C_48
REMARK   20  A    between atoms: C_49  and  C_50
REMARK   21  A    between atoms: C_49  and  C_51
REMARK                            x       y       z     vdW  Elec       q    Type
REMARK                         _______ _______ _______ _____ _____    ______ ____
ROOT
ATOM      1  C   UNL     1      -6.790   4.582 127.470  0.00  0.00    +0.000 C 
ATOM      2  O   UNL     1      -7.789   4.648 128.634  0.00  0.00    +0.000 OA
ATOM      3  C   UNL     1      -7.509   5.154 129.902  0.00  0.00    +0.000 C 
ATOM      4  O   UNL     1      -7.016   6.275 130.066  0.00  0.00    +0.000 OA
ATOM      5  C   UNL     1      -7.953   4.159 131.136  0.00  0.00    +0.000 C 
ATOM      6  N   UNL     1      -7.140   4.040 132.474  0.00  0.00    +0.000 N 
ATOM      7  C   UNL     1      -6.238   5.123 132.894  0.00  0.00    +0.000 C 
ATOM      8  C   UNL     1      -7.141   2.830 133.240  0.00  0.00    +0.000 C 
ATOM      9  O   UNL     1      -8.168   2.323 133.693  0.00  0.00    +0.000 OA
ATOM     10  C   UNL     1      -5.799   2.024 133.392  0.00  0.00    +0.000 C 
ATOM     11  O   UNL     1      -6.279   0.586 133.548  0.00  0.00    +0.000 OA
ATOM     12  C   UNL     1      -5.597  -0.597 133.404  0.00  0.00    +0.000 C 
ATOM     13  O   UNL     1      -4.585  -0.856 134.099  0.00  0.00    +0.000 OA
ATOM     14  C   UNL     1      -6.164  -1.522 132.148  0.00  0.00    +0.000 C 
ATOM     15  N   UNL     1      -5.240  -2.532 131.235  0.00  0.00    +0.000 N 
ATOM     16  C   UNL     1      -3.855  -2.760 131.713  0.00  0.00    +0.000 C 
ATOM     17  C   UNL     1      -5.384  -2.834 129.791  0.00  0.00    +0.000 C 
ATOM     18  O   UNL     1      -5.488  -4.014 129.443  0.00  0.00    +0.000 OA
ATOM     19  C   UNL     1      -5.244  -1.714 128.578  0.00  0.00    +0.000 C 
ATOM     20  O   UNL     1      -6.022  -1.676 127.338  0.00  0.00    +0.000 OA
ATOM     21  C   UNL     1      -5.803  -0.654 126.395  0.00  0.00    +0.000 C 
ATOM     22  O   UNL     1      -4.767  -0.626 125.732  0.00  0.00    +0.000 OA
ATOM     23  C   UNL     1      -6.982   0.625 126.396  0.00  0.00    +0.000 C 
ATOM     24  N   UNL     1      -6.524   2.213 126.111  0.00  0.00    +0.000 N 
ATOM     25  C   UNL     1      -5.149   2.381 125.564  0.00  0.00    +0.000 C 
ATOM     26  C   UNL     1      -7.322   3.394 126.496  0.00  0.00    +0.000 C 
ATOM     27  O   UNL     1      -8.530   3.515 126.271  0.00  0.00    +0.000 OA
ENDROOT
BRANCH   5  28
ATOM     28  C   UNL     1      -9.406   4.548 131.314  0.00  0.00    +0.000 C 
ATOM     29  C   UNL     1     -10.307   3.306 131.212  0.00  0.00    +0.000 C 
ATOM     30  C   UNL     1      -9.627   5.170 132.666  0.00  0.00    +0.000 C 
ENDBRANCH   5  28
BRANCH  14  31
ATOM     31  C   UNL     1      -7.602  -2.013 132.273  0.00  0.00    +0.000 C 
ATOM     32  C   UNL     1      -7.851  -2.496 133.713  0.00  0.00    +0.000 C 
ATOM     33  C   UNL     1      -8.598  -0.866 132.046  0.00  0.00    +0.000 C 
ENDBRANCH  14  31
BRANCH  23  34
ATOM     34  C   UNL     1      -8.253   0.112 125.770  0.00  0.00    +0.000 C 
ATOM     35  C   UNL     1      -9.464   0.718 126.485  0.00  0.00    +0.000 C 
ATOM     36  C   UNL     1      -8.326   0.579 124.340  0.00  0.00    +0.000 C 
ENDBRANCH  23  34
BRANCH  19  37
ATOM     37  C   UNL     1      -5.712  -0.524 129.227  0.00  0.00    +0.000 C 
ATOM     38  C   UNL     1      -5.051   0.625 128.632  0.00  0.00    +0.000 C 
ATOM     39  C   UNL     1      -6.974  -0.000 128.777  0.00  0.00    +0.000 C 
ENDBRANCH  19  37
BRANCH  10  40
ATOM     40  C   UNL     1      -5.044   2.104 132.096  0.00  0.00    +0.000 C 
ATOM     41  C   UNL     1      -4.215   3.264 131.655  0.00  0.00    +0.000 C 
ATOM     42  C   UNL     1      -3.962   1.032 131.997  0.00  0.00    +0.000 C 
ENDBRANCH  10  40
BRANCH   1  43
ATOM     43  C   UNL     1      -5.501   4.210 128.097  0.00  0.00    +0.000 C 
ATOM     44  C   UNL     1      -4.585   5.230 128.673  0.00  0.00    +0.000 C 
ATOM     45  C   UNL     1      -5.975   3.300 129.127  0.00  0.00    +0.000 C 
ENDBRANCH   1  43
TORSDOF 6
ENDMDL
MODEL 4
REMARK VINA RESULT:      -8.2      2.298      6.502
REMARK  Name = Fusafungine
REMARK  21 active torsions:
REMARK  status: ('A' for Active; 'I' for Inactive)
REMARK    1  A    between atoms: C_2  and  C_49
REMARK    2  A    between atoms: C_6  and  C_8
REMARK    3  A    between atoms: C_8  and  C_9
REMARK    4  A    between atoms: C_8  and  C_10
REMARK    5  A    between atoms: N_11  and  C_12
REMARK    6  A    between atoms: C_15  and  C_46
REMARK    7  A    between atoms: C_20  and  C_22
REMARK    8  A    between atoms: C_22  and  C_23
REMARK    9  A    between atoms: C_22  and  C_24
REMARK   10  A    between atoms: N_25  and  C_26
REMARK   11  A    between atoms: C_29  and  C_43
REMARK   12  A    between atoms: C_34  and  C_36
REMARK   13  A    between atoms: C_36  and  C_37
REMARK   14  A    between atoms: C_36  and  C_38
REMARK   15  A    between atoms: N_39  and  C_40
REMARK   16  A    between atoms: C_43  and  C_44
REMARK   17  A    between atoms: C_43  and  C_45
REMARK   18  A    between atoms: C_46  and  C_47
REMARK   19  A    between atoms: C_46  and  C_48
REMARK   20  A    between atoms: C_49  and  C_50
REMARK   21  A    between atoms: C_49  and  C_51
REMARK                            x       y       z     vdW  Elec       q    Type
REMARK                         _______ _______ _______ _____ _____    ______ ____
ROOT
ATOM      1  C   UNL     1      -6.613   1.280 134.033  0.00  0.00    +0.000 C 
ATOM      2  O   UNL     1      -5.429   2.255 133.970  0.00  0.00    +0.000 OA
ATOM      3  C   UNL     1      -5.537   3.637 133.829  0.00  0.00    +0.000 C 
ATOM      4  O   UNL     1      -6.249   4.318 134.573  0.00  0.00    +0.000 OA
ATOM      5  C   UNL     1      -4.587   4.268 132.641  0.00  0.00    +0.000 C 
ATOM      6  N   UNL     1      -5.020   5.493 131.759  0.00  0.00    +0.000 N 
ATOM      7  C   UNL     1      -6.050   6.425 132.239  0.00  0.00    +0.000 C 
ATOM      8  C   UNL     1      -4.538   5.653 130.420  0.00  0.00    +0.000 C 
ATOM      9  O   UNL     1      -3.340   5.740 130.144  0.00  0.00    +0.000 OA
ATOM     10  C   UNL     1      -5.559   5.569 129.227  0.00  0.00    +0.000 C 
ATOM     11  O   UNL     1      -4.705   5.038 128.082  0.00  0.00    +0.000 OA
ATOM     12  C   UNL     1      -5.076   4.460 126.892  0.00  0.00    +0.000 C 
ATOM     13  O   UNL     1      -5.805   5.068 126.072  0.00  0.00    +0.000 OA
ATOM     14  C   UNL     1      -4.590   2.879 126.760  0.00  0.00    +0.000 C 
ATOM     15  N   UNL     1      -5.406   1.712 125.936  0.00  0.00    +0.000 N 
ATOM     16  C   UNL     1      -6.542   2.174 125.104  0.00  0.00    +0.000 C 
ATOM     17  C   UNL     1      -5.518   0.273 126.277  0.00  0.00    +0.000 C 
ATOM     18  O   UNL     1      -5.196  -0.561 125.425  0.00  0.00    +0.000 OA
ATOM     19  C   UNL     1      -6.208  -0.313 127.664  0.00  0.00    +0.000 C 
ATOM     20  O   UNL     1      -5.766  -1.482 128.427  0.00  0.00    +0.000 OA
ATOM     21  C   UNL     1      -6.444  -1.862 129.600  0.00  0.00    +0.000 C 
ATOM     22  O   UNL     1      -7.575  -2.344 129.540  0.00  0.00    +0.000 OA
ATOM     23  C   UNL     1      -5.663  -1.419 131.089  0.00  0.00    +0.000 C 
ATOM     24  N   UNL     1      -6.564  -0.941 132.421  0.00  0.00    +0.000 N 
ATOM     25  C   UNL     1      -8.022  -1.225 132.327  0.00  0.00    +0.000 C 
ATOM     26  C   UNL     1      -6.028  -0.160 133.554  0.00  0.00    +0.000 C 
ATOM     27  O   UNL     1      -4.974  -0.425 134.139  0.00  0.00    +0.000 OA
ENDROOT
BRANCH   5  28
ATOM     28  C   UNL     1      -3.280   4.455 133.383  0.00  0.00    +0.000 C 
ATOM     29  C   UNL     1      -2.122   3.820 132.595  0.00  0.00    +0.000 C 
ATOM     30  C   UNL     1      -2.974   5.919 133.555  0.00  0.00    +0.000 C 
ENDBRANCH   5  28
BRANCH  14  31
ATOM     31  C   UNL     1      -3.083   2.640 126.758  0.00  0.00    +0.000 C 
ATOM     32  C   UNL     1      -2.399   3.718 125.901  0.00  0.00    +0.000 C 
ATOM     33  C   UNL     1      -2.497   2.801 128.169  0.00  0.00    +0.000 C 
ENDBRANCH  14  31
BRANCH  23  34
ATOM     34  C   UNL     1      -4.477  -2.325 131.302  0.00  0.00    +0.000 C 
ATOM     35  C   UNL     1      -3.285  -1.508 131.806  0.00  0.00    +0.000 C 
ATOM     36  C   UNL     1      -4.800  -3.320 132.386  0.00  0.00    +0.000 C 
ENDBRANCH  23  34
BRANCH  19  37
ATOM     37  C   UNL     1      -5.926   0.739 128.596  0.00  0.00    +0.000 C 
ATOM     38  C   UNL     1      -6.990   0.787 129.586  0.00  0.00    +0.000 C 
ATOM     39  C   UNL     1      -4.994   0.435 129.648  0.00  0.00    +0.000 C 
ENDBRANCH  19  37
BRANCH  10  40
ATOM     40  C   UNL     1      -6.581   4.515 129.547  0.00  0.00    +0.000 C 
ATOM     41  C   UNL     1      -7.752   4.701 130.454  0.00  0.00    +0.000 C 
ATOM     42  C   UNL     1      -7.353   4.071 128.307  0.00  0.00    +0.000 C 
ENDBRANCH  10  40
BRANCH   1  43
ATOM     43  C   UNL     1      -7.589   1.804 133.050  0.00  0.00    +0.000 C 
ATOM     44  C   UNL     1      -8.580   2.852 133.410  0.00  0.00    +0.000 C 
ATOM     45  C   UNL     1      -6.679   2.283 132.022  0.00  0.00    +0.000 C 
ENDBRANCH   1  43
TORSDOF 6
ENDMDL
MODEL 5
REMARK VINA RESULT:      -8.1      2.237      6.658
REMARK  Name = Fusafungine
REMARK  21 active torsions:
REMARK  status: ('A' for Active; 'I' for Inactive)
REMARK    1  A    between atoms: C_2  and  C_49
REMARK    2  A    between atoms: C_6  and  C_8
REMARK    3  A    between atoms: C_8  and  C_9
REMARK    4  A    between atoms: C_8  and  C_10
REMARK    5  A    between atoms: N_11  and  C_12
REMARK    6  A    between atoms: C_15  and  C_46
REMARK    7  A    between atoms: C_20  and  C_22
REMARK    8  A    between atoms: C_22  and  C_23
REMARK    9  A    between atoms: C_22  and  C_24
REMARK   10  A    between atoms: N_25  and  C_26
REMARK   11  A    between atoms: C_29  and  C_43
REMARK   12  A    between atoms: C_34  and  C_36
REMARK   13  A    between atoms: C_36  and  C_37
REMARK   14  A    between atoms: C_36  and  C_38
REMARK   15  A    between atoms: N_39  and  C_40
REMARK   16  A    between atoms: C_43  and  C_44
REMARK   17  A    between atoms: C_43  and  C_45
REMARK   18  A    between atoms: C_46  and  C_47
REMARK   19  A    between atoms: C_46  and  C_48
REMARK   20  A    between atoms: C_49  and  C_50
REMARK   21  A    between atoms: C_49  and  C_51
REMARK                            x       y       z     vdW  Elec       q    Type
REMARK                         _______ _______ _______ _____ _____    ______ ____
ROOT
ATOM      1  C   UNL     1      -6.510   5.765 130.622  0.00  0.00    +0.000 C 
ATOM      2  O   UNL     1      -5.942   5.002 129.417  0.00  0.00    +0.000 OA
ATOM      3  C   UNL     1      -6.701   4.288 128.492  0.00  0.00    +0.000 C 
ATOM      4  O   UNL     1      -7.665   4.792 127.906  0.00  0.00    +0.000 OA
ATOM      5  C   UNL     1      -6.156   2.760 128.210  0.00  0.00    +0.000 C 
ATOM      6  N   UNL     1      -7.112   1.551 127.913  0.00  0.00    +0.000 N 
ATOM      7  C   UNL     1      -8.472   1.787 127.406  0.00  0.00    +0.000 C 
ATOM      8  C   UNL     1      -6.747   0.210 128.260  0.00  0.00    +0.000 C 
ATOM      9  O   UNL     1      -5.736  -0.344 127.826  0.00  0.00    +0.000 OA
ATOM     10  C   UNL     1      -7.583  -0.547 129.356  0.00  0.00    +0.000 C 
ATOM     11  O   UNL     1      -6.561  -1.497 129.970  0.00  0.00    +0.000 OA
ATOM     12  C   UNL     1      -6.589  -2.183 131.159  0.00  0.00    +0.000 C 
ATOM     13  O   UNL     1      -7.508  -2.995 131.422  0.00  0.00    +0.000 OA
ATOM     14  C   UNL     1      -5.398  -1.703 132.212  0.00  0.00    +0.000 C 
ATOM     15  N   UNL     1      -5.537  -1.707 133.851  0.00  0.00    +0.000 N 
ATOM     16  C   UNL     1      -6.743  -2.370 134.402  0.00  0.00    +0.000 C 
ATOM     17  C   UNL     1      -4.947  -0.743 134.812  0.00  0.00    +0.000 C 
ATOM     18  O   UNL     1      -4.250  -1.183 135.732  0.00  0.00    +0.000 OA
ATOM     19  C   UNL     1      -5.290   0.877 134.849  0.00  0.00    +0.000 C 
ATOM     20  O   UNL     1      -4.350   1.955 135.160  0.00  0.00    +0.000 OA
ATOM     21  C   UNL     1      -4.779   3.296 135.145  0.00  0.00    +0.000 C 
ATOM     22  O   UNL     1      -5.536   3.720 136.017  0.00  0.00    +0.000 OA
ATOM     23  C   UNL     1      -4.331   4.206 133.731  0.00  0.00    +0.000 C 
ATOM     24  N   UNL     1      -5.371   5.351 133.084  0.00  0.00    +0.000 N 
ATOM     25  C   UNL     1      -6.510   5.733 133.964  0.00  0.00    +0.000 C 
ATOM     26  C   UNL     1      -5.296   5.859 131.699  0.00  0.00    +0.000 C 
ATOM     27  O   UNL     1      -4.253   6.240 131.159  0.00  0.00    +0.000 OA
ENDROOT
BRANCH   5  28
ATOM     28  C   UNL     1      -5.113   3.017 127.142  0.00  0.00    +0.000 C 
ATOM     29  C   UNL     1      -3.749   2.457 127.581  0.00  0.00    +0.000 C 
ATOM     30  C   UNL     1      -5.497   2.341 125.854  0.00  0.00    +0.000 C 
ENDBRANCH   5  28
BRANCH  14  31
ATOM     31  C   UNL     1      -3.964  -1.946 131.754  0.00  0.00    +0.000 C 
ATOM     32  C   UNL     1      -3.867  -3.335 131.099  0.00  0.00    +0.000 C 
ATOM     33  C   UNL     1      -3.556  -0.946 130.662  0.00  0.00    +0.000 C 
ENDBRANCH  14  31
BRANCH  23  34
ATOM     34  C   UNL     1      -2.859   4.520 133.805  0.00  0.00    +0.000 C 
ATOM     35  C   UNL     1      -2.208   4.276 132.441  0.00  0.00    +0.000 C 
ATOM     36  C   UNL     1      -2.678   5.985 134.106  0.00  0.00    +0.000 C 
ENDBRANCH  23  34
BRANCH  19  37
ATOM     37  C   UNL     1      -5.565   1.148 133.468  0.00  0.00    +0.000 C 
ATOM     38  C   UNL     1      -6.566   2.197 133.387  0.00  0.00    +0.000 C 
ATOM     39  C   UNL     1      -4.639   2.011 132.786  0.00  0.00    +0.000 C 
ENDBRANCH  19  37
BRANCH  10  40
ATOM     40  C   UNL     1      -7.974   0.435 130.423  0.00  0.00    +0.000 C 
ATOM     41  C   UNL     1      -8.996   1.512 130.265  0.00  0.00    +0.000 C 
ATOM     42  C   UNL     1      -8.590  -0.254 131.638  0.00  0.00    +0.000 C 
ENDBRANCH  10  40
BRANCH   1  43
ATOM     43  C   UNL     1      -7.602   4.907 131.134  0.00  0.00    +0.000 C 
ATOM     44  C   UNL     1      -8.982   4.979 130.584  0.00  0.00    +0.000 C 
ATOM     45  C   UNL     1      -7.021   3.594 130.903  0.00  0.00    +0.000 C 
ENDBRANCH   1  43
TORSDOF 6
ENDMDL
MODEL 6
REMARK VINA RESULT:      -8.1      1.688      6.495
REMARK  Name = Fusafungine
REMARK  21 active torsions:
REMARK  status: ('A' for Active; 'I' for Inactive)
REMARK    1  A    between atoms: C_2  and  C_49
REMARK    2  A    between atoms: C_6  and  C_8
REMARK    3  A    between atoms: C_8  and  C_9
REMARK    4  A    between atoms: C_8  and  C_10
REMARK    5  A    between atoms: N_11  and  C_12
REMARK    6  A    between atoms: C_15  and  C_46
REMARK    7  A    between atoms: C_20  and  C_22
REMARK    8  A    between atoms: C_22  and  C_23
REMARK    9  A    between atoms: C_22  and  C_24
REMARK   10  A    between atoms: N_25  and  C_26
REMARK   11  A    between atoms: C_29  and  C_43
REMARK   12  A    between atoms: C_34  and  C_36
REMARK   13  A    between atoms: C_36  and  C_37
REMARK   14  A    between atoms: C_36  and  C_38
REMARK   15  A    between atoms: N_39  and  C_40
REMARK   16  A    between atoms: C_43  and  C_44
REMARK   17  A    between atoms: C_43  and  C_45
REMARK   18  A    between atoms: C_46  and  C_47
REMARK   19  A    between atoms: C_46  and  C_48
REMARK   20  A    between atoms: C_49  and  C_50
REMARK   21  A    between atoms: C_49  and  C_51
REMARK                            x       y       z     vdW  Elec       q    Type
REMARK                         _______ _______ _______ _____ _____    ______ ____
ROOT
ATOM      1  C   UNL     1      -6.219  -0.874 126.840  0.00  0.00    +0.000 C 
ATOM      2  O   UNL     1      -5.216  -0.977 127.998  0.00  0.00    +0.000 OA
ATOM      3  C   UNL     1      -5.429  -1.682 129.180  0.00  0.00    +0.000 C 
ATOM      4  O   UNL     1      -5.779  -2.866 129.183  0.00  0.00    +0.000 OA
ATOM      5  C   UNL     1      -5.107  -0.819 130.545  0.00  0.00    +0.000 C 
ATOM      6  N   UNL     1      -5.924  -0.984 131.875  0.00  0.00    +0.000 N 
ATOM      7  C   UNL     1      -6.685  -2.216 132.130  0.00  0.00    +0.000 C 
ATOM      8  C   UNL     1      -6.070   0.100 132.799  0.00  0.00    +0.000 C 
ATOM      9  O   UNL     1      -5.111   0.662 133.331  0.00  0.00    +0.000 OA
ATOM     10  C   UNL     1      -7.501   0.708 133.041  0.00  0.00    +0.000 C 
ATOM     11  O   UNL     1      -7.200   2.159 133.398  0.00  0.00    +0.000 OA
ATOM     12  C   UNL     1      -8.022   3.259 133.407  0.00  0.00    +0.000 C 
ATOM     13  O   UNL     1      -9.057   3.294 134.117  0.00  0.00    +0.000 OA
ATOM     14  C   UNL     1      -7.578   4.409 132.297  0.00  0.00    +0.000 C 
ATOM     15  N   UNL     1      -8.622   5.414 131.518  0.00  0.00    +0.000 N 
ATOM     16  C   UNL     1     -10.022   5.404 132.003  0.00  0.00    +0.000 C 
ATOM     17  C   UNL     1      -8.520   5.926 130.130  0.00  0.00    +0.000 C 
ATOM     18  O   UNL     1      -8.562   7.147 129.948  0.00  0.00    +0.000 OA
ATOM     19  C   UNL     1      -8.524   4.974 128.774  0.00  0.00    +0.000 C 
ATOM     20  O   UNL     1      -7.751   5.202 127.552  0.00  0.00    +0.000 OA
ATOM     21  C   UNL     1      -7.845   4.300 126.475  0.00  0.00    +0.000 C 
ATOM     22  O   UNL     1      -8.872   4.237 125.800  0.00  0.00    +0.000 OA
ATOM     23  C   UNL     1      -6.518   3.187 126.318  0.00  0.00    +0.000 C 
ATOM     24  N   UNL     1      -6.779   1.609 125.812  0.00  0.00    +0.000 N 
ATOM     25  C   UNL     1      -8.124   1.350 125.229  0.00  0.00    +0.000 C 
ATOM     26  C   UNL     1      -5.840   0.492 126.044  0.00  0.00    +0.000 C 
ATOM     27  O   UNL     1      -4.627   0.552 125.822  0.00  0.00    +0.000 OA
ENDROOT
BRANCH   5  28
ATOM     28  C   UNL     1      -3.616  -1.048 130.688  0.00  0.00    +0.000 C 
ATOM     29  C   UNL     1      -3.268  -1.407 132.143  0.00  0.00    +0.000 C 
ATOM     30  C   UNL     1      -3.168  -2.185 129.810  0.00  0.00    +0.000 C 
ENDBRANCH   5  28
BRANCH  14  31
ATOM     31  C   UNL     1      -6.210   5.050 132.508  0.00  0.00    +0.000 C 
ATOM     32  C   UNL     1      -5.955   5.217 134.016  0.00  0.00    +0.000 C 
ATOM     33  C   UNL     1      -5.087   4.134 131.999  0.00  0.00    +0.000 C 
ENDBRANCH  14  31
BRANCH  23  34
ATOM     34  C   UNL     1      -5.321   3.932 125.786  0.00  0.00    +0.000 C 
ATOM     35  C   UNL     1      -4.039   3.350 126.386  0.00  0.00    +0.000 C 
ATOM     36  C   UNL     1      -5.227   3.722 124.297  0.00  0.00    +0.000 C 
ENDBRANCH  23  34
BRANCH  19  37
ATOM     37  C   UNL     1      -7.911   3.773 129.261  0.00  0.00    +0.000 C 
ATOM     38  C   UNL     1      -8.579   2.630 128.661  0.00  0.00    +0.000 C 
ATOM     39  C   UNL     1      -6.691   3.367 128.618  0.00  0.00    +0.000 C 
ENDBRANCH  19  37
BRANCH  10  40
ATOM     40  C   UNL     1      -8.244   0.715 131.735  0.00  0.00    +0.000 C 
ATOM     41  C   UNL     1      -8.579  -0.497 130.932  0.00  0.00    +0.000 C 
ATOM     42  C   UNL     1      -9.662   1.257 131.887  0.00  0.00    +0.000 C 
ENDBRANCH  10  40
BRANCH   1  43
ATOM     43  C   UNL     1      -7.542  -0.752 127.493  0.00  0.00    +0.000 C 
ATOM     44  C   UNL     1      -8.401   0.448 127.309  0.00  0.00    +0.000 C 
ATOM     45  C   UNL     1      -8.194  -1.940 126.968  0.00  0.00    +0.000 C 
ENDBRANCH   1  43
TORSDOF 6
ENDMDL
MODEL 7
REMARK VINA RESULT:      -8.0      1.656      6.305
REMARK  Name = Fusafungine
REMARK  21 active torsions:
REMARK  status: ('A' for Active; 'I' for Inactive)
REMARK    1  A    between atoms: C_2  and  C_49
REMARK    2  A    between atoms: C_6  and  C_8
REMARK    3  A    between atoms: C_8  and  C_9
REMARK    4  A    between atoms: C_8  and  C_10
REMARK    5  A    between atoms: N_11  and  C_12
REMARK    6  A    between atoms: C_15  and  C_46
REMARK    7  A    between atoms: C_20  and  C_22
REMARK    8  A    between atoms: C_22  and  C_23
REMARK    9  A    between atoms: C_22  and  C_24
REMARK   10  A    between atoms: N_25  and  C_26
REMARK   11  A    between atoms: C_29  and  C_43
REMARK   12  A    between atoms: C_34  and  C_36
REMARK   13  A    between atoms: C_36  and  C_37
REMARK   14  A    between atoms: C_36  and  C_38
REMARK   15  A    between atoms: N_39  and  C_40
REMARK   16  A    between atoms: C_43  and  C_44
REMARK   17  A    between atoms: C_43  and  C_45
REMARK   18  A    between atoms: C_46  and  C_47
REMARK   19  A    between atoms: C_46  and  C_48
REMARK   20  A    between atoms: C_49  and  C_50
REMARK   21  A    between atoms: C_49  and  C_51
REMARK                            x       y       z     vdW  Elec       q    Type
REMARK                         _______ _______ _______ _____ _____    ______ ____
ROOT
ATOM      1  C   UNL     1      -5.833   1.506 133.696  0.00  0.00    +0.000 C 
ATOM      2  O   UNL     1      -5.018   2.529 132.890  0.00  0.00    +0.000 OA
ATOM      3  C   UNL     1      -5.484   3.775 132.476  0.00  0.00    +0.000 C 
ATOM      4  O   UNL     1      -5.992   4.579 133.263  0.00  0.00    +0.000 OA
ATOM      5  C   UNL     1      -5.231   4.091 130.880  0.00  0.00    +0.000 C 
ATOM      6  N   UNL     1      -6.234   4.920 130.002  0.00  0.00    +0.000 N 
ATOM      7  C   UNL     1      -7.186   5.844 130.635  0.00  0.00    +0.000 C 
ATOM      8  C   UNL     1      -6.350   4.696 128.592  0.00  0.00    +0.000 C 
ATOM      9  O   UNL     1      -5.403   4.814 127.813  0.00  0.00    +0.000 OA
ATOM     10  C   UNL     1      -7.702   4.130 128.020  0.00  0.00    +0.000 C 
ATOM     11  O   UNL     1      -7.253   3.355 126.787  0.00  0.00    +0.000 OA
ATOM     12  C   UNL     1      -7.908   2.394 126.056  0.00  0.00    +0.000 C 
ATOM     13  O   UNL     1      -9.013   2.630 125.510  0.00  0.00    +0.000 OA
ATOM     14  C   UNL     1      -7.163   0.912 126.118  0.00  0.00    +0.000 C 
ATOM     15  N   UNL     1      -7.943  -0.534 126.042  0.00  0.00    +0.000 N 
ATOM     16  C   UNL     1      -9.384  -0.482 125.698  0.00  0.00    +0.000 C 
ATOM     17  C   UNL     1      -7.586  -1.793 126.739  0.00  0.00    +0.000 C 
ATOM     18  O   UNL     1      -7.433  -2.817 126.064  0.00  0.00    +0.000 OA
ATOM     19  C   UNL     1      -7.540  -1.977 128.385  0.00  0.00    +0.000 C 
ATOM     20  O   UNL     1      -6.586  -2.790 129.141  0.00  0.00    +0.000 OA
ATOM     21  C   UNL     1      -6.659  -2.846 130.545  0.00  0.00    +0.000 C 
ATOM     22  O   UNL     1      -7.586  -3.437 131.100  0.00  0.00    +0.000 OA
ATOM     23  C   UNL     1      -5.491  -1.874 131.392  0.00  0.00    +0.000 C 
ATOM     24  N   UNL     1      -5.899  -1.094 132.820  0.00  0.00    +0.000 N 
ATOM     25  C   UNL     1      -7.176  -1.543 133.438  0.00  0.00    +0.000 C 
ATOM     26  C   UNL     1      -5.164   0.058 133.380  0.00  0.00    +0.000 C 
ATOM     27  O   UNL     1      -3.935   0.104 133.497  0.00  0.00    +0.000 OA
ENDROOT
BRANCH   5  28
ATOM     28  C   UNL     1      -3.819   4.640 130.913  0.00  0.00    +0.000 C 
ATOM     29  C   UNL     1      -3.001   4.081 129.736  0.00  0.00    +0.000 C 
ATOM     30  C   UNL     1      -3.831   6.140 130.797  0.00  0.00    +0.000 C 
ENDBRANCH   5  28
BRANCH  14  31
ATOM     31  C   UNL     1      -5.760   0.843 125.524  0.00  0.00    +0.000 C 
ATOM     32  C   UNL     1      -4.772   1.551 126.468  0.00  0.00    +0.000 C 
ATOM     33  C   UNL     1      -5.272  -0.610 125.430  0.00  0.00    +0.000 C 
ENDBRANCH  14  31
BRANCH  23  34
ATOM     34  C   UNL     1      -4.142  -2.536 131.285  0.00  0.00    +0.000 C 
ATOM     35  C   UNL     1      -3.082  -1.497 130.913  0.00  0.00    +0.000 C 
ATOM     36  C   UNL     1      -3.748  -3.081 132.634  0.00  0.00    +0.000 C 
ENDBRANCH  23  34
BRANCH  19  37
ATOM     37  C   UNL     1      -7.171  -0.659 128.814  0.00  0.00    +0.000 C 
ATOM     38  C   UNL     1      -7.736  -0.420 130.131  0.00  0.00    +0.000 C 
ATOM     39  C   UNL     1      -5.857  -0.511 129.377  0.00  0.00    +0.000 C 
ENDBRANCH  19  37
BRANCH  10  40
ATOM     40  C   UNL     1      -8.255   3.133 128.997  0.00  0.00    +0.000 C 
ATOM     41  C   UNL     1      -9.207   3.450 130.101  0.00  0.00    +0.000 C 
ATOM     42  C   UNL     1      -9.092   2.059 128.307  0.00  0.00    +0.000 C 
ENDBRANCH  10  40
BRANCH   1  43
ATOM     43  C   UNL     1      -7.201   1.586 133.136  0.00  0.00    +0.000 C 
ATOM     44  C   UNL     1      -8.165   2.635 133.565  0.00  0.00    +0.000 C 
ATOM     45  C   UNL     1      -6.889   1.717 131.722  0.00  0.00    +0.000 C 
ENDBRANCH   1  43
TORSDOF 6
ENDMDL
MODEL 8
REMARK VINA RESULT:      -7.9      2.111      6.548
REMARK  Name = Fusafungine
REMARK  21 active torsions:
REMARK  status: ('A' for Active; 'I' for Inactive)
REMARK    1  A    between atoms: C_2  and  C_49
REMARK    2  A    between atoms: C_6  and  C_8
REMARK    3  A    between atoms: C_8  and  C_9
REMARK    4  A    between atoms: C_8  and  C_10
REMARK    5  A    between atoms: N_11  and  C_12
REMARK    6  A    between atoms: C_15  and  C_46
REMARK    7  A    between atoms: C_20  and  C_22
REMARK    8  A    between atoms: C_22  and  C_23
REMARK    9  A    between atoms: C_22  and  C_24
REMARK   10  A    between atoms: N_25  and  C_26
REMARK   11  A    between atoms: C_29  and  C_43
REMARK   12  A    between atoms: C_34  and  C_36
REMARK   13  A    between atoms: C_36  and  C_37
REMARK   14  A    between atoms: C_36  and  C_38
REMARK   15  A    between atoms: N_39  and  C_40
REMARK   16  A    between atoms: C_43  and  C_44
REMARK   17  A    between atoms: C_43  and  C_45
REMARK   18  A    between atoms: C_46  and  C_47
REMARK   19  A    between atoms: C_46  and  C_48
REMARK   20  A    between atoms: C_49  and  C_50
REMARK   21  A    between atoms: C_49  and  C_51
REMARK                            x       y       z     vdW  Elec       q    Type
REMARK                         _______ _______ _______ _____ _____    ______ ____
ROOT
ATOM      1  C   UNL     1      -4.831   1.613 132.081  0.00  0.00    +0.000 C 
ATOM      2  O   UNL     1      -3.997   2.230 130.949  0.00  0.00    +0.000 OA
ATOM      3  C   UNL     1      -4.317   3.401 130.266  0.00  0.00    +0.000 C 
ATOM      4  O   UNL     1      -4.568   4.456 130.856  0.00  0.00    +0.000 OA
ATOM      5  C   UNL     1      -4.262   3.260 128.627  0.00  0.00    +0.000 C 
ATOM      6  N   UNL     1      -5.243   4.024 127.668  0.00  0.00    +0.000 N 
ATOM      7  C   UNL     1      -5.931   5.240 128.126  0.00  0.00    +0.000 C 
ATOM      8  C   UNL     1      -5.606   3.486 126.391  0.00  0.00    +0.000 C 
ATOM      9  O   UNL     1      -4.780   3.225 125.514  0.00  0.00    +0.000 OA
ATOM     10  C   UNL     1      -7.100   3.067 126.137  0.00  0.00    +0.000 C 
ATOM     11  O   UNL     1      -6.971   1.941 125.118  0.00  0.00    +0.000 OA
ATOM     12  C   UNL     1      -7.872   0.974 124.746  0.00  0.00    +0.000 C 
ATOM     13  O   UNL     1      -8.996   1.275 124.276  0.00  0.00    +0.000 OA
ATOM     14  C   UNL     1      -7.369  -0.562 125.127  0.00  0.00    +0.000 C 
ATOM     15  N   UNL     1      -8.370  -1.805 125.525  0.00  0.00    +0.000 N 
ATOM     16  C   UNL     1      -9.820  -1.564 125.332  0.00  0.00    +0.000 C 
ATOM     17  C   UNL     1      -8.114  -2.899 126.493  0.00  0.00    +0.000 C 
ATOM     18  O   UNL     1      -8.229  -4.066 126.107  0.00  0.00    +0.000 OA
ATOM     19  C   UNL     1      -7.850  -2.676 128.113  0.00  0.00    +0.000 C 
ATOM     20  O   UNL     1      -6.933  -3.446 128.956  0.00  0.00    +0.000 OA
ATOM     21  C   UNL     1      -6.800  -3.139 130.324  0.00  0.00    +0.000 C 
ATOM     22  O   UNL     1      -7.713  -3.386 131.111  0.00  0.00    +0.000 OA
ATOM     23  C   UNL     1      -5.379  -2.231 130.749  0.00  0.00    +0.000 C 
ATOM     24  N   UNL     1      -5.437  -1.061 131.949  0.00  0.00    +0.000 N 
ATOM     25  C   UNL     1      -6.661  -1.090 132.797  0.00  0.00    +0.000 C 
ATOM     26  C   UNL     1      -4.454   0.031 132.099  0.00  0.00    +0.000 C 
ATOM     27  O   UNL     1      -3.231  -0.132 132.069  0.00  0.00    +0.000 OA
ENDROOT
BRANCH   5  28
ATOM     28  C   UNL     1      -2.793   3.519 128.362  0.00  0.00    +0.000 C 
ATOM     29  C   UNL     1      -2.299   2.646 127.196  0.00  0.00    +0.000 C 
ATOM     30  C   UNL     1      -2.568   4.959 127.990  0.00  0.00    +0.000 C 
ENDBRANCH   5  28
BRANCH  14  31
ATOM     31  C   UNL     1      -6.101  -1.042 124.429  0.00  0.00    +0.000 C 
ATOM     32  C   UNL     1      -5.450  -2.156 125.267  0.00  0.00    +0.000 C 
ATOM     33  C   UNL     1      -6.428  -1.686 123.072  0.00  0.00    +0.000 C 
ENDBRANCH  14  31
BRANCH  23  34
ATOM     34  C   UNL     1      -4.183  -3.146 130.684  0.00  0.00    +0.000 C 
ATOM     35  C   UNL     1      -3.027  -2.437 129.973  0.00  0.00    +0.000 C 
ATOM     36  C   UNL     1      -3.706  -3.440 132.083  0.00  0.00    +0.000 C 
ENDBRANCH  23  34
BRANCH  19  37
ATOM     37  C   UNL     1      -7.217  -1.390 128.131  0.00  0.00    +0.000 C 
ATOM     38  C   UNL     1      -7.614  -0.689 129.340  0.00  0.00    +0.000 C 
ATOM     39  C   UNL     1      -5.853  -1.350 128.584  0.00  0.00    +0.000 C 
ENDBRANCH  19  37
BRANCH  10  40
ATOM     40  C   UNL     1      -7.649   2.466 127.399  0.00  0.00    +0.000 C 
ATOM     41  C   UNL     1      -8.198   3.240 128.551  0.00  0.00    +0.000 C 
ATOM     42  C   UNL     1      -8.877   1.598 127.134  0.00  0.00    +0.000 C 
ENDBRANCH  10  40
BRANCH   1  43
ATOM     43  C   UNL     1      -6.239   1.813 131.668  0.00  0.00    +0.000 C 
ATOM     44  C   UNL     1      -6.974   3.070 131.969  0.00  0.00    +0.000 C 
ATOM     45  C   UNL     1      -6.110   1.620 130.233  0.00  0.00    +0.000 C 
ENDBRANCH   1  43
TORSDOF 6
ENDMDL
MODEL 9
REMARK VINA RESULT:      -7.7      1.634      6.358
REMARK  Name = Fusafungine
REMARK  21 active torsions:
REMARK  status: ('A' for Active; 'I' for Inactive)
REMARK    1  A    between atoms: C_2  and  C_49
REMARK    2  A    between atoms: C_6  and  C_8
REMARK    3  A    between atoms: C_8  and  C_9
REMARK    4  A    between atoms: C_8  and  C_10
REMARK    5  A    between atoms: N_11  and  C_12
REMARK    6  A    between atoms: C_15  and  C_46
REMARK    7  A    between atoms: C_20  and  C_22
REMARK    8  A    between atoms: C_22  and  C_23
REMARK    9  A    between atoms: C_22  and  C_24
REMARK   10  A    between atoms: N_25  and  C_26
REMARK   11  A    between atoms: C_29  and  C_43
REMARK   12  A    between atoms: C_34  and  C_36
REMARK   13  A    between atoms: C_36  and  C_37
REMARK   14  A    between atoms: C_36  and  C_38
REMARK   15  A    between atoms: N_39  and  C_40
REMARK   16  A    between atoms: C_43  and  C_44
REMARK   17  A    between atoms: C_43  and  C_45
REMARK   18  A    between atoms: C_46  and  C_47
REMARK   19  A    between atoms: C_46  and  C_48
REMARK   20  A    between atoms: C_49  and  C_50
REMARK   21  A    between atoms: C_49  and  C_51
REMARK                            x       y       z     vdW  Elec       q    Type
REMARK                         _______ _______ _______ _____ _____    ______ ____
ROOT
ATOM      1  C   UNL     1      -5.828   0.676 133.321  0.00  0.00    +0.000 C 
ATOM      2  O   UNL     1      -5.003   1.831 132.735  0.00  0.00    +0.000 OA
ATOM      3  C   UNL     1      -5.454   3.141 132.585  0.00  0.00    +0.000 C 
ATOM      4  O   UNL     1      -5.951   3.775 133.521  0.00  0.00    +0.000 OA
ATOM      5  C   UNL     1      -5.201   3.771 131.085  0.00  0.00    +0.000 C 
ATOM      6  N   UNL     1      -6.196   4.773 130.398  0.00  0.00    +0.000 N 
ATOM      7  C   UNL     1      -7.135   5.560 131.210  0.00  0.00    +0.000 C 
ATOM      8  C   UNL     1      -6.318   4.841 128.973  0.00  0.00    +0.000 C 
ATOM      9  O   UNL     1      -5.371   5.104 128.230  0.00  0.00    +0.000 OA
ATOM     10  C   UNL     1      -7.677   4.419 128.304  0.00  0.00    +0.000 C 
ATOM     11  O   UNL     1      -7.241   3.905 126.937  0.00  0.00    +0.000 OA
ATOM     12  C   UNL     1      -7.910   3.120 126.030  0.00  0.00    +0.000 C 
ATOM     13  O   UNL     1      -9.013   3.475 125.549  0.00  0.00    +0.000 OA
ATOM     14  C   UNL     1      -7.182   1.648 125.787  0.00  0.00    +0.000 C 
ATOM     15  N   UNL     1      -7.980   0.256 125.422  0.00  0.00    +0.000 N 
ATOM     16  C   UNL     1      -9.421   0.395 125.102  0.00  0.00    +0.000 C 
ATOM     17  C   UNL     1      -7.637  -1.122 125.847  0.00  0.00    +0.000 C 
ATOM     18  O   UNL     1      -7.499  -1.989 124.978  0.00  0.00    +0.000 OA
ATOM     19  C   UNL     1      -7.590  -1.636 127.421  0.00  0.00    +0.000 C 
ATOM     20  O   UNL     1      -6.645  -2.597 127.993  0.00  0.00    +0.000 OA
ATOM     21  C   UNL     1      -6.716  -2.936 129.357  0.00  0.00    +0.000 C 
ATOM     22  O   UNL     1      -7.648  -3.616 129.784  0.00  0.00    +0.000 OA
ATOM     23  C   UNL     1      -5.534  -2.169 130.377  0.00  0.00    +0.000 C 
ATOM     24  N   UNL     1      -5.928  -1.691 131.936  0.00  0.00    +0.000 N 
ATOM     25  C   UNL     1      -7.210  -2.241 132.456  0.00  0.00    +0.000 C 
ATOM     26  C   UNL     1      -5.178  -0.685 132.715  0.00  0.00    +0.000 C 
ATOM     27  O   UNL     1      -3.949  -0.679 132.833  0.00  0.00    +0.000 OA
ENDROOT
BRANCH   5  28
ATOM     28  C   UNL     1      -3.782   4.285 131.222  0.00  0.00    +0.000 C 
ATOM     29  C   UNL     1      -2.989   4.015 129.932  0.00  0.00    +0.000 C 
ATOM     30  C   UNL     1      -3.779   5.770 131.465  0.00  0.00    +0.000 C 
ENDBRANCH   5  28
BRANCH  14  31
ATOM     31  C   UNL     1      -5.782   1.685 125.184  0.00  0.00    +0.000 C 
ATOM     32  C   UNL     1      -5.648   2.927 124.286  0.00  0.00    +0.000 C 
ATOM     33  C   UNL     1      -4.715   1.848 126.277  0.00  0.00    +0.000 C 
ENDBRANCH  14  31
BRANCH  23  34
ATOM     34  C   UNL     1      -4.193  -2.812 130.132  0.00  0.00    +0.000 C 
ATOM     35  C   UNL     1      -3.096  -1.745 130.147  0.00  0.00    +0.000 C 
ATOM     36  C   UNL     1      -3.882  -3.758 131.263  0.00  0.00    +0.000 C 
ENDBRANCH  23  34
BRANCH  19  37
ATOM     37  C   UNL     1      -7.204  -0.438 128.107  0.00  0.00    +0.000 C 
ATOM     38  C   UNL     1      -7.741  -0.477 129.457  0.00  0.00    +0.000 C 
ATOM     39  C   UNL     1      -5.878  -0.413 128.661  0.00  0.00    +0.000 C 
ENDBRANCH  19  37
BRANCH  10  40
ATOM     40  C   UNL     1      -8.240   3.251 129.061  0.00  0.00    +0.000 C 
ATOM     41  C   UNL     1      -9.235   3.345 130.170  0.00  0.00    +0.000 C 
ATOM     42  C   UNL     1      -9.033   2.311 128.157  0.00  0.00    +0.000 C 
ENDBRANCH  10  40
BRANCH   1  43
ATOM     43  C   UNL     1      -7.197   0.884 132.796  0.00  0.00    +0.000 C 
ATOM     44  C   UNL     1      -8.116   1.898 133.378  0.00  0.00    +0.000 C 
ATOM     45  C   UNL     1      -6.891   1.199 131.410  0.00  0.00    +0.000 C 
ENDBRANCH   1  43
TORSDOF 6
ENDMDL
