MODEL 1
REMARK VINA RESULT:      -8.4      0.000      0.000
REMARK  Name = Fusidic acid
REMARK  16 active torsions:
REMARK  status: ('A' for Active; 'I' for Inactive)
REMARK    1  A    between atoms: C_4  and  O_5
REMARK    2  A    between atoms: C_8  and  C_9
REMARK    3  A    between atoms: C_12  and  O_13
REMARK    4  A    between atoms: C_14  and  C_15
REMARK    5  A    between atoms: C_20  and  C_21
REMARK    6  A    between atoms: C_22  and  C_23
REMARK    7  A    between atoms: C_25  and  O_26
REMARK    8  A    between atoms: O_26  and  C_27
REMARK    9  A    between atoms: C_27  and  C_28
REMARK   10  A    between atoms: C_31  and  C_32
REMARK   11  A    between atoms: C_31  and  C_38
REMARK   12  A    between atoms: C_32  and  C_33
REMARK   13  A    between atoms: C_33  and  C_34
REMARK   14  A    between atoms: C_35  and  C_36
REMARK   15  A    between atoms: C_35  and  C_37
REMARK   16  A    between atoms: C_38  and  O_39
REMARK                            x       y       z     vdW  Elec       q    Type
REMARK                         _______ _______ _______ _____ _____    ______ ____
ROOT
ATOM      1  C   UNL     1      -4.286   0.362 133.237  0.00  0.00    +0.000 C 
ATOM      2  C   UNL     1      -3.102   1.989 133.088  0.00  0.00    +0.000 C 
ATOM      3  C   UNL     1      -4.103   3.518 133.593  0.00  0.00    +0.000 C 
ATOM      4  C   UNL     1      -6.151   3.413 132.723  0.00  0.00    +0.000 C 
ATOM      5  C   UNL     1      -7.175   4.170 134.337  0.00  0.00    +0.000 C 
ATOM      6  C   UNL     1      -5.986   4.411 136.239  0.00  0.00    +0.000 C 
ATOM      7  C   UNL     1      -7.358   5.818 133.698  0.00  0.00    +0.000 C 
ATOM      8  C   UNL     1      -8.410   5.013 133.438  0.00  0.00    +0.000 C 
ATOM      9  C   UNL     1      -9.494   5.455 132.711  0.00  0.00    +0.000 C 
ATOM     10  C   UNL     1      -9.537   4.187 132.004  0.00  0.00    +0.000 C 
ATOM     11  C   UNL     1      -9.050   4.408 130.495  0.00  0.00    +0.000 C 
ATOM     12  C   UNL     1      -8.724   3.071 133.359  0.00  0.00    +0.000 C 
ATOM     13  C   UNL     1      -9.807   2.307 132.017  0.00  0.00    +0.000 C 
ATOM     14  C   UNL     1      -9.194   1.084 131.945  0.00  0.00    +0.000 C 
ATOM     15  C   UNL     1      -7.230   1.540 131.724  0.00  0.00    +0.000 C 
ATOM     16  C   UNL     1      -8.044   0.561 130.118  0.00  0.00    +0.000 C 
ATOM     17  C   UNL     1      -6.140  -0.198 132.328  0.00  0.00    +0.000 C 
ATOM     18  C   UNL     1      -7.238  -2.076 132.336  0.00  0.00    +0.000 C 
ATOM     19  C   UNL     1      -5.492  -1.117 131.414  0.00  0.00    +0.000 C 
ATOM     20  C   UNL     1      -4.815  -1.142 132.693  0.00  0.00    +0.000 C 
ATOM     21  C   UNL     1      -3.808  -0.041 132.027  0.00  0.00    +0.000 C 
ATOM     22  C   UNL     1      -4.194   0.961 131.130  0.00  0.00    +0.000 C 
ENDROOT
BRANCH   3  23
ATOM     23  O   UNL     1      -2.536   4.149 133.740  0.00  0.00    +0.000 OA
ATOM     24  H   UNL     1      -2.167   4.899 133.238  0.00  0.00    +0.000 HD
ENDBRANCH   3  23
BRANCH   9  25
ATOM     25  O   UNL     1      -8.959   6.530 132.016  0.00  0.00    +0.000 OA
ATOM     26  H   UNL     1      -9.518   7.317 132.234  0.00  0.00    +0.000 HD
ENDBRANCH   9  25
BRANCH  22  27
ATOM     27  C   UNL     1      -4.700   0.655 129.770  0.00  0.00    +0.000 C 
ATOM     28  O   UNL     1      -5.243  -0.386 129.443  0.00  0.00    +0.000 OA
BRANCH  27  29
ATOM     29  O   UNL     1      -3.986   1.422 128.945  0.00  0.00    +0.000 OA
ATOM     30  H   UNL     1      -4.350   2.328 128.939  0.00  0.00    +0.000 HD
ENDBRANCH  27  29
ENDBRANCH  22  27
BRANCH  20  31
ATOM     31  O   UNL     1      -5.931  -0.790 134.138  0.00  0.00    +0.000 OA
BRANCH  31  32
ATOM     32  C   UNL     1      -5.879  -1.421 135.487  0.00  0.00    +0.000 C 
ATOM     33  C   UNL     1      -5.489  -2.886 135.561  0.00  0.00    +0.000 C 
ATOM     34  O   UNL     1      -6.420  -1.034 136.523  0.00  0.00    +0.000 OA
ENDBRANCH  31  32
ENDBRANCH  20  31
BRANCH  22  35
ATOM     35  C   UNL     1      -5.204   1.829 131.703  0.00  0.00    +0.000 C 
BRANCH  35  36
ATOM     36  C   UNL     1      -5.570   3.006 130.910  0.00  0.00    +0.000 C 
BRANCH  36  37
ATOM     37  C   UNL     1      -5.009   4.405 129.835  0.00  0.00    +0.000 C 
ATOM     38  C   UNL     1      -3.533   5.167 130.349  0.00  0.00    +0.000 C 
ATOM     39  C   UNL     1      -4.205   6.578 131.439  0.00  0.00    +0.000 C 
ATOM     40  C   UNL     1      -2.416   5.902 128.797  0.00  0.00    +0.000 C 
ENDBRANCH  36  37
ENDBRANCH  35  36
ENDBRANCH  22  35
TORSDOF 9
ENDMDL
MODEL 2
REMARK VINA RESULT:      -8.3      2.456      7.000
REMARK  Name = Fusidic acid
REMARK  16 active torsions:
REMARK  status: ('A' for Active; 'I' for Inactive)
REMARK    1  A    between atoms: C_4  and  O_5
REMARK    2  A    between atoms: C_8  and  C_9
REMARK    3  A    between atoms: C_12  and  O_13
REMARK    4  A    between atoms: C_14  and  C_15
REMARK    5  A    between atoms: C_20  and  C_21
REMARK    6  A    between atoms: C_22  and  C_23
REMARK    7  A    between atoms: C_25  and  O_26
REMARK    8  A    between atoms: O_26  and  C_27
REMARK    9  A    between atoms: C_27  and  C_28
REMARK   10  A    between atoms: C_31  and  C_32
REMARK   11  A    between atoms: C_31  and  C_38
REMARK   12  A    between atoms: C_32  and  C_33
REMARK   13  A    between atoms: C_33  and  C_34
REMARK   14  A    between atoms: C_35  and  C_36
REMARK   15  A    between atoms: C_35  and  C_37
REMARK   16  A    between atoms: C_38  and  O_39
REMARK                            x       y       z     vdW  Elec       q    Type
REMARK                         _______ _______ _______ _____ _____    ______ ____
ROOT
ATOM      1  C   UNL     1      -7.885   6.573 130.942  0.00  0.00    +0.000 C 
ATOM      2  C   UNL     1      -6.005   6.808 131.637  0.00  0.00    +0.000 C 
ATOM      3  C   UNL     1      -4.842   5.696 130.636  0.00  0.00    +0.000 C 
ATOM      4  C   UNL     1      -5.783   3.704 130.307  0.00  0.00    +0.000 C 
ATOM      5  C   UNL     1      -5.148   3.416 128.372  0.00  0.00    +0.000 C 
ATOM      6  C   UNL     1      -4.192   5.195 127.369  0.00  0.00    +0.000 C 
ATOM      7  C   UNL     1      -3.797   2.331 128.769  0.00  0.00    +0.000 C 
ATOM      8  C   UNL     1      -4.943   1.686 128.464  0.00  0.00    +0.000 C 
ATOM      9  C   UNL     1      -5.027   0.310 128.502  0.00  0.00    +0.000 C 
ATOM     10  C   UNL     1      -6.337   0.407 129.120  0.00  0.00    +0.000 C 
ATOM     11  C   UNL     1      -6.231  -0.042 130.653  0.00  0.00    +0.000 C 
ATOM     12  C   UNL     1      -6.859   2.137 128.428  0.00  0.00    +0.000 C 
ATOM     13  C   UNL     1      -8.164   0.916 129.027  0.00  0.00    +0.000 C 
ATOM     14  C   UNL     1      -9.101   1.823 129.448  0.00  0.00    +0.000 C 
ATOM     15  C   UNL     1      -8.054   3.076 130.650  0.00  0.00    +0.000 C 
ATOM     16  C   UNL     1      -9.514   2.015 131.622  0.00  0.00    +0.000 C 
ATOM     17  C   UNL     1      -9.187   4.886 130.761  0.00  0.00    +0.000 C 
ATOM     18  C   UNL     1     -11.295   4.743 130.238  0.00  0.00    +0.000 C 
ATOM     19  C   UNL     1      -9.978   5.288 131.907  0.00  0.00    +0.000 C 
ATOM     20  C   UNL     1      -9.549   6.460 131.174  0.00  0.00    +0.000 C 
ATOM     21  C   UNL     1      -8.306   6.500 132.234  0.00  0.00    +0.000 C 
ATOM     22  C   UNL     1      -7.667   5.375 132.765  0.00  0.00    +0.000 C 
ENDROOT
BRANCH   3  23
ATOM     23  O   UNL     1      -3.703   6.755 131.311  0.00  0.00    +0.000 OA
ATOM     24  H   UNL     1      -3.793   7.723 131.395  0.00  0.00    +0.000 HD
ENDBRANCH   3  23
BRANCH   9  25
ATOM     25  O   UNL     1      -3.973  -0.023 129.340  0.00  0.00    +0.000 OA
ATOM     26  H   UNL     1      -3.147   0.295 128.898  0.00  0.00    +0.000 HD
ENDBRANCH   9  25
BRANCH  22  27
ATOM     27  C   UNL     1      -8.357   4.422 133.667  0.00  0.00    +0.000 C 
ATOM     28  O   UNL     1      -9.540   4.135 133.609  0.00  0.00    +0.000 OA
BRANCH  27  29
ATOM     29  O   UNL     1      -7.634   4.406 134.787  0.00  0.00    +0.000 OA
ATOM     30  H   UNL     1      -8.226   4.357 135.562  0.00  0.00    +0.000 HD
ENDBRANCH  27  29
ENDBRANCH  22  27
BRANCH  20  31
ATOM     31  O   UNL     1      -9.349   6.169 129.348  0.00  0.00    +0.000 OA
BRANCH  31  32
ATOM     32  C   UNL     1      -9.907   6.998 128.242  0.00  0.00    +0.000 C 
ATOM     33  C   UNL     1     -10.785   8.175 128.622  0.00  0.00    +0.000 C 
ATOM     34  O   UNL     1     -10.038   6.685 127.058  0.00  0.00    +0.000 OA
ENDBRANCH  31  32
ENDBRANCH  20  31
BRANCH  22  35
ATOM     35  C   UNL     1      -7.105   4.539 131.721  0.00  0.00    +0.000 C 
BRANCH  35  36
ATOM     36  C   UNL     1      -6.359   3.360 132.168  0.00  0.00    +0.000 C 
BRANCH  36  37
ATOM     37  C   UNL     1      -5.213   2.613 133.414  0.00  0.00    +0.000 C 
ATOM     38  C   UNL     1      -4.211   3.759 134.255  0.00  0.00    +0.000 C 
ATOM     39  C   UNL     1      -2.650   3.759 133.161  0.00  0.00    +0.000 C 
ATOM     40  C   UNL     1      -3.766   3.194 136.174  0.00  0.00    +0.000 C 
ENDBRANCH  36  37
ENDBRANCH  35  36
ENDBRANCH  22  35
TORSDOF 9
ENDMDL
MODEL 3
REMARK VINA RESULT:      -8.1      2.189      6.307
REMARK  Name = Fusidic acid
REMARK  16 active torsions:
REMARK  status: ('A' for Active; 'I' for Inactive)
REMARK    1  A    between atoms: C_4  and  O_5
REMARK    2  A    between atoms: C_8  and  C_9
REMARK    3  A    between atoms: C_12  and  O_13
REMARK    4  A    between atoms: C_14  and  C_15
REMARK    5  A    between atoms: C_20  and  C_21
REMARK    6  A    between atoms: C_22  and  C_23
REMARK    7  A    between atoms: C_25  and  O_26
REMARK    8  A    between atoms: O_26  and  C_27
REMARK    9  A    between atoms: C_27  and  C_28
REMARK   10  A    between atoms: C_31  and  C_32
REMARK   11  A    between atoms: C_31  and  C_38
REMARK   12  A    between atoms: C_32  and  C_33
REMARK   13  A    between atoms: C_33  and  C_34
REMARK   14  A    between atoms: C_35  and  C_36
REMARK   15  A    between atoms: C_35  and  C_37
REMARK   16  A    between atoms: C_38  and  O_39
REMARK                            x       y       z     vdW  Elec       q    Type
REMARK                         _______ _______ _______ _____ _____    ______ ____
ROOT
ATOM      1  C   UNL     1      -8.508   3.805 129.751  0.00  0.00    +0.000 C 
ATOM      2  C   UNL     1      -8.532   5.740 130.327  0.00  0.00    +0.000 C 
ATOM      3  C   UNL     1      -6.745   6.324 130.573  0.00  0.00    +0.000 C 
ATOM      4  C   UNL     1      -5.564   4.751 131.619  0.00  0.00    +0.000 C 
ATOM      5  C   UNL     1      -3.813   4.973 130.562  0.00  0.00    +0.000 C 
ATOM      6  C   UNL     1      -3.919   6.299 128.740  0.00  0.00    +0.000 C 
ATOM      7  C   UNL     1      -2.967   5.943 131.788  0.00  0.00    +0.000 C 
ATOM      8  C   UNL     1      -2.719   4.619 131.874  0.00  0.00    +0.000 C 
ATOM      9  C   UNL     1      -1.905   4.100 132.858  0.00  0.00    +0.000 C 
ATOM     10  C   UNL     1      -2.829   2.995 133.040  0.00  0.00    +0.000 C 
ATOM     11  C   UNL     1      -3.588   3.169 134.439  0.00  0.00    +0.000 C 
ATOM     12  C   UNL     1      -3.604   2.968 131.269  0.00  0.00    +0.000 C 
ATOM     13  C   UNL     1      -3.681   1.438 132.367  0.00  0.00    +0.000 C 
ATOM     14  C   UNL     1      -4.856   0.915 131.893  0.00  0.00    +0.000 C 
ATOM     15  C   UNL     1      -6.151   2.474 131.990  0.00  0.00    +0.000 C 
ATOM     16  C   UNL     1      -6.642   0.904 133.213  0.00  0.00    +0.000 C 
ATOM     17  C   UNL     1      -7.742   2.015 130.637  0.00  0.00    +0.000 C 
ATOM     18  C   UNL     1      -7.972  -0.077 130.084  0.00  0.00    +0.000 C 
ATOM     19  C   UNL     1      -9.060   1.571 131.042  0.00  0.00    +0.000 C 
ATOM     20  C   UNL     1      -9.144   2.246 129.765  0.00  0.00    +0.000 C 
ATOM     21  C   UNL     1      -9.509   3.574 130.644  0.00  0.00    +0.000 C 
ATOM     22  C   UNL     1      -8.963   3.884 131.895  0.00  0.00    +0.000 C 
ENDROOT
BRANCH   3  23
ATOM     23  O   UNL     1      -7.517   7.828 130.452  0.00  0.00    +0.000 OA
ATOM     24  H   UNL     1      -7.330   8.617 130.995  0.00  0.00    +0.000 HD
ENDBRANCH   3  23
BRANCH   9  25
ATOM     25  O   UNL     1      -1.940   5.098 133.820  0.00  0.00    +0.000 OA
ATOM     26  H   UNL     1      -2.684   5.702 133.577  0.00  0.00    +0.000 HD
ENDBRANCH   9  25
BRANCH  22  27
ATOM     27  C   UNL     1      -9.222   3.060 133.099  0.00  0.00    +0.000 C 
ATOM     28  O   UNL     1      -9.343   1.847 133.105  0.00  0.00    +0.000 OA
BRANCH  27  29
ATOM     29  O   UNL     1      -9.814   3.879 133.969  0.00  0.00    +0.000 OA
ATOM     30  H   UNL     1      -9.458   4.782 133.867  0.00  0.00    +0.000 HD
ENDBRANCH  27  29
ENDBRANCH  22  27
BRANCH  20  31
ATOM     31  O   UNL     1      -7.611   2.076 128.726  0.00  0.00    +0.000 OA
BRANCH  31  32
ATOM     32  C   UNL     1      -7.538   2.014 127.239  0.00  0.00    +0.000 C 
ATOM     33  C   UNL     1      -6.186   1.719 126.615  0.00  0.00    +0.000 C 
ATOM     34  O   UNL     1      -8.329   2.490 126.424  0.00  0.00    +0.000 OA
ENDBRANCH  31  32
ENDBRANCH  20  31
BRANCH  22  35
ATOM     35  C   UNL     1      -7.517   3.988 131.833  0.00  0.00    +0.000 C 
BRANCH  35  36
ATOM     36  C   UNL     1      -6.855   4.494 133.038  0.00  0.00    +0.000 C 
BRANCH  36  37
ATOM     37  C   UNL     1      -6.810   4.565 134.887  0.00  0.00    +0.000 C 
ATOM     38  C   UNL     1      -6.741   6.172 135.549  0.00  0.00    +0.000 C 
ATOM     39  C   UNL     1      -4.860   6.419 135.725  0.00  0.00    +0.000 C 
ATOM     40  C   UNL     1      -7.680   6.343 137.362  0.00  0.00    +0.000 C 
ENDBRANCH  36  37
ENDBRANCH  35  36
ENDBRANCH  22  35
TORSDOF 9
ENDMDL
MODEL 4
REMARK VINA RESULT:      -8.1      2.159      6.817
REMARK  Name = Fusidic acid
REMARK  16 active torsions:
REMARK  status: ('A' for Active; 'I' for Inactive)
REMARK    1  A    between atoms: C_4  and  O_5
REMARK    2  A    between atoms: C_8  and  C_9
REMARK    3  A    between atoms: C_12  and  O_13
REMARK    4  A    between atoms: C_14  and  C_15
REMARK    5  A    between atoms: C_20  and  C_21
REMARK    6  A    between atoms: C_22  and  C_23
REMARK    7  A    between atoms: C_25  and  O_26
REMARK    8  A    between atoms: O_26  and  C_27
REMARK    9  A    between atoms: C_27  and  C_28
REMARK   10  A    between atoms: C_31  and  C_32
REMARK   11  A    between atoms: C_31  and  C_38
REMARK   12  A    between atoms: C_32  and  C_33
REMARK   13  A    between atoms: C_33  and  C_34
REMARK   14  A    between atoms: C_35  and  C_36
REMARK   15  A    between atoms: C_35  and  C_37
REMARK   16  A    between atoms: C_38  and  O_39
REMARK                            x       y       z     vdW  Elec       q    Type
REMARK                         _______ _______ _______ _____ _____    ______ ____
ROOT
ATOM      1  C   UNL     1      -6.870   6.041 130.341  0.00  0.00    +0.000 C 
ATOM      2  C   UNL     1      -4.943   5.581 129.955  0.00  0.00    +0.000 C 
ATOM      3  C   UNL     1      -4.867   3.822 129.252  0.00  0.00    +0.000 C 
ATOM      4  C   UNL     1      -6.239   2.484 130.388  0.00  0.00    +0.000 C 
ATOM      5  C   UNL     1      -6.935   1.386 128.794  0.00  0.00    +0.000 C 
ATOM      6  C   UNL     1      -6.374   2.150 126.747  0.00  0.00    +0.000 C 
ATOM      7  C   UNL     1      -5.890  -0.027 129.059  0.00  0.00    +0.000 C 
ATOM      8  C   UNL     1      -7.107  -0.133 129.633  0.00  0.00    +0.000 C 
ATOM      9  C   UNL     1      -7.459  -1.239 130.378  0.00  0.00    +0.000 C 
ATOM     10  C   UNL     1      -8.101  -0.376 131.354  0.00  0.00    +0.000 C 
ATOM     11  C   UNL     1      -7.226  -0.356 132.694  0.00  0.00    +0.000 C 
ATOM     12  C   UNL     1      -8.525   1.112 130.194  0.00  0.00    +0.000 C 
ATOM     13  C   UNL     1      -9.469   0.860 131.806  0.00  0.00    +0.000 C 
ATOM     14  C   UNL     1      -9.754   2.173 132.074  0.00  0.00    +0.000 C 
ATOM     15  C   UNL     1      -7.954   3.097 131.922  0.00  0.00    +0.000 C 
ATOM     16  C   UNL     1      -8.767   3.159 133.802  0.00  0.00    +0.000 C 
ATOM     17  C   UNL     1      -8.370   5.168 131.591  0.00  0.00    +0.000 C 
ATOM     18  C   UNL     1     -10.354   5.860 132.158  0.00  0.00    +0.000 C 
ATOM     19  C   UNL     1      -8.230   6.203 132.596  0.00  0.00    +0.000 C 
ATOM     20  C   UNL     1      -8.060   6.776 131.278  0.00  0.00    +0.000 C 
ATOM     21  C   UNL     1      -6.463   6.550 131.535  0.00  0.00    +0.000 C 
ATOM     22  C   UNL     1      -5.906   5.467 132.224  0.00  0.00    +0.000 C 
ENDROOT
BRANCH   3  23
ATOM     23  O   UNL     1      -3.347   4.386 128.758  0.00  0.00    +0.000 OA
ATOM     24  H   UNL     1      -3.177   5.104 128.119  0.00  0.00    +0.000 HD
ENDBRANCH   3  23
BRANCH   9  25
ATOM     25  O   UNL     1      -6.222  -1.756 130.731  0.00  0.00    +0.000 OA
ATOM     26  H   UNL     1      -5.540  -1.166 130.326  0.00  0.00    +0.000 HD
ENDBRANCH   9  25
BRANCH  22  27
ATOM     27  C   UNL     1      -6.133   5.247 133.672  0.00  0.00    +0.000 C 
ATOM     28  O   UNL     1      -7.075   5.686 134.308  0.00  0.00    +0.000 OA
BRANCH  27  29
ATOM     29  O   UNL     1      -4.927   5.002 134.187  0.00  0.00    +0.000 OA
ATOM     30  H   UNL     1      -4.434   5.839 134.285  0.00  0.00    +0.000 HD
ENDBRANCH  27  29
ENDBRANCH  22  27
BRANCH  20  31
ATOM     31  O   UNL     1      -9.033   5.908 129.952  0.00  0.00    +0.000 OA
BRANCH  31  32
ATOM     32  C   UNL     1      -9.677   6.528 128.760  0.00  0.00    +0.000 C 
ATOM     33  C   UNL     1     -10.805   7.513 129.006  0.00  0.00    +0.000 C 
ATOM     34  O   UNL     1      -9.663   6.122 127.598  0.00  0.00    +0.000 OA
ENDBRANCH  31  32
ENDBRANCH  20  31
BRANCH  22  35
ATOM     35  C   UNL     1      -6.262   4.204 131.607  0.00  0.00    +0.000 C 
BRANCH  35  36
ATOM     36  C   UNL     1      -5.542   3.023 132.091  0.00  0.00    +0.000 C 
BRANCH  36  37
ATOM     37  C   UNL     1      -3.944   2.295 132.678  0.00  0.00    +0.000 C 
ATOM     38  C   UNL     1      -4.117   0.966 133.785  0.00  0.00    +0.000 C 
ATOM     39  C   UNL     1      -4.054   1.870 135.461  0.00  0.00    +0.000 C 
ATOM     40  C   UNL     1      -2.611  -0.416 133.635  0.00  0.00    +0.000 C 
ENDBRANCH  36  37
ENDBRANCH  35  36
ENDBRANCH  22  35
TORSDOF 9
ENDMDL
MODEL 5
REMARK VINA RESULT:      -8.0      1.982      5.946
REMARK  Name = Fusidic acid
REMARK  16 active torsions:
REMARK  status: ('A' for Active; 'I' for Inactive)
REMARK    1  A    between atoms: C_4  and  O_5
REMARK    2  A    between atoms: C_8  and  C_9
REMARK    3  A    between atoms: C_12  and  O_13
REMARK    4  A    between atoms: C_14  and  C_15
REMARK    5  A    between atoms: C_20  and  C_21
REMARK    6  A    between atoms: C_22  and  C_23
REMARK    7  A    between atoms: C_25  and  O_26
REMARK    8  A    between atoms: O_26  and  C_27
REMARK    9  A    between atoms: C_27  and  C_28
REMARK   10  A    between atoms: C_31  and  C_32
REMARK   11  A    between atoms: C_31  and  C_38
REMARK   12  A    between atoms: C_32  and  C_33
REMARK   13  A    between atoms: C_33  and  C_34
REMARK   14  A    between atoms: C_35  and  C_36
REMARK   15  A    between atoms: C_35  and  C_37
REMARK   16  A    between atoms: C_38  and  O_39
REMARK                            x       y       z     vdW  Elec       q    Type
REMARK                         _______ _______ _______ _____ _____    ______ ____
ROOT
ATOM      1  C   UNL     1      -8.129   4.325 133.083  0.00  0.00    +0.000 C 
ATOM      2  C   UNL     1      -6.355   4.338 134.045  0.00  0.00    +0.000 C 
ATOM      3  C   UNL     1      -5.008   4.886 132.828  0.00  0.00    +0.000 C 
ATOM      4  C   UNL     1      -5.320   3.910 130.851  0.00  0.00    +0.000 C 
ATOM      5  C   UNL     1      -4.815   5.515 129.668  0.00  0.00    +0.000 C 
ATOM      6  C   UNL     1      -4.552   7.485 130.734  0.00  0.00    +0.000 C 
ATOM      7  C   UNL     1      -3.165   4.971 129.294  0.00  0.00    +0.000 C 
ATOM      8  C   UNL     1      -4.081   4.609 128.370  0.00  0.00    +0.000 C 
ATOM      9  C   UNL     1      -3.735   3.858 127.268  0.00  0.00    +0.000 C 
ATOM     10  C   UNL     1      -4.947   3.072 127.424  0.00  0.00    +0.000 C 
ATOM     11  C   UNL     1      -4.561   1.606 127.939  0.00  0.00    +0.000 C 
ATOM     12  C   UNL     1      -6.037   4.393 128.322  0.00  0.00    +0.000 C 
ATOM     13  C   UNL     1      -6.842   2.954 127.408  0.00  0.00    +0.000 C 
ATOM     14  C   UNL     1      -7.967   2.836 128.181  0.00  0.00    +0.000 C 
ATOM     15  C   UNL     1      -7.244   2.743 130.073  0.00  0.00    +0.000 C 
ATOM     16  C   UNL     1      -8.209   1.040 129.465  0.00  0.00    +0.000 C 
ATOM     17  C   UNL     1      -8.862   3.291 131.360  0.00  0.00    +0.000 C 
ATOM     18  C   UNL     1     -10.864   3.127 130.522  0.00  0.00    +0.000 C 
ATOM     19  C   UNL     1      -9.625   2.356 132.162  0.00  0.00    +0.000 C 
ATOM     20  C   UNL     1      -9.648   3.663 132.782  0.00  0.00    +0.000 C 
ATOM     21  C   UNL     1      -8.382   3.118 133.660  0.00  0.00    +0.000 C 
ATOM     22  C   UNL     1      -7.380   2.267 133.182  0.00  0.00    +0.000 C 
ENDROOT
BRANCH   3  23
ATOM     23  O   UNL     1      -4.190   5.151 134.289  0.00  0.00    +0.000 OA
ATOM     24  H   UNL     1      -3.531   4.559 134.698  0.00  0.00    +0.000 HD
ENDBRANCH   3  23
BRANCH   9  25
ATOM     25  O   UNL     1      -2.555   3.259 127.683  0.00  0.00    +0.000 OA
ATOM     26  H   UNL     1      -2.801   2.383 128.072  0.00  0.00    +0.000 HD
ENDBRANCH   9  25
BRANCH  22  27
ATOM     27  C   UNL     1      -7.656   0.867 132.778  0.00  0.00    +0.000 C 
ATOM     28  O   UNL     1      -8.705   0.468 132.305  0.00  0.00    +0.000 OA
BRANCH  27  29
ATOM     29  O   UNL     1      -6.827   0.118 133.507  0.00  0.00    +0.000 OA
ATOM     30  H   UNL     1      -7.292  -0.684 133.816  0.00  0.00    +0.000 HD
ENDBRANCH  27  29
ENDBRANCH  22  27
BRANCH  20  31
ATOM     31  O   UNL     1      -9.545   5.069 131.570  0.00  0.00    +0.000 OA
BRANCH  31  32
ATOM     32  C   UNL     1     -10.446   6.254 131.492  0.00  0.00    +0.000 C 
ATOM     33  C   UNL     1     -10.338   7.136 130.262  0.00  0.00    +0.000 C 
ATOM     34  O   UNL     1     -11.033   6.817 132.416  0.00  0.00    +0.000 OA
ENDBRANCH  31  32
ENDBRANCH  20  31
BRANCH  22  35
ATOM     35  C   UNL     1      -6.692   2.841 132.041  0.00  0.00    +0.000 C 
BRANCH  35  36
ATOM     36  C   UNL     1      -5.643   2.017 131.437  0.00  0.00    +0.000 C 
BRANCH  36  37
ATOM     37  C   UNL     1      -4.066   1.076 131.665  0.00  0.00    +0.000 C 
ATOM     38  C   UNL     1      -3.392   1.168 133.266  0.00  0.00    +0.000 C 
ATOM     39  C   UNL     1      -2.211   2.652 133.085  0.00  0.00    +0.000 C 
ATOM     40  C   UNL     1      -2.373  -0.523 133.816  0.00  0.00    +0.000 C 
ENDBRANCH  36  37
ENDBRANCH  35  36
ENDBRANCH  22  35
TORSDOF 9
ENDMDL
MODEL 6
REMARK VINA RESULT:      -8.0      2.465      6.514
REMARK  Name = Fusidic acid
REMARK  16 active torsions:
REMARK  status: ('A' for Active; 'I' for Inactive)
REMARK    1  A    between atoms: C_4  and  O_5
REMARK    2  A    between atoms: C_8  and  C_9
REMARK    3  A    between atoms: C_12  and  O_13
REMARK    4  A    between atoms: C_14  and  C_15
REMARK    5  A    between atoms: C_20  and  C_21
REMARK    6  A    between atoms: C_22  and  C_23
REMARK    7  A    between atoms: C_25  and  O_26
REMARK    8  A    between atoms: O_26  and  C_27
REMARK    9  A    between atoms: C_27  and  C_28
REMARK   10  A    between atoms: C_31  and  C_32
REMARK   11  A    between atoms: C_31  and  C_38
REMARK   12  A    between atoms: C_32  and  C_33
REMARK   13  A    between atoms: C_33  and  C_34
REMARK   14  A    between atoms: C_35  and  C_36
REMARK   15  A    between atoms: C_35  and  C_37
REMARK   16  A    between atoms: C_38  and  O_39
REMARK                            x       y       z     vdW  Elec       q    Type
REMARK                         _______ _______ _______ _____ _____    ______ ____
ROOT
ATOM      1  C   UNL     1      -7.952   2.985 132.077  0.00  0.00    +0.000 C 
ATOM      2  C   UNL     1      -8.742   2.116 130.434  0.00  0.00    +0.000 C 
ATOM      3  C   UNL     1      -7.331   1.627 129.267  0.00  0.00    +0.000 C 
ATOM      4  C   UNL     1      -5.811   3.253 129.179  0.00  0.00    +0.000 C 
ATOM      5  C   UNL     1      -4.135   2.062 129.137  0.00  0.00    +0.000 C 
ATOM      6  C   UNL     1      -4.471  -0.133 129.534  0.00  0.00    +0.000 C 
ATOM      7  C   UNL     1      -3.859   2.175 127.385  0.00  0.00    +0.000 C 
ATOM      8  C   UNL     1      -3.167   3.083 128.106  0.00  0.00    +0.000 C 
ATOM      9  C   UNL     1      -2.356   4.018 127.499  0.00  0.00    +0.000 C 
ATOM     10  C   UNL     1      -2.838   5.033 128.420  0.00  0.00    +0.000 C 
ATOM     11  C   UNL     1      -3.784   6.054 127.628  0.00  0.00    +0.000 C 
ATOM     12  C   UNL     1      -3.315   3.882 129.899  0.00  0.00    +0.000 C 
ATOM     13  C   UNL     1      -2.981   5.715 130.185  0.00  0.00    +0.000 C 
ATOM     14  C   UNL     1      -3.818   5.901 131.254  0.00  0.00    +0.000 C 
ATOM     15  C   UNL     1      -5.586   5.135 130.621  0.00  0.00    +0.000 C 
ATOM     16  C   UNL     1      -5.637   7.150 130.993  0.00  0.00    +0.000 C 
ATOM     17  C   UNL     1      -6.718   4.704 132.383  0.00  0.00    +0.000 C 
ATOM     18  C   UNL     1      -6.109   5.734 134.201  0.00  0.00    +0.000 C 
ATOM     19  C   UNL     1      -7.830   5.502 132.859  0.00  0.00    +0.000 C 
ATOM     20  C   UNL     1      -7.984   4.134 133.307  0.00  0.00    +0.000 C 
ATOM     21  C   UNL     1      -8.911   3.946 131.974  0.00  0.00    +0.000 C 
ATOM     22  C   UNL     1      -8.679   4.564 130.741  0.00  0.00    +0.000 C 
ENDROOT
BRANCH   3  23
ATOM     23  O   UNL     1      -8.568   0.656 128.633  0.00  0.00    +0.000 OA
ATOM     24  H   UNL     1      -8.452  -0.122 128.055  0.00  0.00    +0.000 HD
ENDBRANCH   3  23
BRANCH   9  25
ATOM     25  O   UNL     1      -2.870   4.058 126.212  0.00  0.00    +0.000 OA
ATOM     26  H   UNL     1      -3.582   3.372 126.169  0.00  0.00    +0.000 HD
ENDBRANCH   9  25
BRANCH  22  27
ATOM     27  C   UNL     1      -8.779   6.032 130.559  0.00  0.00    +0.000 C 
ATOM     28  O   UNL     1      -9.074   6.827 131.433  0.00  0.00    +0.000 OA
BRANCH  27  29
ATOM     29  O   UNL     1      -9.033   6.212 129.262  0.00  0.00    +0.000 OA
ATOM     30  H   UNL     1      -9.982   6.059 129.087  0.00  0.00    +0.000 HD
ENDBRANCH  27  29
ENDBRANCH  22  27
BRANCH  20  31
ATOM     31  O   UNL     1      -6.371   3.251 133.584  0.00  0.00    +0.000 OA
BRANCH  31  32
ATOM     32  C   UNL     1      -6.099   2.169 134.572  0.00  0.00    +0.000 C 
ATOM     33  C   UNL     1      -5.003   2.411 135.593  0.00  0.00    +0.000 C 
ATOM     34  O   UNL     1      -6.396   0.977 134.485  0.00  0.00    +0.000 OA
ENDBRANCH  31  32
ENDBRANCH  20  31
BRANCH  22  35
ATOM     35  C   UNL     1      -7.372   4.224 130.212  0.00  0.00    +0.000 C 
BRANCH  35  36
ATOM     36  C   UNL     1      -7.191   4.410 128.770  0.00  0.00    +0.000 C 
BRANCH  36  37
ATOM     37  C   UNL     1      -7.970   4.504 127.094  0.00  0.00    +0.000 C 
ATOM     38  C   UNL     1      -7.349   3.361 125.940  0.00  0.00    +0.000 C 
ATOM     39  C   UNL     1      -5.977   4.386 125.106  0.00  0.00    +0.000 C 
ATOM     40  C   UNL     1      -8.746   2.748 124.572  0.00  0.00    +0.000 C 
ENDBRANCH  36  37
ENDBRANCH  35  36
ENDBRANCH  22  35
TORSDOF 9
ENDMDL
MODEL 7
REMARK VINA RESULT:      -8.0      2.287      5.801
REMARK  Name = Fusidic acid
REMARK  16 active torsions:
REMARK  status: ('A' for Active; 'I' for Inactive)
REMARK    1  A    between atoms: C_4  and  O_5
REMARK    2  A    between atoms: C_8  and  C_9
REMARK    3  A    between atoms: C_12  and  O_13
REMARK    4  A    between atoms: C_14  and  C_15
REMARK    5  A    between atoms: C_20  and  C_21
REMARK    6  A    between atoms: C_22  and  C_23
REMARK    7  A    between atoms: C_25  and  O_26
REMARK    8  A    between atoms: O_26  and  C_27
REMARK    9  A    between atoms: C_27  and  C_28
REMARK   10  A    between atoms: C_31  and  C_32
REMARK   11  A    between atoms: C_31  and  C_38
REMARK   12  A    between atoms: C_32  and  C_33
REMARK   13  A    between atoms: C_33  and  C_34
REMARK   14  A    between atoms: C_35  and  C_36
REMARK   15  A    between atoms: C_35  and  C_37
REMARK   16  A    between atoms: C_38  and  O_39
REMARK                            x       y       z     vdW  Elec       q    Type
REMARK                         _______ _______ _______ _____ _____    ______ ____
ROOT
ATOM      1  C   UNL     1      -7.299   0.353 129.878  0.00  0.00    +0.000 C 
ATOM      2  C   UNL     1      -8.391   1.354 128.507  0.00  0.00    +0.000 C 
ATOM      3  C   UNL     1      -7.308   2.704 127.734  0.00  0.00    +0.000 C 
ATOM      4  C   UNL     1      -6.104   3.714 129.313  0.00  0.00    +0.000 C 
ATOM      5  C   UNL     1      -4.362   3.923 128.238  0.00  0.00    +0.000 C 
ATOM      6  C   UNL     1      -4.278   2.830 126.268  0.00  0.00    +0.000 C 
ATOM      7  C   UNL     1      -4.601   5.631 127.807  0.00  0.00    +0.000 C 
ATOM      8  C   UNL     1      -3.863   5.448 128.924  0.00  0.00    +0.000 C 
ATOM      9  C   UNL     1      -3.385   6.515 129.654  0.00  0.00    +0.000 C 
ATOM     10  C   UNL     1      -3.724   5.823 130.885  0.00  0.00    +0.000 C 
ATOM     11  C   UNL     1      -4.980   6.546 131.566  0.00  0.00    +0.000 C 
ATOM     12  C   UNL     1      -3.613   4.004 130.238  0.00  0.00    +0.000 C 
ATOM     13  C   UNL     1      -3.460   4.372 132.081  0.00  0.00    +0.000 C 
ATOM     14  C   UNL     1      -3.985   3.200 132.558  0.00  0.00    +0.000 C 
ATOM     15  C   UNL     1      -5.740   3.015 131.559  0.00  0.00    +0.000 C 
ATOM     16  C   UNL     1      -5.953   3.240 133.585  0.00  0.00    +0.000 C 
ATOM     17  C   UNL     1      -6.269   0.945 131.657  0.00  0.00    +0.000 C 
ATOM     18  C   UNL     1      -5.322  -0.224 133.229  0.00  0.00    +0.000 C 
ATOM     19  C   UNL     1      -7.302   0.403 132.516  0.00  0.00    +0.000 C 
ATOM     20  C   UNL     1      -7.141  -0.443 131.354  0.00  0.00    +0.000 C 
ATOM     21  C   UNL     1      -8.368   0.429 130.718  0.00  0.00    +0.000 C 
ATOM     22  C   UNL     1      -8.573   1.797 130.927  0.00  0.00    +0.000 C 
ENDROOT
BRANCH   3  23
ATOM     23  O   UNL     1      -8.531   2.623 126.563  0.00  0.00    +0.000 OA
ATOM     24  H   UNL     1      -8.759   1.845 126.020  0.00  0.00    +0.000 HD
ENDBRANCH   3  23
BRANCH   9  25
ATOM     25  O   UNL     1      -4.238   7.538 129.267  0.00  0.00    +0.000 OA
ATOM     26  H   UNL     1      -4.609   7.281 128.386  0.00  0.00    +0.000 HD
ENDBRANCH   9  25
BRANCH  22  27
ATOM     27  C   UNL     1      -8.914   2.353 132.258  0.00  0.00    +0.000 C 
ATOM     28  O   UNL     1      -8.355   2.067 133.302  0.00  0.00    +0.000 OA
BRANCH  27  29
ATOM     29  O   UNL     1     -10.191   2.728 132.169  0.00  0.00    +0.000 OA
ATOM     30  H   UNL     1     -10.769   1.942 132.194  0.00  0.00    +0.000 HD
ENDBRANCH  27  29
ENDBRANCH  22  27
BRANCH  20  31
ATOM     31  O   UNL     1      -5.411  -0.456 130.670  0.00  0.00    +0.000 OA
BRANCH  31  32
ATOM     32  C   UNL     1      -4.711  -1.601 130.023  0.00  0.00    +0.000 C 
ATOM     33  C   UNL     1      -3.377  -2.028 130.607  0.00  0.00    +0.000 C 
ATOM     34  O   UNL     1      -4.882  -2.045 128.887  0.00  0.00    +0.000 OA
ENDBRANCH  31  32
ENDBRANCH  20  31
BRANCH  22  35
ATOM     35  C   UNL     1      -7.431   2.579 130.493  0.00  0.00    +0.000 C 
BRANCH  35  36
ATOM     36  C   UNL     1      -7.622   4.031 130.448  0.00  0.00    +0.000 C 
BRANCH  36  37
ATOM     37  C   UNL     1      -8.589   5.501 131.022  0.00  0.00    +0.000 C 
ATOM     38  C   UNL     1     -10.229   5.559 130.446  0.00  0.00    +0.000 C 
ATOM     39  C   UNL     1     -10.027   6.600 128.863  0.00  0.00    +0.000 C 
ATOM     40  C   UNL     1     -11.519   6.457 131.760  0.00  0.00    +0.000 C 
ENDBRANCH  36  37
ENDBRANCH  35  36
ENDBRANCH  22  35
TORSDOF 9
ENDMDL
MODEL 8
REMARK VINA RESULT:      -7.9      2.247      6.103
REMARK  Name = Fusidic acid
REMARK  16 active torsions:
REMARK  status: ('A' for Active; 'I' for Inactive)
REMARK    1  A    between atoms: C_4  and  O_5
REMARK    2  A    between atoms: C_8  and  C_9
REMARK    3  A    between atoms: C_12  and  O_13
REMARK    4  A    between atoms: C_14  and  C_15
REMARK    5  A    between atoms: C_20  and  C_21
REMARK    6  A    between atoms: C_22  and  C_23
REMARK    7  A    between atoms: C_25  and  O_26
REMARK    8  A    between atoms: O_26  and  C_27
REMARK    9  A    between atoms: C_27  and  C_28
REMARK   10  A    between atoms: C_31  and  C_32
REMARK   11  A    between atoms: C_31  and  C_38
REMARK   12  A    between atoms: C_32  and  C_33
REMARK   13  A    between atoms: C_33  and  C_34
REMARK   14  A    between atoms: C_35  and  C_36
REMARK   15  A    between atoms: C_35  and  C_37
REMARK   16  A    between atoms: C_38  and  O_39
REMARK                            x       y       z     vdW  Elec       q    Type
REMARK                         _______ _______ _______ _____ _____    ______ ____
ROOT
ATOM      1  C   UNL     1      -7.098   2.204 132.830  0.00  0.00    +0.000 C 
ATOM      2  C   UNL     1      -8.511   2.547 131.430  0.00  0.00    +0.000 C 
ATOM      3  C   UNL     1      -7.658   3.084 129.825  0.00  0.00    +0.000 C 
ATOM      4  C   UNL     1      -6.011   4.514 130.274  0.00  0.00    +0.000 C 
ATOM      5  C   UNL     1      -4.656   3.816 128.893  0.00  0.00    +0.000 C 
ATOM      6  C   UNL     1      -5.191   1.877 127.875  0.00  0.00    +0.000 C 
ATOM      7  C   UNL     1      -4.955   5.074 127.673  0.00  0.00    +0.000 C 
ATOM      8  C   UNL     1      -3.928   5.354 128.505  0.00  0.00    +0.000 C 
ATOM      9  C   UNL     1      -3.221   6.533 128.406  0.00  0.00    +0.000 C 
ATOM     10  C   UNL     1      -3.206   6.645 129.854  0.00  0.00    +0.000 C 
ATOM     11  C   UNL     1      -4.182   7.833 130.300  0.00  0.00    +0.000 C 
ATOM     12  C   UNL     1      -3.350   4.767 130.293  0.00  0.00    +0.000 C 
ATOM     13  C   UNL     1      -2.650   5.988 131.546  0.00  0.00    +0.000 C 
ATOM     14  C   UNL     1      -3.050   5.346 132.689  0.00  0.00    +0.000 C 
ATOM     15  C   UNL     1      -5.026   5.007 132.385  0.00  0.00    +0.000 C 
ATOM     16  C   UNL     1      -4.628   6.270 133.949  0.00  0.00    +0.000 C 
ATOM     17  C   UNL     1      -5.571   3.418 133.709  0.00  0.00    +0.000 C 
ATOM     18  C   UNL     1      -4.243   3.064 135.396  0.00  0.00    +0.000 C 
ATOM     19  C   UNL     1      -6.323   3.594 134.935  0.00  0.00    +0.000 C 
ATOM     20  C   UNL     1      -6.539   2.260 134.418  0.00  0.00    +0.000 C 
ATOM     21  C   UNL     1      -7.869   2.896 133.713  0.00  0.00    +0.000 C 
ATOM     22  C   UNL     1      -7.958   4.189 133.187  0.00  0.00    +0.000 C 
ENDROOT
BRANCH   3  23
ATOM     23  O   UNL     1      -9.173   2.646 129.203  0.00  0.00    +0.000 OA
ATOM     24  H   UNL     1      -9.396   2.517 128.262  0.00  0.00    +0.000 HD
ENDBRANCH   3  23
BRANCH   9  25
ATOM     25  O   UNL     1      -4.116   7.353 127.734  0.00  0.00    +0.000 OA
ATOM     26  H   UNL     1      -4.991   7.249 128.184  0.00  0.00    +0.000 HD
ENDBRANCH   9  25
BRANCH  22  27
ATOM     27  C   UNL     1      -7.875   5.400 134.039  0.00  0.00    +0.000 C 
ATOM     28  O   UNL     1      -7.309   5.460 135.116  0.00  0.00    +0.000 OA
BRANCH  27  29
ATOM     29  O   UNL     1      -8.929   6.144 133.701  0.00  0.00    +0.000 OA
ATOM     30  H   UNL     1      -8.733   7.087 133.862  0.00  0.00    +0.000 HD
ENDBRANCH  27  29
ENDBRANCH  22  27
BRANCH  20  31
ATOM     31  O   UNL     1      -5.088   1.578 133.475  0.00  0.00    +0.000 OA
BRANCH  31  32
ATOM     32  C   UNL     1      -4.577   0.179 133.505  0.00  0.00    +0.000 C 
ATOM     33  C   UNL     1      -3.073  -0.019 133.444  0.00  0.00    +0.000 C 
ATOM     34  O   UNL     1      -5.191  -0.854 133.238  0.00  0.00    +0.000 OA
ENDBRANCH  31  32
ENDBRANCH  20  31
BRANCH  22  35
ATOM     35  C   UNL     1      -6.970   4.411 132.149  0.00  0.00    +0.000 C 
BRANCH  35  36
ATOM     36  C   UNL     1      -7.132   5.629 131.351  0.00  0.00    +0.000 C 
BRANCH  36  37
ATOM     37  C   UNL     1      -8.281   6.908 130.664  0.00  0.00    +0.000 C 
ATOM     38  C   UNL     1      -9.797   6.284 130.084  0.00  0.00    +0.000 C 
ATOM     39  C   UNL     1      -9.397   5.987 128.245  0.00  0.00    +0.000 C 
ATOM     40  C   UNL     1     -11.351   7.601 130.298  0.00  0.00    +0.000 C 
ENDBRANCH  36  37
ENDBRANCH  35  36
ENDBRANCH  22  35
TORSDOF 9
ENDMDL
