MODEL 1
REMARK VINA RESULT:      -8.5      0.000      0.000
REMARK  Name = Futibatinib
REMARK  8 active torsions:
REMARK  status: ('A' for Active; 'I' for Inactive)
REMARK    1  A    between atoms: C_1  and  O_2
REMARK    2  A    between atoms: O_2  and  C_3
REMARK    3  A    between atoms: C_5  and  C_11
REMARK    4  A    between atoms: C_7  and  O_8
REMARK    5  A    between atoms: O_8  and  C_9
REMARK    6  A    between atoms: C_12  and  C_13
REMARK    7  A    between atoms: N_15  and  C_16
REMARK    8  A    between atoms: C_21  and  C_23
REMARK                            x       y       z     vdW  Elec       q    Type
REMARK                         _______ _______ _______ _____ _____    ______ ____
ROOT
ATOM      1  C   UNL     1      -9.090   3.379 129.788  0.00  0.00    +0.000 A 
ATOM      2  N   UNL     1     -10.419   3.605 129.952  0.00  0.00    +0.000 NA
ATOM      3  N   UNL     1     -10.484   4.920 130.397  0.00  0.00    +0.000 N 
ATOM      4  C   UNL     1      -9.234   5.495 130.448  0.00  0.00    +0.000 A 
ATOM      5  C   UNL     1      -8.320   4.527 130.103  0.00  0.00    +0.000 A 
ATOM      6  C   UNL     1      -6.978   4.912 130.126  0.00  0.00    +0.000 A 
ATOM      7  N   UNL     1      -5.957   4.074 129.764  0.00  0.00    +0.000 N 
ATOM      8  N   UNL     1      -6.652   6.163 130.525  0.00  0.00    +0.000 NA
ATOM      9  C   UNL     1      -7.641   7.012 130.837  0.00  0.00    +0.000 A 
ATOM     10  N   UNL     1      -8.946   6.763 130.775  0.00  0.00    +0.000 NA
ATOM     11  H   UNL     1      -6.144   3.133 129.464  0.00  0.00    +0.000 HD
ATOM     12  H   UNL     1      -5.017   4.434 129.809  0.00  0.00    +0.000 HD
ENDROOT
BRANCH   3  13
ATOM     13  C   UNL     1     -11.746   5.646 130.628  0.00  0.00    +0.000 C 
ATOM     14  C   UNL     1     -11.798   6.597 131.841  0.00  0.00    +0.000 C 
ATOM     15  C   UNL     1     -12.878   7.631 131.485  0.00  0.00    +0.000 C 
ATOM     16  N   UNL     1     -12.708   7.834 130.068  0.00  0.00    +0.000 N 
ATOM     17  C   UNL     1     -12.175   6.616 129.475  0.00  0.00    +0.000 C 
ATOM     18  C   UNL     1     -12.763   9.001 129.318  0.00  0.00    +0.000 C 
ATOM     19  O   UNL     1     -12.452   9.034 128.126  0.00  0.00    +0.000 OA
BRANCH  18  20
ATOM     20  C   UNL     1     -13.206  10.255 129.999  0.00  0.00    +0.000 C 
ATOM     21  C   UNL     1     -13.834  11.237 129.331  0.00  0.00    +0.000 C 
ENDBRANCH  18  20
ENDBRANCH   3  13
BRANCH   1  23
ATOM     22  C   UNL     1      -7.968   1.111 128.887  0.00  0.00    +0.000 C 
ATOM     23  C   UNL     1      -8.541   2.100 129.322  0.00  0.00    +0.000 C 
BRANCH  22  26
ATOM     24  C   UNL     1      -5.358  -1.618 128.543  0.00  0.00    +0.000 A 
ATOM     25  C   UNL     1      -6.055  -0.472 128.973  0.00  0.00    +0.000 A 
ATOM     26  C   UNL     1      -7.275  -0.088 128.394  0.00  0.00    +0.000 A 
ATOM     27  C   UNL     1      -7.777  -0.904 127.357  0.00  0.00    +0.000 A 
ATOM     28  C   UNL     1      -7.095  -2.077 126.936  0.00  0.00    +0.000 A 
ATOM     29  C   UNL     1      -5.889  -2.432 127.543  0.00  0.00    +0.000 A 
BRANCH  24  31
ATOM     30  C   UNL     1      -3.801  -3.296 129.159  0.00  0.00    +0.000 C 
ATOM     31  O   UNL     1      -4.208  -1.928 129.225  0.00  0.00    +0.000 OA
ENDBRANCH  24  31
BRANCH  28  32
ATOM     32  O   UNL     1      -7.694  -2.810 125.937  0.00  0.00    +0.000 OA
ATOM     33  C   UNL     1      -9.119  -2.717 125.815  0.00  0.00    +0.000 C 
ENDBRANCH  28  32
ENDBRANCH  22  26
ENDBRANCH   1  23
TORSDOF 6
ENDMDL
MODEL 2
REMARK VINA RESULT:      -8.4      0.851      2.354
REMARK  Name = Futibatinib
REMARK  8 active torsions:
REMARK  status: ('A' for Active; 'I' for Inactive)
REMARK    1  A    between atoms: C_1  and  O_2
REMARK    2  A    between atoms: O_2  and  C_3
REMARK    3  A    between atoms: C_5  and  C_11
REMARK    4  A    between atoms: C_7  and  O_8
REMARK    5  A    between atoms: O_8  and  C_9
REMARK    6  A    between atoms: C_12  and  C_13
REMARK    7  A    between atoms: N_15  and  C_16
REMARK    8  A    between atoms: C_21  and  C_23
REMARK                            x       y       z     vdW  Elec       q    Type
REMARK                         _______ _______ _______ _____ _____    ______ ____
ROOT
ATOM      1  C   UNL     1      -9.042   3.369 129.616  0.00  0.00    +0.000 A 
ATOM      2  N   UNL     1     -10.369   3.604 129.784  0.00  0.00    +0.000 NA
ATOM      3  N   UNL     1     -10.417   4.871 130.352  0.00  0.00    +0.000 N 
ATOM      4  C   UNL     1      -9.157   5.415 130.475  0.00  0.00    +0.000 A 
ATOM      5  C   UNL     1      -8.256   4.466 130.051  0.00  0.00    +0.000 A 
ATOM      6  C   UNL     1      -6.908   4.821 130.129  0.00  0.00    +0.000 A 
ATOM      7  N   UNL     1      -5.897   4.002 129.702  0.00  0.00    +0.000 N 
ATOM      8  N   UNL     1      -6.565   6.021 130.651  0.00  0.00    +0.000 NA
ATOM      9  C   UNL     1      -7.543   6.855 131.030  0.00  0.00    +0.000 A 
ATOM     10  N   UNL     1      -8.851   6.640 130.926  0.00  0.00    +0.000 NA
ATOM     11  H   UNL     1      -6.096   3.097 129.311  0.00  0.00    +0.000 HD
ATOM     12  H   UNL     1      -4.951   4.337 129.794  0.00  0.00    +0.000 HD
ENDROOT
BRANCH   3  13
ATOM     13  C   UNL     1     -11.669   5.597 130.635  0.00  0.00    +0.000 C 
ATOM     14  C   UNL     1     -11.684   6.516 131.873  0.00  0.00    +0.000 C 
ATOM     15  C   UNL     1     -12.768   7.563 131.572  0.00  0.00    +0.000 C 
ATOM     16  N   UNL     1     -12.634   7.803 130.157  0.00  0.00    +0.000 N 
ATOM     17  C   UNL     1     -12.123   6.598 129.519  0.00  0.00    +0.000 C 
ATOM     18  C   UNL     1     -12.703   8.989 129.439  0.00  0.00    +0.000 C 
ATOM     19  O   UNL     1     -12.423   9.051 128.241  0.00  0.00    +0.000 OA
BRANCH  18  20
ATOM     20  C   UNL     1     -13.122  10.227 130.164  0.00  0.00    +0.000 C 
ATOM     21  C   UNL     1     -13.840  11.188 129.561  0.00  0.00    +0.000 C 
ENDBRANCH  18  20
ENDBRANCH   3  13
BRANCH   1  23
ATOM     22  C   UNL     1      -8.153   1.124 128.441  0.00  0.00    +0.000 C 
ATOM     23  C   UNL     1      -8.509   2.130 129.038  0.00  0.00    +0.000 C 
BRANCH  22  26
ATOM     24  C   UNL     1      -8.002  -1.651 125.860  0.00  0.00    +0.000 A 
ATOM     25  C   UNL     1      -8.405  -0.517 126.592  0.00  0.00    +0.000 A 
ATOM     26  C   UNL     1      -7.695  -0.073 127.719  0.00  0.00    +0.000 A 
ATOM     27  C   UNL     1      -6.553  -0.815 128.090  0.00  0.00    +0.000 A 
ATOM     28  C   UNL     1      -6.123  -1.944 127.342  0.00  0.00    +0.000 A 
ATOM     29  C   UNL     1      -6.850  -2.348 126.221  0.00  0.00    +0.000 A 
BRANCH  24  31
ATOM     30  C   UNL     1      -8.313  -1.318 123.535  0.00  0.00    +0.000 C 
ATOM     31  O   UNL     1      -8.738  -1.953 124.742  0.00  0.00    +0.000 OA
ENDBRANCH  24  31
BRANCH  28  32
ATOM     32  O   UNL     1      -4.979  -2.571 127.781  0.00  0.00    +0.000 OA
ATOM     33  C   UNL     1      -4.579  -2.340 129.137  0.00  0.00    +0.000 C 
ENDBRANCH  28  32
ENDBRANCH  22  26
ENDBRANCH   1  23
TORSDOF 6
ENDMDL
MODEL 3
REMARK VINA RESULT:      -8.3      2.544      4.196
REMARK  Name = Futibatinib
REMARK  8 active torsions:
REMARK  status: ('A' for Active; 'I' for Inactive)
REMARK    1  A    between atoms: C_1  and  O_2
REMARK    2  A    between atoms: O_2  and  C_3
REMARK    3  A    between atoms: C_5  and  C_11
REMARK    4  A    between atoms: C_7  and  O_8
REMARK    5  A    between atoms: O_8  and  C_9
REMARK    6  A    between atoms: C_12  and  C_13
REMARK    7  A    between atoms: N_15  and  C_16
REMARK    8  A    between atoms: C_21  and  C_23
REMARK                            x       y       z     vdW  Elec       q    Type
REMARK                         _______ _______ _______ _____ _____    ______ ____
ROOT
ATOM      1  C   UNL     1      -8.321   1.664 129.132  0.00  0.00    +0.000 A 
ATOM      2  N   UNL     1      -9.136   2.749 129.192  0.00  0.00    +0.000 NA
ATOM      3  N   UNL     1      -9.004   3.197 130.501  0.00  0.00    +0.000 N 
ATOM      4  C   UNL     1      -8.092   2.439 131.201  0.00  0.00    +0.000 A 
ATOM      5  C   UNL     1      -7.668   1.430 130.368  0.00  0.00    +0.000 A 
ATOM      6  C   UNL     1      -6.753   0.527 130.914  0.00  0.00    +0.000 A 
ATOM      7  N   UNL     1      -6.205  -0.502 130.195  0.00  0.00    +0.000 N 
ATOM      8  N   UNL     1      -6.383   0.656 132.208  0.00  0.00    +0.000 NA
ATOM      9  C   UNL     1      -6.871   1.685 132.913  0.00  0.00    +0.000 A 
ATOM     10  N   UNL     1      -7.685   2.636 132.464  0.00  0.00    +0.000 NA
ATOM     11  H   UNL     1      -6.450  -0.646 129.231  0.00  0.00    +0.000 HD
ATOM     12  H   UNL     1      -5.552  -1.107 130.666  0.00  0.00    +0.000 HD
ENDROOT
BRANCH   3  13
ATOM     13  C   UNL     1      -9.641   4.423 131.016  0.00  0.00    +0.000 C 
ATOM     14  C   UNL     1      -8.866   5.744 130.842  0.00  0.00    +0.000 C 
ATOM     15  C   UNL     1      -9.946   6.838 130.849  0.00  0.00    +0.000 C 
ATOM     16  N   UNL     1     -11.053   6.235 130.150  0.00  0.00    +0.000 N 
ATOM     17  C   UNL     1     -11.008   4.793 130.347  0.00  0.00    +0.000 C 
ATOM     18  C   UNL     1     -11.928   6.778 129.219  0.00  0.00    +0.000 C 
ATOM     19  O   UNL     1     -12.740   6.091 128.599  0.00  0.00    +0.000 OA
BRANCH  18  20
ATOM     20  C   UNL     1     -11.859   8.249 128.964  0.00  0.00    +0.000 C 
ATOM     21  C   UNL     1     -12.764   9.097 129.479  0.00  0.00    +0.000 C 
ENDBRANCH  18  20
ENDBRANCH   3  13
BRANCH   1  23
ATOM     22  C   UNL     1      -8.117   0.119 126.945  0.00  0.00    +0.000 C 
ATOM     23  C   UNL     1      -8.141   0.857 127.920  0.00  0.00    +0.000 C 
BRANCH  22  26
ATOM     24  C   UNL     1      -9.002  -1.291 123.537  0.00  0.00    +0.000 A 
ATOM     25  C   UNL     1      -8.993  -0.501 124.704  0.00  0.00    +0.000 A 
ATOM     26  C   UNL     1      -8.093  -0.743 125.754  0.00  0.00    +0.000 A 
ATOM     27  C   UNL     1      -7.192  -1.817 125.591  0.00  0.00    +0.000 A 
ATOM     28  C   UNL     1      -7.176  -2.602 124.406  0.00  0.00    +0.000 A 
ATOM     29  C   UNL     1      -8.080  -2.324 123.380  0.00  0.00    +0.000 A 
BRANCH  24  31
ATOM     30  C   UNL     1     -10.164   0.478 122.470  0.00  0.00    +0.000 C 
ATOM     31  O   UNL     1      -9.885  -0.921 122.554  0.00  0.00    +0.000 OA
ENDBRANCH  24  31
BRANCH  28  32
ATOM     32  O   UNL     1      -6.234  -3.605 124.348  0.00  0.00    +0.000 OA
ATOM     33  C   UNL     1      -5.024  -3.331 123.631  0.00  0.00    +0.000 C 
ENDBRANCH  28  32
ENDBRANCH  22  26
ENDBRANCH   1  23
TORSDOF 6
ENDMDL
MODEL 4
REMARK VINA RESULT:      -8.3      2.451      3.326
REMARK  Name = Futibatinib
REMARK  8 active torsions:
REMARK  status: ('A' for Active; 'I' for Inactive)
REMARK    1  A    between atoms: C_1  and  O_2
REMARK    2  A    between atoms: O_2  and  C_3
REMARK    3  A    between atoms: C_5  and  C_11
REMARK    4  A    between atoms: C_7  and  O_8
REMARK    5  A    between atoms: O_8  and  C_9
REMARK    6  A    between atoms: C_12  and  C_13
REMARK    7  A    between atoms: N_15  and  C_16
REMARK    8  A    between atoms: C_21  and  C_23
REMARK                            x       y       z     vdW  Elec       q    Type
REMARK                         _______ _______ _______ _____ _____    ______ ____
ROOT
ATOM      1  C   UNL     1      -8.721   2.227 129.262  0.00  0.00    +0.000 A 
ATOM      2  N   UNL     1      -9.357   3.417 129.106  0.00  0.00    +0.000 NA
ATOM      3  N   UNL     1      -9.473   3.908 130.401  0.00  0.00    +0.000 N 
ATOM      4  C   UNL     1      -8.874   3.067 131.313  0.00  0.00    +0.000 A 
ATOM      5  C   UNL     1      -8.420   1.967 130.623  0.00  0.00    +0.000 A 
ATOM      6  C   UNL     1      -7.804   0.974 131.387  0.00  0.00    +0.000 A 
ATOM      7  N   UNL     1      -7.261  -0.157 130.839  0.00  0.00    +0.000 N 
ATOM      8  N   UNL     1      -7.735   1.116 132.731  0.00  0.00    +0.000 NA
ATOM      9  C   UNL     1      -8.219   2.238 133.281  0.00  0.00    +0.000 A 
ATOM     10  N   UNL     1      -8.754   3.269 132.633  0.00  0.00    +0.000 NA
ATOM     11  H   UNL     1      -7.289  -0.314 129.846  0.00  0.00    +0.000 HD
ATOM     12  H   UNL     1      -6.834  -0.823 131.463  0.00  0.00    +0.000 HD
ENDROOT
BRANCH   3  13
ATOM     13  C   UNL     1     -10.025   5.236 130.728  0.00  0.00    +0.000 C 
ATOM     14  C   UNL     1      -9.297   6.463 130.142  0.00  0.00    +0.000 C 
ATOM     15  C   UNL     1     -10.369   7.563 130.080  0.00  0.00    +0.000 C 
ATOM     16  N   UNL     1     -11.572   6.854 129.720  0.00  0.00    +0.000 N 
ATOM     17  C   UNL     1     -11.485   5.490 130.222  0.00  0.00    +0.000 C 
ATOM     18  C   UNL     1     -12.591   7.206 128.846  0.00  0.00    +0.000 C 
ATOM     19  O   UNL     1     -13.489   6.424 128.533  0.00  0.00    +0.000 OA
BRANCH  18  20
ATOM     20  C   UNL     1     -12.574   8.582 128.263  0.00  0.00    +0.000 C 
ATOM     21  C   UNL     1     -13.169   9.616 128.881  0.00  0.00    +0.000 C 
ENDBRANCH  18  20
ENDBRANCH   3  13
BRANCH   1  23
ATOM     22  C   UNL     1      -8.241   0.582 127.194  0.00  0.00    +0.000 C 
ATOM     23  C   UNL     1      -8.380   1.341 128.142  0.00  0.00    +0.000 C 
BRANCH  22  26
ATOM     24  C   UNL     1      -6.753  -2.056 124.911  0.00  0.00    +0.000 A 
ATOM     25  C   UNL     1      -6.963  -1.177 125.992  0.00  0.00    +0.000 A 
ATOM     26  C   UNL     1      -8.063  -0.306 126.036  0.00  0.00    +0.000 A 
ATOM     27  C   UNL     1      -8.958  -0.350 124.945  0.00  0.00    +0.000 A 
ATOM     28  C   UNL     1      -8.770  -1.253 123.864  0.00  0.00    +0.000 A 
ATOM     29  C   UNL     1      -7.669  -2.110 123.861  0.00  0.00    +0.000 A 
BRANCH  24  31
ATOM     30  C   UNL     1      -5.159  -3.385 123.768  0.00  0.00    +0.000 C 
ATOM     31  O   UNL     1      -5.678  -2.902 125.008  0.00  0.00    +0.000 OA
ENDBRANCH  24  31
BRANCH  28  32
ATOM     32  O   UNL     1      -9.723  -1.226 122.870  0.00  0.00    +0.000 OA
ATOM     33  C   UNL     1     -10.157   0.059 122.408  0.00  0.00    +0.000 C 
ENDBRANCH  28  32
ENDBRANCH  22  26
ENDBRANCH   1  23
TORSDOF 6
ENDMDL
MODEL 5
REMARK VINA RESULT:      -8.2      3.806      6.123
REMARK  Name = Futibatinib
REMARK  8 active torsions:
REMARK  status: ('A' for Active; 'I' for Inactive)
REMARK    1  A    between atoms: C_1  and  O_2
REMARK    2  A    between atoms: O_2  and  C_3
REMARK    3  A    between atoms: C_5  and  C_11
REMARK    4  A    between atoms: C_7  and  O_8
REMARK    5  A    between atoms: O_8  and  C_9
REMARK    6  A    between atoms: C_12  and  C_13
REMARK    7  A    between atoms: N_15  and  C_16
REMARK    8  A    between atoms: C_21  and  C_23
REMARK                            x       y       z     vdW  Elec       q    Type
REMARK                         _______ _______ _______ _____ _____    ______ ____
ROOT
ATOM      1  C   UNL     1      -7.714  -0.896 129.741  0.00  0.00    +0.000 A 
ATOM      2  N   UNL     1      -8.285   0.295 130.060  0.00  0.00    +0.000 NA
ATOM      3  N   UNL     1      -8.459   0.227 131.437  0.00  0.00    +0.000 N 
ATOM      4  C   UNL     1      -7.956  -0.949 131.949  0.00  0.00    +0.000 A 
ATOM      5  C   UNL     1      -7.511  -1.704 130.888  0.00  0.00    +0.000 A 
ATOM      6  C   UNL     1      -6.989  -2.959 131.204  0.00  0.00    +0.000 A 
ATOM      7  N   UNL     1      -6.465  -3.805 130.263  0.00  0.00    +0.000 N 
ATOM      8  N   UNL     1      -6.997  -3.379 132.490  0.00  0.00    +0.000 NA
ATOM      9  C   UNL     1      -7.462  -2.546 133.431  0.00  0.00    +0.000 A 
ATOM     10  N   UNL     1      -7.908  -1.308 133.240  0.00  0.00    +0.000 NA
ATOM     11  H   UNL     1      -6.439  -3.544 129.292  0.00  0.00    +0.000 HD
ATOM     12  H   UNL     1      -6.107  -4.693 130.577  0.00  0.00    +0.000 HD
ENDROOT
BRANCH   3  13
ATOM     13  C   UNL     1      -8.969   1.342 132.255  0.00  0.00    +0.000 C 
ATOM     14  C   UNL     1      -7.926   2.292 132.877  0.00  0.00    +0.000 C 
ATOM     15  C   UNL     1      -8.676   3.617 133.087  0.00  0.00    +0.000 C 
ATOM     16  N   UNL     1      -9.544   3.707 131.940  0.00  0.00    +0.000 N 
ATOM     17  C   UNL     1      -9.879   2.363 131.493  0.00  0.00    +0.000 C 
ATOM     18  C   UNL     1      -9.876   4.801 131.152  0.00  0.00    +0.000 C 
ATOM     19  O   UNL     1     -10.525   4.690 130.111  0.00  0.00    +0.000 OA
BRANCH  18  20
ATOM     20  C   UNL     1      -9.411   6.151 131.591  0.00  0.00    +0.000 C 
ATOM     21  C   UNL     1      -8.512   6.853 130.880  0.00  0.00    +0.000 C 
ENDBRANCH  18  20
ENDBRANCH   3  13
BRANCH   1  23
ATOM     22  C   UNL     1      -7.171  -1.536 127.190  0.00  0.00    +0.000 C 
ATOM     23  C   UNL     1      -7.346  -1.273 128.371  0.00  0.00    +0.000 C 
BRANCH  22  26
ATOM     24  C   UNL     1      -7.743  -1.754 123.448  0.00  0.00    +0.000 A 
ATOM     25  C   UNL     1      -7.922  -1.502 124.822  0.00  0.00    +0.000 A 
ATOM     26  C   UNL     1      -6.939  -1.831 125.769  0.00  0.00    +0.000 A 
ATOM     27  C   UNL     1      -5.756  -2.428 125.282  0.00  0.00    +0.000 A 
ATOM     28  C   UNL     1      -5.555  -2.661 123.895  0.00  0.00    +0.000 A 
ATOM     29  C   UNL     1      -6.552  -2.310 122.983  0.00  0.00    +0.000 A 
BRANCH  24  31
ATOM     30  C   UNL     1      -9.402  -0.123 122.996  0.00  0.00    +0.000 C 
ATOM     31  O   UNL     1      -8.747  -1.333 122.612  0.00  0.00    +0.000 OA
ENDBRANCH  24  31
BRANCH  28  32
ATOM     32  O   UNL     1      -4.350  -3.221 123.535  0.00  0.00    +0.000 OA
ATOM     33  C   UNL     1      -4.259  -4.651 123.544  0.00  0.00    +0.000 C 
ENDBRANCH  28  32
ENDBRANCH  22  26
ENDBRANCH   1  23
TORSDOF 6
ENDMDL
MODEL 6
REMARK VINA RESULT:      -8.1      3.797      5.810
REMARK  Name = Futibatinib
REMARK  8 active torsions:
REMARK  status: ('A' for Active; 'I' for Inactive)
REMARK    1  A    between atoms: C_1  and  O_2
REMARK    2  A    between atoms: O_2  and  C_3
REMARK    3  A    between atoms: C_5  and  C_11
REMARK    4  A    between atoms: C_7  and  O_8
REMARK    5  A    between atoms: O_8  and  C_9
REMARK    6  A    between atoms: C_12  and  C_13
REMARK    7  A    between atoms: N_15  and  C_16
REMARK    8  A    between atoms: C_21  and  C_23
REMARK                            x       y       z     vdW  Elec       q    Type
REMARK                         _______ _______ _______ _____ _____    ______ ____
ROOT
ATOM      1  C   UNL     1      -7.716  -0.882 129.702  0.00  0.00    +0.000 A 
ATOM      2  N   UNL     1      -8.279   0.308 130.035  0.00  0.00    +0.000 NA
ATOM      3  N   UNL     1      -8.434   0.233 131.414  0.00  0.00    +0.000 N 
ATOM      4  C   UNL     1      -7.928  -0.947 131.913  0.00  0.00    +0.000 A 
ATOM      5  C   UNL     1      -7.498  -1.696 130.843  0.00  0.00    +0.000 A 
ATOM      6  C   UNL     1      -6.976  -2.955 131.145  0.00  0.00    +0.000 A 
ATOM      7  N   UNL     1      -6.466  -3.798 130.192  0.00  0.00    +0.000 N 
ATOM      8  N   UNL     1      -6.967  -3.381 132.428  0.00  0.00    +0.000 NA
ATOM      9  C   UNL     1      -7.418  -2.552 133.380  0.00  0.00    +0.000 A 
ATOM     10  N   UNL     1      -7.863  -1.312 133.201  0.00  0.00    +0.000 NA
ATOM     11  H   UNL     1      -6.453  -3.532 129.223  0.00  0.00    +0.000 HD
ATOM     12  H   UNL     1      -6.107  -4.688 130.497  0.00  0.00    +0.000 HD
ENDROOT
BRANCH   3  13
ATOM     13  C   UNL     1      -8.931   1.345 132.245  0.00  0.00    +0.000 C 
ATOM     14  C   UNL     1      -7.879   2.305 132.835  0.00  0.00    +0.000 C 
ATOM     15  C   UNL     1      -8.634   3.624 133.065  0.00  0.00    +0.000 C 
ATOM     16  N   UNL     1      -9.536   3.705 131.943  0.00  0.00    +0.000 N 
ATOM     17  C   UNL     1      -9.872   2.357 131.507  0.00  0.00    +0.000 C 
ATOM     18  C   UNL     1      -9.900   4.795 131.163  0.00  0.00    +0.000 C 
ATOM     19  O   UNL     1     -10.577   4.676 130.141  0.00  0.00    +0.000 OA
BRANCH  18  20
ATOM     20  C   UNL     1      -9.434   6.150 131.586  0.00  0.00    +0.000 C 
ATOM     21  C   UNL     1      -8.535   6.842 130.867  0.00  0.00    +0.000 C 
ENDBRANCH  18  20
ENDBRANCH   3  13
BRANCH   1  23
ATOM     22  C   UNL     1      -7.201  -1.496 127.139  0.00  0.00    +0.000 C 
ATOM     23  C   UNL     1      -7.367  -1.253 128.326  0.00  0.00    +0.000 C 
BRANCH  22  26
ATOM     24  C   UNL     1      -5.492  -2.598 123.938  0.00  0.00    +0.000 A 
ATOM     25  C   UNL     1      -5.751  -2.308 125.292  0.00  0.00    +0.000 A 
ATOM     26  C   UNL     1      -6.978  -1.769 125.712  0.00  0.00    +0.000 A 
ATOM     27  C   UNL     1      -7.946  -1.529 124.714  0.00  0.00    +0.000 A 
ATOM     28  C   UNL     1      -7.704  -1.844 123.349  0.00  0.00    +0.000 A 
ATOM     29  C   UNL     1      -6.475  -2.388 122.973  0.00  0.00    +0.000 A 
BRANCH  24  31
ATOM     30  C   UNL     1      -4.286  -4.606 123.577  0.00  0.00    +0.000 C 
ATOM     31  O   UNL     1      -4.281  -3.179 123.657  0.00  0.00    +0.000 OA
ENDBRANCH  24  31
BRANCH  28  32
ATOM     32  O   UNL     1      -8.733  -1.593 122.470  0.00  0.00    +0.000 OA
ATOM     33  C   UNL     1      -9.569  -0.461 122.739  0.00  0.00    +0.000 C 
ENDBRANCH  28  32
ENDBRANCH  22  26
ENDBRANCH   1  23
TORSDOF 6
ENDMDL
MODEL 7
REMARK VINA RESULT:      -7.9      5.345      8.577
REMARK  Name = Futibatinib
REMARK  8 active torsions:
REMARK  status: ('A' for Active; 'I' for Inactive)
REMARK    1  A    between atoms: C_1  and  O_2
REMARK    2  A    between atoms: O_2  and  C_3
REMARK    3  A    between atoms: C_5  and  C_11
REMARK    4  A    between atoms: C_7  and  O_8
REMARK    5  A    between atoms: O_8  and  C_9
REMARK    6  A    between atoms: C_12  and  C_13
REMARK    7  A    between atoms: N_15  and  C_16
REMARK    8  A    between atoms: C_21  and  C_23
REMARK                            x       y       z     vdW  Elec       q    Type
REMARK                         _______ _______ _______ _____ _____    ______ ____
ROOT
ATOM      1  C   UNL     1      -5.543   6.349 130.759  0.00  0.00    +0.000 A 
ATOM      2  N   UNL     1      -6.827   6.719 131.001  0.00  0.00    +0.000 NA
ATOM      3  N   UNL     1      -7.584   5.769 130.325  0.00  0.00    +0.000 N 
ATOM      4  C   UNL     1      -6.783   4.816 129.736  0.00  0.00    +0.000 A 
ATOM      5  C   UNL     1      -5.475   5.179 129.961  0.00  0.00    +0.000 A 
ATOM      6  C   UNL     1      -4.502   4.345 129.409  0.00  0.00    +0.000 A 
ATOM      7  N   UNL     1      -3.159   4.549 129.585  0.00  0.00    +0.000 N 
ATOM      8  N   UNL     1      -4.882   3.285 128.659  0.00  0.00    +0.000 NA
ATOM      9  C   UNL     1      -6.191   3.042 128.514  0.00  0.00    +0.000 A 
ATOM     10  N   UNL     1      -7.189   3.731 129.060  0.00  0.00    +0.000 NA
ATOM     11  H   UNL     1      -2.823   5.325 130.130  0.00  0.00    +0.000 HD
ATOM     12  H   UNL     1      -2.524   3.898 129.152  0.00  0.00    +0.000 HD
ENDROOT
BRANCH   3  13
ATOM     13  C   UNL     1      -9.056   5.707 130.373  0.00  0.00    +0.000 C 
ATOM     14  C   UNL     1      -9.745   6.325 131.606  0.00  0.00    +0.000 C 
ATOM     15  C   UNL     1     -11.157   6.696 131.123  0.00  0.00    +0.000 C 
ATOM     16  N   UNL     1     -10.952   7.145 129.769  0.00  0.00    +0.000 N 
ATOM     17  C   UNL     1      -9.791   6.464 129.215  0.00  0.00    +0.000 C 
ATOM     18  C   UNL     1     -11.524   8.206 129.081  0.00  0.00    +0.000 C 
ATOM     19  O   UNL     1     -11.137   8.553 127.964  0.00  0.00    +0.000 OA
BRANCH  18  20
ATOM     20  C   UNL     1     -12.639   8.952 129.740  0.00  0.00    +0.000 C 
ATOM     21  C   UNL     1     -13.279   9.956 129.118  0.00  0.00    +0.000 C 
ENDBRANCH  18  20
ENDBRANCH   3  13
BRANCH   1  23
ATOM     22  C   UNL     1      -3.479   7.673 131.855  0.00  0.00    +0.000 C 
ATOM     23  C   UNL     1      -4.382   7.076 131.285  0.00  0.00    +0.000 C 
BRANCH  22  26
ATOM     24  C   UNL     1      -0.266   8.235 133.789  0.00  0.00    +0.000 A 
ATOM     25  C   UNL     1      -1.351   7.619 133.136  0.00  0.00    +0.000 A 
ATOM     26  C   UNL     1      -2.375   8.367 132.534  0.00  0.00    +0.000 A 
ATOM     27  C   UNL     1      -2.270   9.772 132.609  0.00  0.00    +0.000 A 
ATOM     28  C   UNL     1      -1.165  10.404 133.242  0.00  0.00    +0.000 A 
ATOM     29  C   UNL     1      -0.161   9.625 133.820  0.00  0.00    +0.000 A 
BRANCH  24  31
ATOM     30  C   UNL     1       1.012   7.571 135.671  0.00  0.00    +0.000 C 
ATOM     31  O   UNL     1       0.705   7.402 134.286  0.00  0.00    +0.000 OA
ENDBRANCH  24  31
BRANCH  28  32
ATOM     32  O   UNL     1      -1.156  11.781 133.229  0.00  0.00    +0.000 OA
ATOM     33  C   UNL     1       0.104  12.433 133.427  0.00  0.00    +0.000 C 
ENDBRANCH  28  32
ENDBRANCH  22  26
ENDBRANCH   1  23
TORSDOF 6
ENDMDL
MODEL 8
REMARK VINA RESULT:      -7.7      3.802      9.668
REMARK  Name = Futibatinib
REMARK  8 active torsions:
REMARK  status: ('A' for Active; 'I' for Inactive)
REMARK    1  A    between atoms: C_1  and  O_2
REMARK    2  A    between atoms: O_2  and  C_3
REMARK    3  A    between atoms: C_5  and  C_11
REMARK    4  A    between atoms: C_7  and  O_8
REMARK    5  A    between atoms: O_8  and  C_9
REMARK    6  A    between atoms: C_12  and  C_13
REMARK    7  A    between atoms: N_15  and  C_16
REMARK    8  A    between atoms: C_21  and  C_23
REMARK                            x       y       z     vdW  Elec       q    Type
REMARK                         _______ _______ _______ _____ _____    ______ ____
ROOT
ATOM      1  C   UNL     1      -7.886  -0.086 130.086  0.00  0.00    +0.000 A 
ATOM      2  N   UNL     1      -7.988  -0.521 128.803  0.00  0.00    +0.000 NA
ATOM      3  N   UNL     1      -7.400  -1.780 128.828  0.00  0.00    +0.000 N 
ATOM      4  C   UNL     1      -7.002  -2.124 130.101  0.00  0.00    +0.000 A 
ATOM      5  C   UNL     1      -7.262  -1.049 130.919  0.00  0.00    +0.000 A 
ATOM      6  C   UNL     1      -6.895  -1.193 132.258  0.00  0.00    +0.000 A 
ATOM      7  N   UNL     1      -7.130  -0.229 133.202  0.00  0.00    +0.000 N 
ATOM      8  N   UNL     1      -6.274  -2.325 132.659  0.00  0.00    +0.000 NA
ATOM      9  C   UNL     1      -6.077  -3.299 131.760  0.00  0.00    +0.000 A 
ATOM     10  N   UNL     1      -6.456  -3.287 130.486  0.00  0.00    +0.000 NA
ATOM     11  H   UNL     1      -7.585   0.634 132.956  0.00  0.00    +0.000 HD
ATOM     12  H   UNL     1      -6.834  -0.415 134.147  0.00  0.00    +0.000 HD
ENDROOT
BRANCH   3  13
ATOM     13  C   UNL     1      -7.358  -2.689 127.667  0.00  0.00    +0.000 C 
ATOM     14  C   UNL     1      -8.709  -3.124 127.067  0.00  0.00    +0.000 C 
ATOM     15  C   UNL     1      -8.395  -3.478 125.604  0.00  0.00    +0.000 C 
ATOM     16  N   UNL     1      -7.402  -2.506 125.220  0.00  0.00    +0.000 N 
ATOM     17  C   UNL     1      -6.644  -2.112 126.398  0.00  0.00    +0.000 C 
ATOM     18  C   UNL     1      -7.251  -1.802 124.033  0.00  0.00    +0.000 C 
ATOM     19  O   UNL     1      -6.430  -0.892 123.906  0.00  0.00    +0.000 OA
BRANCH  18  20
ATOM     20  C   UNL     1      -8.134  -2.164 122.883  0.00  0.00    +0.000 C 
ATOM     21  C   UNL     1      -9.282  -1.510 122.642  0.00  0.00    +0.000 C 
ENDBRANCH  18  20
ENDBRANCH   3  13
BRANCH   1  23
ATOM     22  C   UNL     1      -8.883   2.306 130.793  0.00  0.00    +0.000 C 
ATOM     23  C   UNL     1      -8.383   1.220 130.537  0.00  0.00    +0.000 C 
BRANCH  22  26
ATOM     24  C   UNL     1      -9.553   5.591 132.564  0.00  0.00    +0.000 A 
ATOM     25  C   UNL     1      -9.006   4.342 132.211  0.00  0.00    +0.000 A 
ATOM     26  C   UNL     1      -9.497   3.599 131.126  0.00  0.00    +0.000 A 
ATOM     27  C   UNL     1     -10.568   4.161 130.398  0.00  0.00    +0.000 A 
ATOM     28  C   UNL     1     -11.108   5.433 130.729  0.00  0.00    +0.000 A 
ATOM     29  C   UNL     1     -10.586   6.146 131.809  0.00  0.00    +0.000 A 
BRANCH  24  31
ATOM     30  C   UNL     1      -7.840   5.581 134.201  0.00  0.00    +0.000 C 
ATOM     31  O   UNL     1      -8.951   6.252 133.605  0.00  0.00    +0.000 OA
ENDBRANCH  24  31
BRANCH  28  32
ATOM     32  O   UNL     1     -12.131   5.892 129.930  0.00  0.00    +0.000 OA
ATOM     33  C   UNL     1     -12.754   7.128 130.301  0.00  0.00    +0.000 C 
ENDBRANCH  28  32
ENDBRANCH  22  26
ENDBRANCH   1  23
TORSDOF 6
ENDMDL
MODEL 9
REMARK VINA RESULT:      -7.5      4.542      7.346
REMARK  Name = Futibatinib
REMARK  8 active torsions:
REMARK  status: ('A' for Active; 'I' for Inactive)
REMARK    1  A    between atoms: C_1  and  O_2
REMARK    2  A    between atoms: O_2  and  C_3
REMARK    3  A    between atoms: C_5  and  C_11
REMARK    4  A    between atoms: C_7  and  O_8
REMARK    5  A    between atoms: O_8  and  C_9
REMARK    6  A    between atoms: C_12  and  C_13
REMARK    7  A    between atoms: N_15  and  C_16
REMARK    8  A    between atoms: C_21  and  C_23
REMARK                            x       y       z     vdW  Elec       q    Type
REMARK                         _______ _______ _______ _____ _____    ______ ____
ROOT
ATOM      1  C   UNL     1      -7.744   5.337 131.801  0.00  0.00    +0.000 A 
ATOM      2  N   UNL     1      -8.900   6.050 131.809  0.00  0.00    +0.000 NA
ATOM      3  N   UNL     1      -9.736   5.344 130.952  0.00  0.00    +0.000 N 
ATOM      4  C   UNL     1      -9.124   4.203 130.481  0.00  0.00    +0.000 A 
ATOM      5  C   UNL     1      -7.840   4.191 130.973  0.00  0.00    +0.000 A 
ATOM      6  C   UNL     1      -7.041   3.116 130.577  0.00  0.00    +0.000 A 
ATOM      7  N   UNL     1      -5.756   2.942 131.019  0.00  0.00    +0.000 N 
ATOM      8  N   UNL     1      -7.538   2.200 129.715  0.00  0.00    +0.000 NA
ATOM      9  C   UNL     1      -8.808   2.328 129.309  0.00  0.00    +0.000 A 
ATOM     10  N   UNL     1      -9.668   3.270 129.686  0.00  0.00    +0.000 NA
ATOM     11  H   UNL     1      -5.337   3.596 131.657  0.00  0.00    +0.000 HD
ATOM     12  H   UNL     1      -5.250   2.138 130.685  0.00  0.00    +0.000 HD
ENDROOT
BRANCH   3  13
ATOM     13  C   UNL     1     -11.148   5.692 130.712  0.00  0.00    +0.000 C 
ATOM     14  C   UNL     1     -11.818   6.647 131.721  0.00  0.00    +0.000 C 
ATOM     15  C   UNL     1     -12.958   7.314 130.935  0.00  0.00    +0.000 C 
ATOM     16  N   UNL     1     -12.411   7.489 129.613  0.00  0.00    +0.000 N 
ATOM     17  C   UNL     1     -11.427   6.444 129.366  0.00  0.00    +0.000 C 
ATOM     18  C   UNL     1     -12.524   8.554 128.730  0.00  0.00    +0.000 C 
ATOM     19  O   UNL     1     -11.874   8.616 127.686  0.00  0.00    +0.000 OA
BRANCH  18  20
ATOM     20  C   UNL     1     -13.462   9.663 129.083  0.00  0.00    +0.000 C 
ATOM     21  C   UNL     1     -13.131  10.609 129.977  0.00  0.00    +0.000 C 
ENDBRANCH  18  20
ENDBRANCH   3  13
BRANCH   1  23
ATOM     22  C   UNL     1      -5.496   6.029 133.097  0.00  0.00    +0.000 C 
ATOM     23  C   UNL     1      -6.557   5.717 132.577  0.00  0.00    +0.000 C 
BRANCH  22  26
ATOM     24  C   UNL     1      -2.862   6.622 135.761  0.00  0.00    +0.000 A 
ATOM     25  C   UNL     1      -4.059   6.261 135.110  0.00  0.00    +0.000 A 
ATOM     26  C   UNL     1      -4.230   6.432 133.727  0.00  0.00    +0.000 A 
ATOM     27  C   UNL     1      -3.145   6.982 133.011  0.00  0.00    +0.000 A 
ATOM     28  C   UNL     1      -1.924   7.323 133.654  0.00  0.00    +0.000 A 
ATOM     29  C   UNL     1      -1.789   7.129 135.029  0.00  0.00    +0.000 A 
BRANCH  24  31
ATOM     30  C   UNL     1      -4.001   5.896 137.708  0.00  0.00    +0.000 C 
ATOM     31  O   UNL     1      -2.789   6.351 137.104  0.00  0.00    +0.000 OA
ENDBRANCH  24  31
BRANCH  28  32
ATOM     32  O   UNL     1      -0.927   7.825 132.848  0.00  0.00    +0.000 OA
ATOM     33  C   UNL     1      -0.053   8.807 133.416  0.00  0.00    +0.000 C 
ENDBRANCH  28  32
ENDBRANCH  22  26
ENDBRANCH   1  23
TORSDOF 6
ENDMDL
