MODEL 1
REMARK VINA RESULT:      -6.1      0.000      0.000
REMARK  Name = Gabapentin
REMARK  5 active torsions:
REMARK  status: ('A' for Active; 'I' for Inactive)
REMARK    1  A    between atoms: N_1  and  C_2
REMARK    2  A    between atoms: C_2  and  C_3
REMARK    3  A    between atoms: C_3  and  C_4
REMARK    4  A    between atoms: C_4  and  C_5
REMARK    5  A    between atoms: C_5  and  O_6
REMARK                            x       y       z     vdW  Elec       q    Type
REMARK                         _______ _______ _______ _____ _____    ______ ____
ROOT
ATOM      1  C   UNL     1     -12.719   8.102 129.341  0.00  0.00    +0.000 C 
ATOM      2  C   UNL     1     -11.163   8.161 129.298  0.00  0.00    +0.000 C 
ATOM      3  C   UNL     1     -10.591   8.363 127.903  0.00  0.00    +0.000 C 
ATOM      4  C   UNL     1     -11.238   7.380 126.867  0.00  0.00    +0.000 C 
ATOM      5  C   UNL     1     -12.776   7.086 126.972  0.00  0.00    +0.000 C 
ATOM      6  C   UNL     1     -13.219   6.956 128.417  0.00  0.00    +0.000 C 
ENDROOT
BRANCH   1   7
ATOM      7  C   UNL     1     -13.111   7.668 130.817  0.00  0.00    +0.000 C 
BRANCH   7   8
ATOM      8  N   UNL     1     -12.305   6.566 131.328  0.00  0.00    +0.000 NA
ATOM      9  H   UNL     1     -12.055   6.715 132.303  0.00  0.00    +0.000 HD
ATOM     10  H   UNL     1     -11.437   6.470 130.806  0.00  0.00    +0.000 HD
ENDBRANCH   7   8
ENDBRANCH   1   7
BRANCH   1  11
ATOM     11  C   UNL     1     -13.384   9.519 129.047  0.00  0.00    +0.000 C 
BRANCH  11  12
ATOM     12  C   UNL     1     -13.333  10.840 129.847  0.00  0.00    +0.000 C 
ATOM     13  O   UNL     1     -13.331  10.897 131.054  0.00  0.00    +0.000 OA
BRANCH  12  14
ATOM     14  O   UNL     1     -13.322  11.980 129.159  0.00  0.00    +0.000 OA
ATOM     15  H   UNL     1     -13.877  12.556 129.671  0.00  0.00    +0.000 HD
ENDBRANCH  12  14
ENDBRANCH  11  12
ENDBRANCH   1  11
TORSDOF 5
ENDMDL
MODEL 2
REMARK VINA RESULT:      -5.8      2.763      3.701
REMARK  Name = Gabapentin
REMARK  5 active torsions:
REMARK  status: ('A' for Active; 'I' for Inactive)
REMARK    1  A    between atoms: N_1  and  C_2
REMARK    2  A    between atoms: C_2  and  C_3
REMARK    3  A    between atoms: C_3  and  C_4
REMARK    4  A    between atoms: C_4  and  C_5
REMARK    5  A    between atoms: C_5  and  O_6
REMARK                            x       y       z     vdW  Elec       q    Type
REMARK                         _______ _______ _______ _____ _____    ______ ____
ROOT
ATOM      1  C   UNL     1     -12.597   8.338 129.331  0.00  0.00    +0.000 C 
ATOM      2  C   UNL     1     -13.527   8.247 128.084  0.00  0.00    +0.000 C 
ATOM      3  C   UNL     1     -13.147   7.144 127.109  0.00  0.00    +0.000 C 
ATOM      4  C   UNL     1     -11.613   7.168 126.781  0.00  0.00    +0.000 C 
ATOM      5  C   UNL     1     -10.603   7.473 127.943  0.00  0.00    +0.000 C 
ATOM      6  C   UNL     1     -11.128   8.555 128.866  0.00  0.00    +0.000 C 
ENDROOT
BRANCH   1   7
ATOM      7  C   UNL     1     -13.006   9.664 130.101  0.00  0.00    +0.000 C 
BRANCH   7   8
ATOM      8  N   UNL     1     -13.325  10.774 129.211  0.00  0.00    +0.000 NA
ATOM      9  H   UNL     1     -12.523  11.030 128.640  0.00  0.00    +0.000 HD
ATOM     10  H   UNL     1     -13.597  11.602 129.736  0.00  0.00    +0.000 HD
ENDBRANCH   7   8
ENDBRANCH   1   7
BRANCH   1  11
ATOM     11  C   UNL     1     -12.794   7.106 130.321  0.00  0.00    +0.000 C 
BRANCH  11  12
ATOM     12  C   UNL     1     -11.778   6.364 131.218  0.00  0.00    +0.000 C 
ATOM     13  O   UNL     1     -11.237   6.861 132.177  0.00  0.00    +0.000 OA
BRANCH  12  14
ATOM     14  O   UNL     1     -11.461   5.113 130.889  0.00  0.00    +0.000 OA
ATOM     15  H   UNL     1     -11.348   5.151 129.947  0.00  0.00    +0.000 HD
ENDBRANCH  12  14
ENDBRANCH  11  12
ENDBRANCH   1  11
TORSDOF 5
ENDMDL
MODEL 3
REMARK VINA RESULT:      -5.6      3.179      4.004
REMARK  Name = Gabapentin
REMARK  5 active torsions:
REMARK  status: ('A' for Active; 'I' for Inactive)
REMARK    1  A    between atoms: N_1  and  C_2
REMARK    2  A    between atoms: C_2  and  C_3
REMARK    3  A    between atoms: C_3  and  C_4
REMARK    4  A    between atoms: C_4  and  C_5
REMARK    5  A    between atoms: C_5  and  O_6
REMARK                            x       y       z     vdW  Elec       q    Type
REMARK                         _______ _______ _______ _____ _____    ______ ____
ROOT
ATOM      1  C   UNL     1     -12.437   7.962 128.439  0.00  0.00    +0.000 C 
ATOM      2  C   UNL     1     -11.161   8.671 128.983  0.00  0.00    +0.000 C 
ATOM      3  C   UNL     1     -10.065   7.715 129.427  0.00  0.00    +0.000 C 
ATOM      4  C   UNL     1     -10.629   6.582 130.352  0.00  0.00    +0.000 C 
ATOM      5  C   UNL     1     -12.025   5.954 130.003  0.00  0.00    +0.000 C 
ATOM      6  C   UNL     1     -13.005   7.010 129.529  0.00  0.00    +0.000 C 
ENDROOT
BRANCH   1   7
ATOM      7  C   UNL     1     -13.532   9.095 128.243  0.00  0.00    +0.000 C 
BRANCH   7   8
ATOM      8  N   UNL     1     -13.238  10.316 128.984  0.00  0.00    +0.000 NA
ATOM      9  H   UNL     1     -12.939  11.062 128.359  0.00  0.00    +0.000 HD
ATOM     10  H   UNL     1     -12.490  10.168 129.657  0.00  0.00    +0.000 HD
ENDBRANCH   7   8
ENDBRANCH   1   7
BRANCH   1  11
ATOM     11  C   UNL     1     -12.184   7.266 127.029  0.00  0.00    +0.000 C 
BRANCH  11  12
ATOM     12  C   UNL     1     -10.928   7.247 126.128  0.00  0.00    +0.000 C 
ATOM     13  O   UNL     1     -10.037   6.437 126.230  0.00  0.00    +0.000 OA
BRANCH  12  14
ATOM     14  O   UNL     1     -10.813   8.201 125.207  0.00  0.00    +0.000 OA
ATOM     15  H   UNL     1      -9.875   8.299 125.101  0.00  0.00    +0.000 HD
ENDBRANCH  12  14
ENDBRANCH  11  12
ENDBRANCH   1  11
TORSDOF 5
ENDMDL
MODEL 4
REMARK VINA RESULT:      -5.6      3.041      3.939
REMARK  Name = Gabapentin
REMARK  5 active torsions:
REMARK  status: ('A' for Active; 'I' for Inactive)
REMARK    1  A    between atoms: N_1  and  C_2
REMARK    2  A    between atoms: C_2  and  C_3
REMARK    3  A    between atoms: C_3  and  C_4
REMARK    4  A    between atoms: C_4  and  C_5
REMARK    5  A    between atoms: C_5  and  O_6
REMARK                            x       y       z     vdW  Elec       q    Type
REMARK                         _______ _______ _______ _____ _____    ______ ____
ROOT
ATOM      1  C   UNL     1     -12.083   7.432 130.034  0.00  0.00    +0.000 C 
ATOM      2  C   UNL     1     -12.967   6.493 129.161  0.00  0.00    +0.000 C 
ATOM      3  C   UNL     1     -13.291   7.053 127.784  0.00  0.00    +0.000 C 
ATOM      4  C   UNL     1     -13.795   8.536 127.870  0.00  0.00    +0.000 C 
ATOM      5  C   UNL     1     -13.101   9.506 128.890  0.00  0.00    +0.000 C 
ATOM      6  C   UNL     1     -12.792   8.806 130.199  0.00  0.00    +0.000 C 
ENDROOT
BRANCH   1   7
ATOM      7  C   UNL     1     -12.043   6.790 131.485  0.00  0.00    +0.000 C 
BRANCH   7   8
ATOM      8  N   UNL     1     -11.394   5.485 131.522  0.00  0.00    +0.000 NA
ATOM      9  H   UNL     1     -10.687   5.406 130.794  0.00  0.00    +0.000 HD
ATOM     10  H   UNL     1     -12.064   4.734 131.374  0.00  0.00    +0.000 HD
ENDBRANCH   7   8
ENDBRANCH   1   7
BRANCH   1  11
ATOM     11  C   UNL     1     -10.588   7.528 129.492  0.00  0.00    +0.000 C 
BRANCH  11  12
ATOM     12  C   UNL     1      -9.719   6.487 128.749  0.00  0.00    +0.000 C 
ATOM     13  O   UNL     1      -8.966   5.721 129.301  0.00  0.00    +0.000 OA
BRANCH  12  14
ATOM     14  O   UNL     1      -9.787   6.462 127.419  0.00  0.00    +0.000 OA
ATOM     15  H   UNL     1      -9.615   7.362 127.169  0.00  0.00    +0.000 HD
ENDBRANCH  12  14
ENDBRANCH  11  12
ENDBRANCH   1  11
TORSDOF 5
ENDMDL
MODEL 5
REMARK VINA RESULT:      -5.4      4.310      5.457
REMARK  Name = Gabapentin
REMARK  5 active torsions:
REMARK  status: ('A' for Active; 'I' for Inactive)
REMARK    1  A    between atoms: N_1  and  C_2
REMARK    2  A    between atoms: C_2  and  C_3
REMARK    3  A    between atoms: C_3  and  C_4
REMARK    4  A    between atoms: C_4  and  C_5
REMARK    5  A    between atoms: C_5  and  O_6
REMARK                            x       y       z     vdW  Elec       q    Type
REMARK                         _______ _______ _______ _____ _____    ______ ____
ROOT
ATOM      1  C   UNL     1     -10.667   6.292 130.936  0.00  0.00    +0.000 C 
ATOM      2  C   UNL     1     -11.794   6.919 131.810  0.00  0.00    +0.000 C 
ATOM      3  C   UNL     1     -12.992   7.410 131.013  0.00  0.00    +0.000 C 
ATOM      4  C   UNL     1     -12.550   8.284 129.788  0.00  0.00    +0.000 C 
ATOM      5  C   UNL     1     -11.282   7.847 128.973  0.00  0.00    +0.000 C 
ATOM      6  C   UNL     1     -10.185   7.334 129.886  0.00  0.00    +0.000 C 
ENDROOT
BRANCH   1   7
ATOM      7  C   UNL     1      -9.430   6.051 131.902  0.00  0.00    +0.000 C 
BRANCH   7   8
ATOM      8  N   UNL     1      -9.756   6.230 133.312  0.00  0.00    +0.000 NA
ATOM      9  H   UNL     1     -10.752   6.397 133.441  0.00  0.00    +0.000 HD
ATOM     10  H   UNL     1      -9.263   7.029 133.706  0.00  0.00    +0.000 HD
ENDBRANCH   7   8
ENDBRANCH   1   7
BRANCH   1  11
ATOM     11  C   UNL     1     -11.094   4.889 130.317  0.00  0.00    +0.000 C 
BRANCH  11  12
ATOM     12  C   UNL     1     -10.414   3.503 130.400  0.00  0.00    +0.000 C 
ATOM     13  O   UNL     1      -9.681   3.060 129.549  0.00  0.00    +0.000 OA
BRANCH  12  14
ATOM     14  O   UNL     1     -10.683   2.746 131.462  0.00  0.00    +0.000 OA
ATOM     15  H   UNL     1     -10.878   1.896 131.087  0.00  0.00    +0.000 HD
ENDBRANCH  12  14
ENDBRANCH  11  12
ENDBRANCH   1  11
TORSDOF 5
ENDMDL
MODEL 6
REMARK VINA RESULT:      -5.1      9.955     11.345
REMARK  Name = Gabapentin
REMARK  5 active torsions:
REMARK  status: ('A' for Active; 'I' for Inactive)
REMARK    1  A    between atoms: N_1  and  C_2
REMARK    2  A    between atoms: C_2  and  C_3
REMARK    3  A    between atoms: C_3  and  C_4
REMARK    4  A    between atoms: C_4  and  C_5
REMARK    5  A    between atoms: C_5  and  O_6
REMARK                            x       y       z     vdW  Elec       q    Type
REMARK                         _______ _______ _______ _____ _____    ______ ____
ROOT
ATOM      1  C   UNL     1      -8.276  -0.650 123.706  0.00  0.00    +0.000 C 
ATOM      2  C   UNL     1      -8.159  -1.976 122.898  0.00  0.00    +0.000 C 
ATOM      3  C   UNL     1      -9.206  -3.017 123.264  0.00  0.00    +0.000 C 
ATOM      4  C   UNL     1      -9.313  -3.204 124.817  0.00  0.00    +0.000 C 
ATOM      5  C   UNL     1      -9.220  -1.934 125.734  0.00  0.00    +0.000 C 
ATOM      6  C   UNL     1      -8.173  -0.960 125.227  0.00  0.00    +0.000 C 
ENDROOT
BRANCH   1   7
ATOM      7  C   UNL     1      -6.987   0.207 123.353  0.00  0.00    +0.000 C 
BRANCH   7   8
ATOM      8  N   UNL     1      -6.779   1.335 124.253  0.00  0.00    +0.000 NA
ATOM      9  H   UNL     1      -7.656   1.811 124.455  0.00  0.00    +0.000 HD
ATOM     10  H   UNL     1      -6.151   2.024 123.843  0.00  0.00    +0.000 HD
ENDBRANCH   7   8
ENDBRANCH   1   7
BRANCH   1  11
ATOM     11  C   UNL     1      -9.562   0.194 123.296  0.00  0.00    +0.000 C 
BRANCH  11  12
ATOM     12  C   UNL     1     -10.307   1.322 124.046  0.00  0.00    +0.000 C 
ATOM     13  O   UNL     1      -9.756   2.166 124.713  0.00  0.00    +0.000 OA
BRANCH  12  14
ATOM     14  O   UNL     1     -11.636   1.340 123.974  0.00  0.00    +0.000 OA
ATOM     15  H   UNL     1     -11.871   2.169 124.372  0.00  0.00    +0.000 HD
ENDBRANCH  12  14
ENDBRANCH  11  12
ENDBRANCH   1  11
TORSDOF 5
ENDMDL
MODEL 7
REMARK VINA RESULT:      -5.0     12.496     13.511
REMARK  Name = Gabapentin
REMARK  5 active torsions:
REMARK  status: ('A' for Active; 'I' for Inactive)
REMARK    1  A    between atoms: N_1  and  C_2
REMARK    2  A    between atoms: C_2  and  C_3
REMARK    3  A    between atoms: C_3  and  C_4
REMARK    4  A    between atoms: C_4  and  C_5
REMARK    5  A    between atoms: C_5  and  O_6
REMARK                            x       y       z     vdW  Elec       q    Type
REMARK                         _______ _______ _______ _____ _____    ______ ____
ROOT
ATOM      1  C   UNL     1      -6.714  -2.578 125.076  0.00  0.00    +0.000 C 
ATOM      2  C   UNL     1      -6.822  -1.281 124.219  0.00  0.00    +0.000 C 
ATOM      3  C   UNL     1      -6.577  -1.500 122.734  0.00  0.00    +0.000 C 
ATOM      4  C   UNL     1      -5.279  -2.344 122.484  0.00  0.00    +0.000 C 
ATOM      5  C   UNL     1      -4.971  -3.548 123.442  0.00  0.00    +0.000 C 
ATOM      6  C   UNL     1      -5.306  -3.210 124.882  0.00  0.00    +0.000 C 
ENDROOT
BRANCH   1   7
ATOM      7  C   UNL     1      -6.775  -2.119 126.595  0.00  0.00    +0.000 C 
BRANCH   7   8
ATOM      8  N   UNL     1      -7.840  -1.162 126.867  0.00  0.00    +0.000 NA
ATOM      9  H   UNL     1      -7.593  -0.547 127.640  0.00  0.00    +0.000 HD
ATOM     10  H   UNL     1      -8.705  -1.635 127.123  0.00  0.00    +0.000 HD
ENDBRANCH   7   8
ENDBRANCH   1   7
BRANCH   1  11
ATOM     11  C   UNL     1      -7.923  -3.579 124.810  0.00  0.00    +0.000 C 
BRANCH  11  12
ATOM     12  C   UNL     1      -9.419  -3.299 124.535  0.00  0.00    +0.000 C 
ATOM     13  O   UNL     1      -9.931  -3.385 123.445  0.00  0.00    +0.000 OA
BRANCH  12  14
ATOM     14  O   UNL     1     -10.173  -2.908 125.561  0.00  0.00    +0.000 OA
ATOM     15  H   UNL     1      -9.595  -2.348 126.064  0.00  0.00    +0.000 HD
ENDBRANCH  12  14
ENDBRANCH  11  12
ENDBRANCH   1  11
TORSDOF 5
ENDMDL
MODEL 8
REMARK VINA RESULT:      -5.0     12.828     13.705
REMARK  Name = Gabapentin
REMARK  5 active torsions:
REMARK  status: ('A' for Active; 'I' for Inactive)
REMARK    1  A    between atoms: N_1  and  C_2
REMARK    2  A    between atoms: C_2  and  C_3
REMARK    3  A    between atoms: C_3  and  C_4
REMARK    4  A    between atoms: C_4  and  C_5
REMARK    5  A    between atoms: C_5  and  O_6
REMARK                            x       y       z     vdW  Elec       q    Type
REMARK                         _______ _______ _______ _____ _____    ______ ____
ROOT
ATOM      1  C   UNL     1      -6.402  -2.510 123.928  0.00  0.00    +0.000 C 
ATOM      2  C   UNL     1      -7.060  -2.025 122.602  0.00  0.00    +0.000 C 
ATOM      3  C   UNL     1      -8.556  -1.777 122.710  0.00  0.00    +0.000 C 
ATOM      4  C   UNL     1      -9.290  -2.977 123.405  0.00  0.00    +0.000 C 
ATOM      5  C   UNL     1      -8.593  -3.677 124.624  0.00  0.00    +0.000 C 
ATOM      6  C   UNL     1      -7.099  -3.816 124.405  0.00  0.00    +0.000 C 
ENDROOT
BRANCH   1   7
ATOM      7  C   UNL     1      -4.912  -2.924 123.566  0.00  0.00    +0.000 C 
BRANCH   7   8
ATOM      8  N   UNL     1      -4.638  -4.339 123.781  0.00  0.00    +0.000 NA
ATOM      9  H   UNL     1      -4.787  -4.599 124.754  0.00  0.00    +0.000 HD
ATOM     10  H   UNL     1      -3.672  -4.567 123.553  0.00  0.00    +0.000 HD
ENDBRANCH   7   8
ENDBRANCH   1   7
BRANCH   1  11
ATOM     11  C   UNL     1      -6.344  -1.360 125.028  0.00  0.00    +0.000 C 
BRANCH  11  12
ATOM     12  C   UNL     1      -5.544  -1.269 126.348  0.00  0.00    +0.000 C 
ATOM     13  O   UNL     1      -5.471  -2.165 127.155  0.00  0.00    +0.000 OA
BRANCH  12  14
ATOM     14  O   UNL     1      -4.926  -0.121 126.618  0.00  0.00    +0.000 OA
ATOM     15  H   UNL     1      -5.418   0.521 126.121  0.00  0.00    +0.000 HD
ENDBRANCH  12  14
ENDBRANCH  11  12
ENDBRANCH   1  11
TORSDOF 5
ENDMDL
MODEL 9
REMARK VINA RESULT:      -5.0     12.321     13.661
REMARK  Name = Gabapentin
REMARK  5 active torsions:
REMARK  status: ('A' for Active; 'I' for Inactive)
REMARK    1  A    between atoms: N_1  and  C_2
REMARK    2  A    between atoms: C_2  and  C_3
REMARK    3  A    between atoms: C_3  and  C_4
REMARK    4  A    between atoms: C_4  and  C_5
REMARK    5  A    between atoms: C_5  and  O_6
REMARK                            x       y       z     vdW  Elec       q    Type
REMARK                         _______ _______ _______ _____ _____    ______ ____
ROOT
ATOM      1  C   UNL     1      -6.407  -3.003 124.246  0.00  0.00    +0.000 C 
ATOM      2  C   UNL     1      -5.774  -2.236 125.445  0.00  0.00    +0.000 C 
ATOM      3  C   UNL     1      -6.502  -0.952 125.811  0.00  0.00    +0.000 C 
ATOM      4  C   UNL     1      -6.785  -0.070 124.546  0.00  0.00    +0.000 C 
ATOM      5  C   UNL     1      -7.219  -0.782 123.217  0.00  0.00    +0.000 C 
ATOM      6  C   UNL     1      -6.450  -2.071 123.001  0.00  0.00    +0.000 C 
ENDROOT
BRANCH   1   7
ATOM      7  C   UNL     1      -5.397  -4.171 123.876  0.00  0.00    +0.000 C 
BRANCH   7   8
ATOM      8  N   UNL     1      -4.092  -3.689 123.439  0.00  0.00    +0.000 NA
ATOM      9  H   UNL     1      -3.340  -4.172 123.927  0.00  0.00    +0.000 HD
ATOM     10  H   UNL     1      -3.983  -2.695 123.627  0.00  0.00    +0.000 HD
ENDBRANCH   7   8
ENDBRANCH   1   7
BRANCH   1  11
ATOM     11  C   UNL     1      -7.809  -3.658 124.622  0.00  0.00    +0.000 C 
BRANCH  11  12
ATOM     12  C   UNL     1      -9.240  -3.078 124.556  0.00  0.00    +0.000 C 
ATOM     13  O   UNL     1      -9.728  -2.388 125.419  0.00  0.00    +0.000 OA
BRANCH  12  14
ATOM     14  O   UNL     1      -9.984  -3.388 123.495  0.00  0.00    +0.000 OA
ATOM     15  H   UNL     1      -9.672  -2.795 122.822  0.00  0.00    +0.000 HD
ENDBRANCH  12  14
ENDBRANCH  11  12
ENDBRANCH   1  11
TORSDOF 5
ENDMDL
