MODEL 1
REMARK VINA RESULT:      -6.7      0.000      0.000
REMARK  Name = Gabapentin enacarbil
REMARK  13 active torsions:
REMARK  status: ('A' for Active; 'I' for Inactive)
REMARK    1  A    between atoms: C_1  and  C_2
REMARK    2  A    between atoms: C_2  and  C_3
REMARK    3  A    between atoms: C_2  and  C_4
REMARK    4  A    between atoms: C_4  and  O_6
REMARK    5  A    between atoms: O_6  and  C_7
REMARK    6  A    between atoms: C_7  and  C_8
REMARK    7  A    between atoms: C_7  and  O_9
REMARK    8  A    between atoms: O_9  and  C_10
REMARK    9  A    between atoms: N_12  and  C_13
REMARK   10  A    between atoms: C_13  and  C_14
REMARK   11  A    between atoms: C_14  and  C_15
REMARK   12  A    between atoms: C_15  and  C_16
REMARK   13  A    between atoms: C_16  and  O_17
REMARK                            x       y       z     vdW  Elec       q    Type
REMARK                         _______ _______ _______ _____ _____    ______ ____
ROOT
ATOM      1  C   UNL     1     -10.017   5.598 132.547  0.00  0.00    +0.000 C 
ATOM      2  O   UNL     1      -9.846   6.544 133.292  0.00  0.00    +0.000 OA
ATOM      3  N   UNL     1     -11.081   5.518 131.676  0.00  0.00    +0.000 N 
ATOM      4  H   UNL     1     -11.154   4.649 131.172  0.00  0.00    +0.000 HD
ENDROOT
BRANCH   1   5
ATOM      5  O   UNL     1      -9.191   4.499 132.459  0.00  0.00    +0.000 OA
BRANCH   5   6
ATOM      6  C   UNL     1      -9.060   3.677 133.676  0.00  0.00    +0.000 C 
ATOM      7  C   UNL     1      -8.162   4.402 134.687  0.00  0.00    +0.000 C 
BRANCH   6   8
ATOM      8  O   UNL     1      -8.463   2.364 133.373  0.00  0.00    +0.000 OA
BRANCH   8   9
ATOM      9  C   UNL     1      -7.765   2.275 132.192  0.00  0.00    +0.000 C 
ATOM     10  O   UNL     1      -6.692   2.830 131.988  0.00  0.00    +0.000 OA
BRANCH   9  12
ATOM     11  C   UNL     1      -7.480   0.381 130.555  0.00  0.00    +0.000 C 
ATOM     12  C   UNL     1      -8.461   1.428 131.120  0.00  0.00    +0.000 C 
ATOM     13  C   UNL     1      -9.663   0.699 131.702  0.00  0.00    +0.000 C 
ENDBRANCH   9  12
ENDBRANCH   8   9
ENDBRANCH   6   8
ENDBRANCH   5   6
ENDBRANCH   1   5
BRANCH   3  14
ATOM     14  C   UNL     1     -12.053   6.618 131.481  0.00  0.00    +0.000 C 
BRANCH  14  15
ATOM     15  C   UNL     1     -12.046   7.302 130.037  0.00  0.00    +0.000 C 
ATOM     16  C   UNL     1     -12.866   6.380 129.098  0.00  0.00    +0.000 C 
ATOM     17  C   UNL     1     -13.213   6.979 127.754  0.00  0.00    +0.000 C 
ATOM     18  C   UNL     1     -13.748   8.446 127.903  0.00  0.00    +0.000 C 
ATOM     19  C   UNL     1     -13.052   9.401 128.931  0.00  0.00    +0.000 C 
ATOM     20  C   UNL     1     -12.731   8.682 130.227  0.00  0.00    +0.000 C 
BRANCH  15  21
ATOM     21  C   UNL     1     -10.527   7.455 129.541  0.00  0.00    +0.000 C 
BRANCH  21  22
ATOM     22  C   UNL     1      -9.628   6.442 128.763  0.00  0.00    +0.000 C 
ATOM     23  O   UNL     1      -9.630   6.324 127.561  0.00  0.00    +0.000 OA
BRANCH  22  24
ATOM     24  O   UNL     1      -8.809   5.659 129.464  0.00  0.00    +0.000 OA
ATOM     25  H   UNL     1      -8.276   6.255 129.976  0.00  0.00    +0.000 HD
ENDBRANCH  22  24
ENDBRANCH  21  22
ENDBRANCH  15  21
ENDBRANCH  14  15
ENDBRANCH   3  14
TORSDOF 10
ENDMDL
MODEL 2
REMARK VINA RESULT:      -6.6      7.115     10.127
REMARK  Name = Gabapentin enacarbil
REMARK  13 active torsions:
REMARK  status: ('A' for Active; 'I' for Inactive)
REMARK    1  A    between atoms: C_1  and  C_2
REMARK    2  A    between atoms: C_2  and  C_3
REMARK    3  A    between atoms: C_2  and  C_4
REMARK    4  A    between atoms: C_4  and  O_6
REMARK    5  A    between atoms: O_6  and  C_7
REMARK    6  A    between atoms: C_7  and  C_8
REMARK    7  A    between atoms: C_7  and  O_9
REMARK    8  A    between atoms: O_9  and  C_10
REMARK    9  A    between atoms: N_12  and  C_13
REMARK   10  A    between atoms: C_13  and  C_14
REMARK   11  A    between atoms: C_14  and  C_15
REMARK   12  A    between atoms: C_15  and  C_16
REMARK   13  A    between atoms: C_16  and  O_17
REMARK                            x       y       z     vdW  Elec       q    Type
REMARK                         _______ _______ _______ _____ _____    ______ ____
ROOT
ATOM      1  C   UNL     1      -7.883   2.501 125.923  0.00  0.00    +0.000 C 
ATOM      2  O   UNL     1      -8.905   2.985 125.474  0.00  0.00    +0.000 OA
ATOM      3  N   UNL     1      -7.747   1.154 126.180  0.00  0.00    +0.000 N 
ATOM      4  H   UNL     1      -6.883   0.891 126.625  0.00  0.00    +0.000 HD
ENDROOT
BRANCH   1   5
ATOM      5  O   UNL     1      -6.739   3.205 126.226  0.00  0.00    +0.000 OA
BRANCH   5   6
ATOM      6  C   UNL     1      -5.739   3.327 125.149  0.00  0.00    +0.000 C 
ATOM      7  C   UNL     1      -4.395   3.761 125.748  0.00  0.00    +0.000 C 
BRANCH   6   8
ATOM      8  O   UNL     1      -6.152   4.325 124.146  0.00  0.00    +0.000 OA
BRANCH   8   9
ATOM      9  C   UNL     1      -6.424   3.841 122.888  0.00  0.00    +0.000 C 
ATOM     10  O   UNL     1      -7.543   3.517 122.507  0.00  0.00    +0.000 OA
BRANCH   9  12
ATOM     11  C   UNL     1      -5.592   3.141 120.616  0.00  0.00    +0.000 C 
ATOM     12  C   UNL     1      -5.189   3.714 121.989  0.00  0.00    +0.000 C 
ATOM     13  C   UNL     1      -4.535   5.071 121.773  0.00  0.00    +0.000 C 
ENDBRANCH   9  12
ENDBRANCH   8   9
ENDBRANCH   6   8
ENDBRANCH   5   6
ENDBRANCH   1   5
BRANCH   3  14
ATOM     14  C   UNL     1      -8.782   0.154 125.831  0.00  0.00    +0.000 C 
BRANCH  14  15
ATOM     15  C   UNL     1      -8.360  -0.929 124.736  0.00  0.00    +0.000 C 
ATOM     16  C   UNL     1      -6.821  -1.091 124.831  0.00  0.00    +0.000 C 
ATOM     17  C   UNL     1      -6.251  -2.267 124.071  0.00  0.00    +0.000 C 
ATOM     18  C   UNL     1      -7.088  -3.569 124.320  0.00  0.00    +0.000 C 
ATOM     19  C   UNL     1      -8.651  -3.463 124.366  0.00  0.00    +0.000 C 
ATOM     20  C   UNL     1      -9.100  -2.234 125.133  0.00  0.00    +0.000 C 
BRANCH  15  21
ATOM     21  C   UNL     1      -8.813  -0.407 123.287  0.00  0.00    +0.000 C 
BRANCH  21  22
ATOM     22  C   UNL     1      -9.949   0.594 122.900  0.00  0.00    +0.000 C 
ATOM     23  O   UNL     1     -11.070   0.258 122.600  0.00  0.00    +0.000 OA
BRANCH  22  24
ATOM     24  O   UNL     1      -9.668   1.896 122.902  0.00  0.00    +0.000 OA
ATOM     25  H   UNL     1      -9.730   2.164 121.994  0.00  0.00    +0.000 HD
ENDBRANCH  22  24
ENDBRANCH  21  22
ENDBRANCH  15  21
ENDBRANCH  14  15
ENDBRANCH   3  14
TORSDOF 10
ENDMDL
MODEL 3
REMARK VINA RESULT:      -6.6      2.414      7.052
REMARK  Name = Gabapentin enacarbil
REMARK  13 active torsions:
REMARK  status: ('A' for Active; 'I' for Inactive)
REMARK    1  A    between atoms: C_1  and  C_2
REMARK    2  A    between atoms: C_2  and  C_3
REMARK    3  A    between atoms: C_2  and  C_4
REMARK    4  A    between atoms: C_4  and  O_6
REMARK    5  A    between atoms: O_6  and  C_7
REMARK    6  A    between atoms: C_7  and  C_8
REMARK    7  A    between atoms: C_7  and  O_9
REMARK    8  A    between atoms: O_9  and  C_10
REMARK    9  A    between atoms: N_12  and  C_13
REMARK   10  A    between atoms: C_13  and  C_14
REMARK   11  A    between atoms: C_14  and  C_15
REMARK   12  A    between atoms: C_15  and  C_16
REMARK   13  A    between atoms: C_16  and  O_17
REMARK                            x       y       z     vdW  Elec       q    Type
REMARK                         _______ _______ _______ _____ _____    ______ ____
ROOT
ATOM      1  C   UNL     1      -9.376   4.184 130.006  0.00  0.00    +0.000 C 
ATOM      2  O   UNL     1      -8.700   3.876 129.041  0.00  0.00    +0.000 OA
ATOM      3  N   UNL     1      -8.878   4.202 131.290  0.00  0.00    +0.000 N 
ATOM      4  H   UNL     1      -9.558   4.396 132.007  0.00  0.00    +0.000 HD
ENDROOT
BRANCH   1   5
ATOM      5  O   UNL     1     -10.700   4.558 129.958  0.00  0.00    +0.000 OA
BRANCH   5   6
ATOM      6  C   UNL     1     -10.974   6.007 129.967  0.00  0.00    +0.000 C 
ATOM      7  C   UNL     1     -12.027   6.321 131.037  0.00  0.00    +0.000 C 
BRANCH   6   8
ATOM      8  O   UNL     1     -11.481   6.464 128.659  0.00  0.00    +0.000 OA
BRANCH   8   9
ATOM      9  C   UNL     1     -11.259   7.786 128.354  0.00  0.00    +0.000 C 
ATOM     10  O   UNL     1     -10.145   8.292 128.275  0.00  0.00    +0.000 OA
BRANCH   9  12
ATOM     11  C   UNL     1     -13.731   7.652 127.890  0.00  0.00    +0.000 C 
ATOM     12  C   UNL     1     -12.540   8.599 128.137  0.00  0.00    +0.000 C 
ATOM     13  C   UNL     1     -12.849   9.457 129.356  0.00  0.00    +0.000 C 
ENDBRANCH   9  12
ENDBRANCH   8   9
ENDBRANCH   6   8
ENDBRANCH   5   6
ENDBRANCH   1   5
BRANCH   3  14
ATOM     14  C   UNL     1      -7.452   3.960 131.610  0.00  0.00    +0.000 C 
BRANCH  14  15
ATOM     15  C   UNL     1      -6.874   4.770 132.859  0.00  0.00    +0.000 C 
ATOM     16  C   UNL     1      -8.053   4.985 133.842  0.00  0.00    +0.000 C 
ATOM     17  C   UNL     1      -7.662   5.490 135.213  0.00  0.00    +0.000 C 
ATOM     18  C   UNL     1      -6.436   4.699 135.785  0.00  0.00    +0.000 C 
ATOM     19  C   UNL     1      -5.259   4.330 134.819  0.00  0.00    +0.000 C 
ATOM     20  C   UNL     1      -5.774   3.862 133.472  0.00  0.00    +0.000 C 
BRANCH  15  21
ATOM     21  C   UNL     1      -6.272   6.165 132.341  0.00  0.00    +0.000 C 
BRANCH  21  22
ATOM     22  C   UNL     1      -6.615   6.979 131.052  0.00  0.00    +0.000 C 
ATOM     23  O   UNL     1      -7.740   7.251 130.707  0.00  0.00    +0.000 OA
BRANCH  22  24
ATOM     24  O   UNL     1      -5.609   7.399 130.287  0.00  0.00    +0.000 OA
ATOM     25  H   UNL     1      -5.736   6.969 129.451  0.00  0.00    +0.000 HD
ENDBRANCH  22  24
ENDBRANCH  21  22
ENDBRANCH  15  21
ENDBRANCH  14  15
ENDBRANCH   3  14
TORSDOF 10
ENDMDL
MODEL 4
REMARK VINA RESULT:      -6.6      5.032      8.314
REMARK  Name = Gabapentin enacarbil
REMARK  13 active torsions:
REMARK  status: ('A' for Active; 'I' for Inactive)
REMARK    1  A    between atoms: C_1  and  C_2
REMARK    2  A    between atoms: C_2  and  C_3
REMARK    3  A    between atoms: C_2  and  C_4
REMARK    4  A    between atoms: C_4  and  O_6
REMARK    5  A    between atoms: O_6  and  C_7
REMARK    6  A    between atoms: C_7  and  C_8
REMARK    7  A    between atoms: C_7  and  O_9
REMARK    8  A    between atoms: O_9  and  C_10
REMARK    9  A    between atoms: N_12  and  C_13
REMARK   10  A    between atoms: C_13  and  C_14
REMARK   11  A    between atoms: C_14  and  C_15
REMARK   12  A    between atoms: C_15  and  C_16
REMARK   13  A    between atoms: C_16  and  O_17
REMARK                            x       y       z     vdW  Elec       q    Type
REMARK                         _______ _______ _______ _____ _____    ______ ____
ROOT
ATOM      1  C   UNL     1      -8.479   2.170 127.323  0.00  0.00    +0.000 C 
ATOM      2  O   UNL     1      -8.553   3.064 126.501  0.00  0.00    +0.000 OA
ATOM      3  N   UNL     1      -7.859   0.967 127.063  0.00  0.00    +0.000 N 
ATOM      4  H   UNL     1      -7.936   0.282 127.797  0.00  0.00    +0.000 HD
ENDROOT
BRANCH   1   5
ATOM      5  O   UNL     1      -8.983   2.227 128.603  0.00  0.00    +0.000 OA
BRANCH   5   6
ATOM      6  C   UNL     1      -8.559   3.376 129.425  0.00  0.00    +0.000 C 
ATOM      7  C   UNL     1      -8.015   2.870 130.767  0.00  0.00    +0.000 C 
BRANCH   6   8
ATOM      8  O   UNL     1      -9.685   4.291 129.688  0.00  0.00    +0.000 OA
BRANCH   8   9
ATOM      9  C   UNL     1      -9.499   5.600 129.313  0.00  0.00    +0.000 C 
ATOM     10  O   UNL     1      -9.377   5.969 128.150  0.00  0.00    +0.000 OA
BRANCH   9  12
ATOM     11  C   UNL     1     -10.298   6.066 131.656  0.00  0.00    +0.000 C 
ATOM     12  C   UNL     1      -9.434   6.582 130.489  0.00  0.00    +0.000 C 
ATOM     13  C   UNL     1      -8.003   6.743 130.981  0.00  0.00    +0.000 C 
ENDBRANCH   9  12
ENDBRANCH   8   9
ENDBRANCH   6   8
ENDBRANCH   5   6
ENDBRANCH   1   5
BRANCH   3  14
ATOM     14  C   UNL     1      -7.127   0.687 125.807  0.00  0.00    +0.000 C 
BRANCH  14  15
ATOM     15  C   UNL     1      -7.766  -0.435 124.866  0.00  0.00    +0.000 C 
ATOM     16  C   UNL     1      -6.602  -1.345 124.397  0.00  0.00    +0.000 C 
ATOM     17  C   UNL     1      -7.025  -2.630 123.721  0.00  0.00    +0.000 C 
ATOM     18  C   UNL     1      -8.168  -3.346 124.519  0.00  0.00    +0.000 C 
ATOM     19  C   UNL     1      -9.316  -2.476 125.137  0.00  0.00    +0.000 C 
ATOM     20  C   UNL     1      -8.772  -1.206 125.762  0.00  0.00    +0.000 C 
BRANCH  15  21
ATOM     21  C   UNL     1      -8.498   0.278 123.629  0.00  0.00    +0.000 C 
BRANCH  21  22
ATOM     22  C   UNL     1      -9.930   0.899 123.543  0.00  0.00    +0.000 C 
ATOM     23  O   UNL     1     -10.789   0.509 122.788  0.00  0.00    +0.000 OA
BRANCH  22  24
ATOM     24  O   UNL     1     -10.224   1.918 124.349  0.00  0.00    +0.000 OA
ATOM     25  H   UNL     1     -11.073   2.225 124.060  0.00  0.00    +0.000 HD
ENDBRANCH  22  24
ENDBRANCH  21  22
ENDBRANCH  15  21
ENDBRANCH  14  15
ENDBRANCH   3  14
TORSDOF 10
ENDMDL
MODEL 5
REMARK VINA RESULT:      -6.5      6.475      9.947
REMARK  Name = Gabapentin enacarbil
REMARK  13 active torsions:
REMARK  status: ('A' for Active; 'I' for Inactive)
REMARK    1  A    between atoms: C_1  and  C_2
REMARK    2  A    between atoms: C_2  and  C_3
REMARK    3  A    between atoms: C_2  and  C_4
REMARK    4  A    between atoms: C_4  and  O_6
REMARK    5  A    between atoms: O_6  and  C_7
REMARK    6  A    between atoms: C_7  and  C_8
REMARK    7  A    between atoms: C_7  and  O_9
REMARK    8  A    between atoms: O_9  and  C_10
REMARK    9  A    between atoms: N_12  and  C_13
REMARK   10  A    between atoms: C_13  and  C_14
REMARK   11  A    between atoms: C_14  and  C_15
REMARK   12  A    between atoms: C_15  and  C_16
REMARK   13  A    between atoms: C_16  and  O_17
REMARK                            x       y       z     vdW  Elec       q    Type
REMARK                         _______ _______ _______ _____ _____    ______ ____
ROOT
ATOM      1  C   UNL     1      -7.817   2.833 126.513  0.00  0.00    +0.000 C 
ATOM      2  O   UNL     1      -8.479   2.889 127.533  0.00  0.00    +0.000 OA
ATOM      3  N   UNL     1      -7.856   1.756 125.656  0.00  0.00    +0.000 N 
ATOM      4  H   UNL     1      -7.202   1.797 124.891  0.00  0.00    +0.000 HD
ENDROOT
BRANCH   1   5
ATOM      5  O   UNL     1      -6.958   3.815 126.072  0.00  0.00    +0.000 OA
BRANCH   5   6
ATOM      6  C   UNL     1      -5.958   3.410 125.068  0.00  0.00    +0.000 C 
ATOM      7  C   UNL     1      -4.555   3.784 125.564  0.00  0.00    +0.000 C 
BRANCH   6   8
ATOM      8  O   UNL     1      -6.194   4.080 123.776  0.00  0.00    +0.000 OA
BRANCH   8   9
ATOM      9  C   UNL     1      -6.480   3.258 122.712  0.00  0.00    +0.000 C 
ATOM     10  O   UNL     1      -7.306   2.353 122.749  0.00  0.00    +0.000 OA
BRANCH   9  12
ATOM     11  C   UNL     1      -6.582   3.915 120.282  0.00  0.00    +0.000 C 
ATOM     12  C   UNL     1      -5.651   3.552 121.457  0.00  0.00    +0.000 C 
ATOM     13  C   UNL     1      -4.700   4.716 121.696  0.00  0.00    +0.000 C 
ENDBRANCH   9  12
ENDBRANCH   8   9
ENDBRANCH   6   8
ENDBRANCH   5   6
ENDBRANCH   1   5
BRANCH   3  14
ATOM     14  C   UNL     1      -8.786   0.616 125.829  0.00  0.00    +0.000 C 
BRANCH  14  15
ATOM     15  C   UNL     1      -8.110  -0.781 126.208  0.00  0.00    +0.000 C 
ATOM     16  C   UNL     1      -7.904  -0.779 127.745  0.00  0.00    +0.000 C 
ATOM     17  C   UNL     1      -7.530  -2.117 128.343  0.00  0.00    +0.000 C 
ATOM     18  C   UNL     1      -8.432  -3.268 127.779  0.00  0.00    +0.000 C 
ATOM     19  C   UNL     1      -8.792  -3.265 126.254  0.00  0.00    +0.000 C 
ATOM     20  C   UNL     1      -9.124  -1.869 125.766  0.00  0.00    +0.000 C 
BRANCH  15  21
ATOM     21  C   UNL     1      -6.716  -0.913 125.423  0.00  0.00    +0.000 C 
BRANCH  21  22
ATOM     22  C   UNL     1      -6.444  -1.329 123.941  0.00  0.00    +0.000 C 
ATOM     23  O   UNL     1      -5.981  -2.396 123.615  0.00  0.00    +0.000 OA
BRANCH  22  24
ATOM     24  O   UNL     1      -6.740  -0.457 122.979  0.00  0.00    +0.000 OA
ATOM     25  H   UNL     1      -6.702  -0.956 122.172  0.00  0.00    +0.000 HD
ENDBRANCH  22  24
ENDBRANCH  21  22
ENDBRANCH  15  21
ENDBRANCH  14  15
ENDBRANCH   3  14
TORSDOF 10
ENDMDL
MODEL 6
REMARK VINA RESULT:      -6.5      7.209      9.611
REMARK  Name = Gabapentin enacarbil
REMARK  13 active torsions:
REMARK  status: ('A' for Active; 'I' for Inactive)
REMARK    1  A    between atoms: C_1  and  C_2
REMARK    2  A    between atoms: C_2  and  C_3
REMARK    3  A    between atoms: C_2  and  C_4
REMARK    4  A    between atoms: C_4  and  O_6
REMARK    5  A    between atoms: O_6  and  C_7
REMARK    6  A    between atoms: C_7  and  C_8
REMARK    7  A    between atoms: C_7  and  O_9
REMARK    8  A    between atoms: O_9  and  C_10
REMARK    9  A    between atoms: N_12  and  C_13
REMARK   10  A    between atoms: C_13  and  C_14
REMARK   11  A    between atoms: C_14  and  C_15
REMARK   12  A    between atoms: C_15  and  C_16
REMARK   13  A    between atoms: C_16  and  O_17
REMARK                            x       y       z     vdW  Elec       q    Type
REMARK                         _______ _______ _______ _____ _____    ______ ____
ROOT
ATOM      1  C   UNL     1      -5.680   1.216 126.893  0.00  0.00    +0.000 C 
ATOM      2  O   UNL     1      -5.361   0.574 127.877  0.00  0.00    +0.000 OA
ATOM      3  N   UNL     1      -6.030   0.625 125.699  0.00  0.00    +0.000 N 
ATOM      4  H   UNL     1      -6.195   1.266 124.940  0.00  0.00    +0.000 HD
ENDROOT
BRANCH   1   5
ATOM      5  O   UNL     1      -5.746   2.590 126.831  0.00  0.00    +0.000 OA
BRANCH   5   6
ATOM      6  C   UNL     1      -5.154   3.221 125.637  0.00  0.00    +0.000 C 
ATOM      7  C   UNL     1      -3.791   3.824 126.001  0.00  0.00    +0.000 C 
BRANCH   6   8
ATOM      8  O   UNL     1      -6.019   4.295 125.114  0.00  0.00    +0.000 OA
BRANCH   8   9
ATOM      9  C   UNL     1      -7.212   3.894 124.561  0.00  0.00    +0.000 C 
ATOM     10  O   UNL     1      -8.311   4.200 125.008  0.00  0.00    +0.000 OA
BRANCH   9  12
ATOM     11  C   UNL     1      -8.441   2.642 122.753  0.00  0.00    +0.000 C 
ATOM     12  C   UNL     1      -7.056   2.997 123.328  0.00  0.00    +0.000 C 
ATOM     13  C   UNL     1      -6.249   3.700 122.245  0.00  0.00    +0.000 C 
ENDBRANCH   9  12
ENDBRANCH   8   9
ENDBRANCH   6   8
ENDBRANCH   5   6
ENDBRANCH   1   5
BRANCH   3  14
ATOM     14  C   UNL     1      -6.161  -0.840 125.527  0.00  0.00    +0.000 C 
BRANCH  14  15
ATOM     15  C   UNL     1      -7.601  -1.359 125.072  0.00  0.00    +0.000 C 
ATOM     16  C   UNL     1      -7.776  -0.959 123.584  0.00  0.00    +0.000 C 
ATOM     17  C   UNL     1      -8.955  -1.595 122.882  0.00  0.00    +0.000 C 
ATOM     18  C   UNL     1      -9.041  -3.130 123.188  0.00  0.00    +0.000 C 
ATOM     19  C   UNL     1      -8.750  -3.627 124.645  0.00  0.00    +0.000 C 
ATOM     20  C   UNL     1      -7.565  -2.900 125.251  0.00  0.00    +0.000 C 
BRANCH  15  21
ATOM     21  C   UNL     1      -8.718  -0.680 126.004  0.00  0.00    +0.000 C 
BRANCH  21  22
ATOM     22  C   UNL     1      -9.505   0.655 125.801  0.00  0.00    +0.000 C 
ATOM     23  O   UNL     1     -10.483   0.760 125.099  0.00  0.00    +0.000 OA
BRANCH  22  24
ATOM     24  O   UNL     1      -9.075   1.743 126.439  0.00  0.00    +0.000 OA
ATOM     25  H   UNL     1      -8.728   1.426 127.263  0.00  0.00    +0.000 HD
ENDBRANCH  22  24
ENDBRANCH  21  22
ENDBRANCH  15  21
ENDBRANCH  14  15
ENDBRANCH   3  14
TORSDOF 10
ENDMDL
MODEL 7
REMARK VINA RESULT:      -6.4      4.091      4.956
REMARK  Name = Gabapentin enacarbil
REMARK  13 active torsions:
REMARK  status: ('A' for Active; 'I' for Inactive)
REMARK    1  A    between atoms: C_1  and  C_2
REMARK    2  A    between atoms: C_2  and  C_3
REMARK    3  A    between atoms: C_2  and  C_4
REMARK    4  A    between atoms: C_4  and  O_6
REMARK    5  A    between atoms: O_6  and  C_7
REMARK    6  A    between atoms: C_7  and  C_8
REMARK    7  A    between atoms: C_7  and  O_9
REMARK    8  A    between atoms: O_9  and  C_10
REMARK    9  A    between atoms: N_12  and  C_13
REMARK   10  A    between atoms: C_13  and  C_14
REMARK   11  A    between atoms: C_14  and  C_15
REMARK   12  A    between atoms: C_15  and  C_16
REMARK   13  A    between atoms: C_16  and  O_17
REMARK                            x       y       z     vdW  Elec       q    Type
REMARK                         _______ _______ _______ _____ _____    ______ ____
ROOT
ATOM      1  C   UNL     1      -6.692   6.874 131.220  0.00  0.00    +0.000 C 
ATOM      2  O   UNL     1      -6.356   6.107 132.103  0.00  0.00    +0.000 OA
ATOM      3  N   UNL     1      -8.003   7.031 130.828  0.00  0.00    +0.000 N 
ATOM      4  H   UNL     1      -8.140   7.636 130.034  0.00  0.00    +0.000 HD
ENDROOT
BRANCH   1   5
ATOM      5  O   UNL     1      -5.837   7.683 130.505  0.00  0.00    +0.000 OA
BRANCH   5   6
ATOM      6  C   UNL     1      -4.492   7.141 130.237  0.00  0.00    +0.000 C 
ATOM      7  C   UNL     1      -3.448   7.963 131.005  0.00  0.00    +0.000 C 
BRANCH   6   8
ATOM      8  O   UNL     1      -4.169   7.196 128.799  0.00  0.00    +0.000 OA
BRANCH   8   9
ATOM      9  C   UNL     1      -3.160   6.366 128.374  0.00  0.00    +0.000 C 
ATOM     10  O   UNL     1      -1.971   6.563 128.601  0.00  0.00    +0.000 OA
BRANCH   9  12
ATOM     11  C   UNL     1      -2.593   4.035 127.604  0.00  0.00    +0.000 C 
ATOM     12  C   UNL     1      -3.644   5.161 127.560  0.00  0.00    +0.000 C 
ATOM     13  C   UNL     1      -4.953   4.622 128.118  0.00  0.00    +0.000 C 
ENDBRANCH   9  12
ENDBRANCH   8   9
ENDBRANCH   6   8
ENDBRANCH   5   6
ENDBRANCH   1   5
BRANCH   3  14
ATOM     14  C   UNL     1      -9.139   6.372 131.514  0.00  0.00    +0.000 C 
BRANCH  14  15
ATOM     15  C   UNL     1     -10.552   6.483 130.778  0.00  0.00    +0.000 C 
ATOM     16  C   UNL     1     -11.592   6.881 131.857  0.00  0.00    +0.000 C 
ATOM     17  C   UNL     1     -12.941   7.305 131.323  0.00  0.00    +0.000 C 
ATOM     18  C   UNL     1     -12.793   8.301 130.121  0.00  0.00    +0.000 C 
ATOM     19  C   UNL     1     -11.675   8.035 129.055  0.00  0.00    +0.000 C 
ATOM     20  C   UNL     1     -10.380   7.594 129.709  0.00  0.00    +0.000 C 
BRANCH  15  21
ATOM     21  C   UNL     1     -10.903   5.065 130.111  0.00  0.00    +0.000 C 
BRANCH  21  22
ATOM     22  C   UNL     1     -10.290   3.655 130.390  0.00  0.00    +0.000 C 
ATOM     23  O   UNL     1      -9.672   3.016 129.573  0.00  0.00    +0.000 OA
BRANCH  22  24
ATOM     24  O   UNL     1     -10.457   3.125 131.601  0.00  0.00    +0.000 OA
ATOM     25  H   UNL     1     -10.948   3.772 132.089  0.00  0.00    +0.000 HD
ENDBRANCH  22  24
ENDBRANCH  21  22
ENDBRANCH  15  21
ENDBRANCH  14  15
ENDBRANCH   3  14
TORSDOF 10
ENDMDL
MODEL 8
REMARK VINA RESULT:      -6.4      6.881     10.377
REMARK  Name = Gabapentin enacarbil
REMARK  13 active torsions:
REMARK  status: ('A' for Active; 'I' for Inactive)
REMARK    1  A    between atoms: C_1  and  C_2
REMARK    2  A    between atoms: C_2  and  C_3
REMARK    3  A    between atoms: C_2  and  C_4
REMARK    4  A    between atoms: C_4  and  O_6
REMARK    5  A    between atoms: O_6  and  C_7
REMARK    6  A    between atoms: C_7  and  C_8
REMARK    7  A    between atoms: C_7  and  O_9
REMARK    8  A    between atoms: O_9  and  C_10
REMARK    9  A    between atoms: N_12  and  C_13
REMARK   10  A    between atoms: C_13  and  C_14
REMARK   11  A    between atoms: C_14  and  C_15
REMARK   12  A    between atoms: C_15  and  C_16
REMARK   13  A    between atoms: C_16  and  O_17
REMARK                            x       y       z     vdW  Elec       q    Type
REMARK                         _______ _______ _______ _____ _____    ______ ____
ROOT
ATOM      1  C   UNL     1      -5.148   2.475 126.371  0.00  0.00    +0.000 C 
ATOM      2  O   UNL     1      -3.939   2.346 126.332  0.00  0.00    +0.000 OA
ATOM      3  N   UNL     1      -6.014   1.405 126.302  0.00  0.00    +0.000 N 
ATOM      4  H   UNL     1      -6.990   1.650 126.264  0.00  0.00    +0.000 HD
ENDROOT
BRANCH   1   5
ATOM      5  O   UNL     1      -5.814   3.674 126.494  0.00  0.00    +0.000 OA
BRANCH   5   6
ATOM      6  C   UNL     1      -6.436   4.207 125.268  0.00  0.00    +0.000 C 
ATOM      7  C   UNL     1      -7.939   4.407 125.504  0.00  0.00    +0.000 C 
BRANCH   6   8
ATOM      8  O   UNL     1      -6.257   3.285 124.132  0.00  0.00    +0.000 OA
BRANCH   8   9
ATOM      9  C   UNL     1      -5.991   3.870 122.916  0.00  0.00    +0.000 C 
ATOM     10  O   UNL     1      -5.269   4.850 122.771  0.00  0.00    +0.000 OA
BRANCH   9  12
ATOM     11  C   UNL     1      -8.222   3.171 121.978  0.00  0.00    +0.000 C 
ATOM     12  C   UNL     1      -6.700   3.200 121.734  0.00  0.00    +0.000 C 
ATOM     13  C   UNL     1      -6.433   3.958 120.442  0.00  0.00    +0.000 C 
ENDBRANCH   9  12
ENDBRANCH   8   9
ENDBRANCH   6   8
ENDBRANCH   5   6
ENDBRANCH   1   5
BRANCH   3  14
ATOM     14  C   UNL     1      -5.561  -0.005 126.288  0.00  0.00    +0.000 C 
BRANCH  14  15
ATOM     15  C   UNL     1      -6.308  -0.964 125.252  0.00  0.00    +0.000 C 
ATOM     16  C   UNL     1      -6.870  -0.059 124.125  0.00  0.00    +0.000 C 
ATOM     17  C   UNL     1      -7.375  -0.794 122.904  0.00  0.00    +0.000 C 
ATOM     18  C   UNL     1      -6.365  -1.903 122.446  0.00  0.00    +0.000 C 
ATOM     19  C   UNL     1      -5.656  -2.775 123.538  0.00  0.00    +0.000 C 
ATOM     20  C   UNL     1      -5.219  -1.932 124.721  0.00  0.00    +0.000 C 
BRANCH  15  21
ATOM     21  C   UNL     1      -7.478  -1.749 126.020  0.00  0.00    +0.000 C 
BRANCH  21  22
ATOM     22  C   UNL     1      -8.943  -2.046 125.565  0.00  0.00    +0.000 C 
ATOM     23  O   UNL     1      -9.302  -3.099 125.094  0.00  0.00    +0.000 OA
BRANCH  22  24
ATOM     24  O   UNL     1      -9.853  -1.082 125.702  0.00  0.00    +0.000 OA
ATOM     25  H   UNL     1     -10.630  -1.519 126.026  0.00  0.00    +0.000 HD
ENDBRANCH  22  24
ENDBRANCH  21  22
ENDBRANCH  15  21
ENDBRANCH  14  15
ENDBRANCH   3  14
TORSDOF 10
ENDMDL
MODEL 9
REMARK VINA RESULT:      -6.4      3.449      7.782
REMARK  Name = Gabapentin enacarbil
REMARK  13 active torsions:
REMARK  status: ('A' for Active; 'I' for Inactive)
REMARK    1  A    between atoms: C_1  and  C_2
REMARK    2  A    between atoms: C_2  and  C_3
REMARK    3  A    between atoms: C_2  and  C_4
REMARK    4  A    between atoms: C_4  and  O_6
REMARK    5  A    between atoms: O_6  and  C_7
REMARK    6  A    between atoms: C_7  and  C_8
REMARK    7  A    between atoms: C_7  and  O_9
REMARK    8  A    between atoms: O_9  and  C_10
REMARK    9  A    between atoms: N_12  and  C_13
REMARK   10  A    between atoms: C_13  and  C_14
REMARK   11  A    between atoms: C_14  and  C_15
REMARK   12  A    between atoms: C_15  and  C_16
REMARK   13  A    between atoms: C_16  and  O_17
REMARK                            x       y       z     vdW  Elec       q    Type
REMARK                         _______ _______ _______ _____ _____    ______ ____
ROOT
ATOM      1  C   UNL     1      -8.201   4.424 128.960  0.00  0.00    +0.000 C 
ATOM      2  O   UNL     1      -7.243   5.113 129.257  0.00  0.00    +0.000 OA
ATOM      3  N   UNL     1      -8.093   3.290 128.185  0.00  0.00    +0.000 N 
ATOM      4  H   UNL     1      -8.969   2.855 127.944  0.00  0.00    +0.000 HD
ENDROOT
BRANCH   1   5
ATOM      5  O   UNL     1      -9.500   4.665 129.348  0.00  0.00    +0.000 OA
BRANCH   5   6
ATOM      6  C   UNL     1      -9.892   6.079 129.490  0.00  0.00    +0.000 C 
ATOM      7  C   UNL     1     -10.462   6.313 130.895  0.00  0.00    +0.000 C 
BRANCH   6   8
ATOM      8  O   UNL     1     -10.917   6.453 128.498  0.00  0.00    +0.000 OA
BRANCH   8   9
ATOM      9  C   UNL     1     -11.056   7.798 128.250  0.00  0.00    +0.000 C 
ATOM     10  O   UNL     1     -10.113   8.567 128.098  0.00  0.00    +0.000 OA
BRANCH   9  12
ATOM     11  C   UNL     1     -13.466   7.066 128.239  0.00  0.00    +0.000 C 
ATOM     12  C   UNL     1     -12.511   8.275 128.199  0.00  0.00    +0.000 C 
ATOM     13  C   UNL     1     -12.826   9.178 129.384  0.00  0.00    +0.000 C 
ENDBRANCH   9  12
ENDBRANCH   8   9
ENDBRANCH   6   8
ENDBRANCH   5   6
ENDBRANCH   1   5
BRANCH   3  14
ATOM     14  C   UNL     1      -6.795   2.737 127.735  0.00  0.00    +0.000 C 
BRANCH  14  15
ATOM     15  C   UNL     1      -6.879   1.517 126.707  0.00  0.00    +0.000 C 
ATOM     16  C   UNL     1      -5.446   0.941 126.572  0.00  0.00    +0.000 C 
ATOM     17  C   UNL     1      -5.353  -0.389 125.859  0.00  0.00    +0.000 C 
ATOM     18  C   UNL     1      -6.443  -1.392 126.376  0.00  0.00    +0.000 C 
ATOM     19  C   UNL     1      -7.887  -0.855 126.660  0.00  0.00    +0.000 C 
ATOM     20  C   UNL     1      -7.850   0.493 127.354  0.00  0.00    +0.000 C 
BRANCH  15  21
ATOM     21  C   UNL     1      -7.436   2.058 125.302  0.00  0.00    +0.000 C 
BRANCH  21  22
ATOM     22  C   UNL     1      -8.693   2.936 125.002  0.00  0.00    +0.000 C 
ATOM     23  O   UNL     1      -8.739   4.131 125.180  0.00  0.00    +0.000 OA
BRANCH  22  24
ATOM     24  O   UNL     1      -9.781   2.335 124.522  0.00  0.00    +0.000 OA
ATOM     25  H   UNL     1     -10.507   2.884 124.791  0.00  0.00    +0.000 HD
ENDBRANCH  22  24
ENDBRANCH  21  22
ENDBRANCH  15  21
ENDBRANCH  14  15
ENDBRANCH   3  14
TORSDOF 10
ENDMDL
