MODEL 1
REMARK VINA RESULT:      -4.5      0.000      0.000
REMARK  Name = Galactose
REMARK  10 active torsions:
REMARK  status: ('A' for Active; 'I' for Inactive)
REMARK    1  A    between atoms: C_2  and  C_4
REMARK    2  A    between atoms: C_4  and  O_5
REMARK    3  A    between atoms: C_4  and  C_6
REMARK    4  A    between atoms: C_6  and  O_7
REMARK    5  A    between atoms: C_6  and  C_8
REMARK    6  A    between atoms: C_8  and  O_9
REMARK    7  A    between atoms: C_8  and  C_10
REMARK    8  A    between atoms: C_10  and  O_11
REMARK    9  A    between atoms: C_10  and  C_12
REMARK   10  A    between atoms: C_12  and  O_13
REMARK                            x       y       z     vdW  Elec       q    Type
REMARK                         _______ _______ _______ _____ _____    ______ ____
ROOT
ATOM      1  C   UNL     1     -12.051   7.183 129.172  0.00  0.00    +0.000 C 
ENDROOT
BRANCH   1   2
ATOM      2  O   UNL     1     -12.196   5.769 129.122  0.00  0.00    +0.000 OA
ATOM      3  H   UNL     1     -13.059   5.495 129.469  0.00  0.00    +0.000 HD
ENDBRANCH   1   2
BRANCH   1   4
ATOM      4  C   UNL     1     -10.600   7.511 129.588  0.00  0.00    +0.000 C 
BRANCH   4   5
ATOM      5  O   UNL     1      -9.994   8.356 128.597  0.00  0.00    +0.000 OA
ATOM      6  H   UNL     1     -10.114   9.285 128.881  0.00  0.00    +0.000 HD
ENDBRANCH   4   5
BRANCH   4   7
ATOM      7  C   UNL     1      -9.730   6.256 129.830  0.00  0.00    +0.000 C 
BRANCH   7   8
ATOM      8  C   UNL     1      -8.518   6.558 130.696  0.00  0.00    +0.000 C 
ATOM      9  O   UNL     1      -7.702   7.449 130.448  0.00  0.00    +0.000 OA
ENDBRANCH   7   8
BRANCH   7  10
ATOM     10  O   UNL     1      -9.268   5.722 128.591  0.00  0.00    +0.000 OA
ATOM     11  H   UNL     1      -9.519   4.779 128.593  0.00  0.00    +0.000 HD
ENDBRANCH   7  10
ENDBRANCH   4   7
ENDBRANCH   1   4
BRANCH   1  12
ATOM     12  C   UNL     1     -12.450   7.939 127.876  0.00  0.00    +0.000 C 
BRANCH  12  13
ATOM     13  O   UNL     1     -13.704   8.602 128.054  0.00  0.00    +0.000 OA
ATOM     14  H   UNL     1     -14.169   8.174 128.800  0.00  0.00    +0.000 HD
ENDBRANCH  12  13
BRANCH  12  15
ATOM     15  C   UNL     1     -12.484   7.055 126.635  0.00  0.00    +0.000 C 
BRANCH  15  16
ATOM     16  O   UNL     1     -11.190   6.534 126.357  0.00  0.00    +0.000 OA
ATOM     17  H   UNL     1     -10.969   5.880 127.042  0.00  0.00    +0.000 HD
ENDBRANCH  15  16
ENDBRANCH  12  15
ENDBRANCH   1  12
TORSDOF 10
ENDMDL
MODEL 2
REMARK VINA RESULT:      -4.4      1.560      2.374
REMARK  Name = Galactose
REMARK  10 active torsions:
REMARK  status: ('A' for Active; 'I' for Inactive)
REMARK    1  A    between atoms: C_2  and  C_4
REMARK    2  A    between atoms: C_4  and  O_5
REMARK    3  A    between atoms: C_4  and  C_6
REMARK    4  A    between atoms: C_6  and  O_7
REMARK    5  A    between atoms: C_6  and  C_8
REMARK    6  A    between atoms: C_8  and  O_9
REMARK    7  A    between atoms: C_8  and  C_10
REMARK    8  A    between atoms: C_10  and  O_11
REMARK    9  A    between atoms: C_10  and  C_12
REMARK   10  A    between atoms: C_12  and  O_13
REMARK                            x       y       z     vdW  Elec       q    Type
REMARK                         _______ _______ _______ _____ _____    ______ ____
ROOT
ATOM      1  C   UNL     1     -11.498   7.020 129.225  0.00  0.00    +0.000 C 
ENDROOT
BRANCH   1   2
ATOM      2  O   UNL     1     -12.305   5.905 128.868  0.00  0.00    +0.000 OA
ATOM      3  H   UNL     1     -12.403   5.292 129.614  0.00  0.00    +0.000 HD
ENDBRANCH   1   2
BRANCH   1   4
ATOM      4  C   UNL     1     -10.166   6.494 129.802  0.00  0.00    +0.000 C 
BRANCH   4   5
ATOM      5  O   UNL     1      -9.470   5.739 128.797  0.00  0.00    +0.000 OA
ATOM      6  H   UNL     1      -8.559   6.093 128.733  0.00  0.00    +0.000 HD
ENDBRANCH   4   5
BRANCH   4   7
ATOM      7  C   UNL     1     -10.340   5.649 131.085  0.00  0.00    +0.000 C 
BRANCH   7   8
ATOM      8  C   UNL     1     -10.233   4.158 130.809  0.00  0.00    +0.000 C 
ATOM      9  O   UNL     1     -11.002   3.540 130.069  0.00  0.00    +0.000 OA
ENDBRANCH   7   8
BRANCH   7  10
ATOM     10  O   UNL     1     -11.613   5.899 131.679  0.00  0.00    +0.000 OA
ATOM     11  H   UNL     1     -12.152   6.332 130.990  0.00  0.00    +0.000 HD
ENDBRANCH   7  10
ENDBRANCH   4   7
ENDBRANCH   1   4
BRANCH   1  12
ATOM     12  C   UNL     1     -11.253   8.054 128.093  0.00  0.00    +0.000 C 
BRANCH  12  13
ATOM     13  O   UNL     1     -11.927   9.281 128.386  0.00  0.00    +0.000 OA
ATOM     14  H   UNL     1     -12.542   9.469 127.649  0.00  0.00    +0.000 HD
ENDBRANCH  12  13
BRANCH  12  15
ATOM     15  C   UNL     1     -11.639   7.550 126.707  0.00  0.00    +0.000 C 
BRANCH  15  16
ATOM     16  O   UNL     1     -10.794   6.475 126.313  0.00  0.00    +0.000 OA
ATOM     17  H   UNL     1     -10.100   6.368 126.986  0.00  0.00    +0.000 HD
ENDBRANCH  15  16
ENDBRANCH  12  15
ENDBRANCH   1  12
TORSDOF 10
ENDMDL
MODEL 3
REMARK VINA RESULT:      -4.4      1.659      4.352
REMARK  Name = Galactose
REMARK  10 active torsions:
REMARK  status: ('A' for Active; 'I' for Inactive)
REMARK    1  A    between atoms: C_2  and  C_4
REMARK    2  A    between atoms: C_4  and  O_5
REMARK    3  A    between atoms: C_4  and  C_6
REMARK    4  A    between atoms: C_6  and  O_7
REMARK    5  A    between atoms: C_6  and  C_8
REMARK    6  A    between atoms: C_8  and  O_9
REMARK    7  A    between atoms: C_8  and  C_10
REMARK    8  A    between atoms: C_10  and  O_11
REMARK    9  A    between atoms: C_10  and  C_12
REMARK   10  A    between atoms: C_12  and  O_13
REMARK                            x       y       z     vdW  Elec       q    Type
REMARK                         _______ _______ _______ _____ _____    ______ ____
ROOT
ATOM      1  C   UNL     1     -10.329   6.510 129.902  0.00  0.00    +0.000 C 
ENDROOT
BRANCH   1   2
ATOM      2  O   UNL     1      -9.558   5.859 128.900  0.00  0.00    +0.000 OA
ATOM      3  H   UNL     1      -8.822   5.364 129.293  0.00  0.00    +0.000 HD
ENDBRANCH   1   2
BRANCH   1   4
ATOM      4  C   UNL     1     -11.607   7.076 129.244  0.00  0.00    +0.000 C 
BRANCH   4   5
ATOM      5  O   UNL     1     -12.400   5.997 128.724  0.00  0.00    +0.000 OA
ATOM      6  H   UNL     1     -12.313   6.003 127.749  0.00  0.00    +0.000 HD
ENDBRANCH   4   5
BRANCH   4   7
ATOM      7  C   UNL     1     -11.321   8.116 128.137  0.00  0.00    +0.000 C 
BRANCH   7   8
ATOM      8  C   UNL     1     -11.440   7.519 126.744  0.00  0.00    +0.000 C 
ATOM      9  O   UNL     1     -10.667   6.671 126.293  0.00  0.00    +0.000 OA
ENDBRANCH   7   8
BRANCH   7  10
ATOM     10  O   UNL     1     -10.005   8.649 128.279  0.00  0.00    +0.000 OA
ATOM     11  H   UNL     1      -9.441   8.141 127.668  0.00  0.00    +0.000 HD
ENDBRANCH   7  10
ENDBRANCH   4   7
ENDBRANCH   1   4
BRANCH   1  12
ATOM     12  C   UNL     1     -10.671   5.645 131.145  0.00  0.00    +0.000 C 
BRANCH  12  13
ATOM     13  O   UNL     1     -11.932   6.037 131.692  0.00  0.00    +0.000 OA
ATOM     14  H   UNL     1     -11.800   6.868 132.191  0.00  0.00    +0.000 HD
ENDBRANCH  12  13
BRANCH  12  15
ATOM     15  C   UNL     1      -9.592   5.664 132.222  0.00  0.00    +0.000 C 
BRANCH  15  16
ATOM     16  O   UNL     1     -10.016   6.435 133.340  0.00  0.00    +0.000 OA
ATOM     17  H   UNL     1     -10.390   7.271 133.013  0.00  0.00    +0.000 HD
ENDBRANCH  15  16
ENDBRANCH  12  15
ENDBRANCH   1  12
TORSDOF 10
ENDMDL
MODEL 4
REMARK VINA RESULT:      -4.3      2.060      3.213
REMARK  Name = Galactose
REMARK  10 active torsions:
REMARK  status: ('A' for Active; 'I' for Inactive)
REMARK    1  A    between atoms: C_2  and  C_4
REMARK    2  A    between atoms: C_4  and  O_5
REMARK    3  A    between atoms: C_4  and  C_6
REMARK    4  A    between atoms: C_6  and  O_7
REMARK    5  A    between atoms: C_6  and  C_8
REMARK    6  A    between atoms: C_8  and  O_9
REMARK    7  A    between atoms: C_8  and  C_10
REMARK    8  A    between atoms: C_10  and  O_11
REMARK    9  A    between atoms: C_10  and  C_12
REMARK   10  A    between atoms: C_12  and  O_13
REMARK                            x       y       z     vdW  Elec       q    Type
REMARK                         _______ _______ _______ _____ _____    ______ ____
ROOT
ATOM      1  C   UNL     1     -12.607   7.463 129.610  0.00  0.00    +0.000 C 
ENDROOT
BRANCH   1   2
ATOM      2  O   UNL     1     -13.244   6.399 128.913  0.00  0.00    +0.000 OA
ATOM      3  H   UNL     1     -12.696   6.087 128.176  0.00  0.00    +0.000 HD
ENDBRANCH   1   2
BRANCH   1   4
ATOM      4  C   UNL     1     -11.137   7.065 129.869  0.00  0.00    +0.000 C 
BRANCH   4   5
ATOM      5  O   UNL     1     -10.587   6.458 128.690  0.00  0.00    +0.000 OA
ATOM      6  H   UNL     1     -10.567   5.489 128.832  0.00  0.00    +0.000 HD
ENDBRANCH   4   5
BRANCH   4   7
ATOM      7  C   UNL     1     -10.957   6.133 131.089  0.00  0.00    +0.000 C 
BRANCH   7   8
ATOM      8  C   UNL     1     -10.668   4.699 130.677  0.00  0.00    +0.000 C 
ATOM      9  O   UNL     1     -11.457   3.995 130.042  0.00  0.00    +0.000 OA
ENDBRANCH   7   8
BRANCH   7  10
ATOM     10  O   UNL     1     -12.133   6.133 131.897  0.00  0.00    +0.000 OA
ATOM     11  H   UNL     1     -12.508   7.032 131.827  0.00  0.00    +0.000 HD
ENDBRANCH   7  10
ENDBRANCH   4   7
ENDBRANCH   1   4
BRANCH   1  12
ATOM     12  C   UNL     1     -12.703   8.855 128.930  0.00  0.00    +0.000 C 
BRANCH  12  13
ATOM     13  O   UNL     1     -11.485   9.159 128.244  0.00  0.00    +0.000 OA
ATOM     14  H   UNL     1     -11.614   9.999 127.760  0.00  0.00    +0.000 HD
ENDBRANCH  12  13
BRANCH  12  15
ATOM     15  C   UNL     1     -13.073   9.982 129.887  0.00  0.00    +0.000 C 
BRANCH  15  16
ATOM     16  O   UNL     1     -13.074  11.233 129.209  0.00  0.00    +0.000 OA
ATOM     17  H   UNL     1     -13.160  11.065 128.255  0.00  0.00    +0.000 HD
ENDBRANCH  15  16
ENDBRANCH  12  15
ENDBRANCH   1  12
TORSDOF 10
ENDMDL
MODEL 5
REMARK VINA RESULT:      -4.3      2.012      2.664
REMARK  Name = Galactose
REMARK  10 active torsions:
REMARK  status: ('A' for Active; 'I' for Inactive)
REMARK    1  A    between atoms: C_2  and  C_4
REMARK    2  A    between atoms: C_4  and  O_5
REMARK    3  A    between atoms: C_4  and  C_6
REMARK    4  A    between atoms: C_6  and  O_7
REMARK    5  A    between atoms: C_6  and  C_8
REMARK    6  A    between atoms: C_8  and  O_9
REMARK    7  A    between atoms: C_8  and  C_10
REMARK    8  A    between atoms: C_10  and  O_11
REMARK    9  A    between atoms: C_10  and  C_12
REMARK   10  A    between atoms: C_12  and  O_13
REMARK                            x       y       z     vdW  Elec       q    Type
REMARK                         _______ _______ _______ _____ _____    ______ ____
ROOT
ATOM      1  C   UNL     1     -12.698   7.234 129.402  0.00  0.00    +0.000 C 
ENDROOT
BRANCH   1   2
ATOM      2  O   UNL     1     -12.578   6.134 128.507  0.00  0.00    +0.000 OA
ATOM      3  H   UNL     1     -12.297   5.332 128.976  0.00  0.00    +0.000 HD
ENDBRANCH   1   2
BRANCH   1   4
ATOM      4  C   UNL     1     -12.509   6.713 130.843  0.00  0.00    +0.000 C 
BRANCH   4   5
ATOM      5  O   UNL     1     -13.123   7.624 131.769  0.00  0.00    +0.000 OA
ATOM      6  H   UNL     1     -13.819   7.136 132.255  0.00  0.00    +0.000 HD
ENDBRANCH   4   5
BRANCH   4   7
ATOM      7  C   UNL     1     -11.030   6.475 131.224  0.00  0.00    +0.000 C 
BRANCH   7   8
ATOM      8  C   UNL     1     -10.528   5.119 130.755  0.00  0.00    +0.000 C 
ATOM      9  O   UNL     1     -10.077   4.907 129.627  0.00  0.00    +0.000 OA
ENDBRANCH   7   8
BRANCH   7  10
ATOM     10  O   UNL     1     -10.860   6.545 132.639  0.00  0.00    +0.000 OA
ATOM     11  H   UNL     1      -9.898   6.513 132.797  0.00  0.00    +0.000 HD
ENDBRANCH   7  10
ENDBRANCH   4   7
ENDBRANCH   1   4
BRANCH   1  12
ATOM     12  C   UNL     1     -11.760   8.435 129.108  0.00  0.00    +0.000 C 
BRANCH  12  13
ATOM     13  O   UNL     1     -12.496   9.660 129.140  0.00  0.00    +0.000 OA
ATOM     14  H   UNL     1     -12.757   9.879 128.224  0.00  0.00    +0.000 HD
ENDBRANCH  12  13
BRANCH  12  15
ATOM     15  C   UNL     1     -10.990   8.308 127.799  0.00  0.00    +0.000 C 
BRANCH  15  16
ATOM     16  O   UNL     1      -9.987   7.304 127.903  0.00  0.00    +0.000 OA
ATOM     17  H   UNL     1      -9.869   6.897 127.028  0.00  0.00    +0.000 HD
ENDBRANCH  15  16
ENDBRANCH  12  15
ENDBRANCH   1  12
TORSDOF 10
ENDMDL
MODEL 6
REMARK VINA RESULT:      -4.1      1.907      3.689
REMARK  Name = Galactose
REMARK  10 active torsions:
REMARK  status: ('A' for Active; 'I' for Inactive)
REMARK    1  A    between atoms: C_2  and  C_4
REMARK    2  A    between atoms: C_4  and  O_5
REMARK    3  A    between atoms: C_4  and  C_6
REMARK    4  A    between atoms: C_6  and  O_7
REMARK    5  A    between atoms: C_6  and  C_8
REMARK    6  A    between atoms: C_8  and  O_9
REMARK    7  A    between atoms: C_8  and  C_10
REMARK    8  A    between atoms: C_10  and  O_11
REMARK    9  A    between atoms: C_10  and  C_12
REMARK   10  A    between atoms: C_12  and  O_13
REMARK                            x       y       z     vdW  Elec       q    Type
REMARK                         _______ _______ _______ _____ _____    ______ ____
ROOT
ATOM      1  C   UNL     1     -11.205   5.940 129.923  0.00  0.00    +0.000 C 
ENDROOT
BRANCH   1   2
ATOM      2  O   UNL     1     -12.400   5.654 129.206  0.00  0.00    +0.000 OA
ATOM      3  H   UNL     1     -12.347   4.789 128.770  0.00  0.00    +0.000 HD
ENDBRANCH   1   2
BRANCH   1   4
ATOM      4  C   UNL     1     -10.242   6.699 128.984  0.00  0.00    +0.000 C 
BRANCH   4   5
ATOM      5  O   UNL     1      -9.386   7.553 129.760  0.00  0.00    +0.000 OA
ATOM      6  H   UNL     1      -9.625   7.441 130.703  0.00  0.00    +0.000 HD
ENDBRANCH   4   5
BRANCH   4   7
ATOM      7  C   UNL     1     -10.966   7.514 127.887  0.00  0.00    +0.000 C 
BRANCH   7   8
ATOM      8  C   UNL     1     -10.460   7.175 126.494  0.00  0.00    +0.000 C 
ATOM      9  O   UNL     1      -9.639   6.285 126.259  0.00  0.00    +0.000 OA
ENDBRANCH   7   8
BRANCH   7  10
ATOM     10  O   UNL     1     -10.778   8.912 128.099  0.00  0.00    +0.000 OA
ATOM     11  H   UNL     1      -9.815   9.048 128.165  0.00  0.00    +0.000 HD
ENDBRANCH   7  10
ENDBRANCH   4   7
ENDBRANCH   1   4
BRANCH   1  12
ATOM     12  C   UNL     1     -11.399   6.696 131.264  0.00  0.00    +0.000 C 
BRANCH  12  13
ATOM     13  O   UNL     1     -11.206   5.809 132.368  0.00  0.00    +0.000 OA
ATOM     14  H   UNL     1     -10.289   5.472 132.328  0.00  0.00    +0.000 HD
ENDBRANCH  12  13
BRANCH  12  15
ATOM     15  C   UNL     1     -12.741   7.409 131.379  0.00  0.00    +0.000 C 
BRANCH  15  16
ATOM     16  O   UNL     1     -12.812   8.494 130.460  0.00  0.00    +0.000 OA
ATOM     17  H   UNL     1     -13.723   8.552 130.125  0.00  0.00    +0.000 HD
ENDBRANCH  15  16
ENDBRANCH  12  15
ENDBRANCH   1  12
TORSDOF 10
ENDMDL
MODEL 7
REMARK VINA RESULT:      -4.0      1.851      2.861
REMARK  Name = Galactose
REMARK  10 active torsions:
REMARK  status: ('A' for Active; 'I' for Inactive)
REMARK    1  A    between atoms: C_2  and  C_4
REMARK    2  A    between atoms: C_4  and  O_5
REMARK    3  A    between atoms: C_4  and  C_6
REMARK    4  A    between atoms: C_6  and  O_7
REMARK    5  A    between atoms: C_6  and  C_8
REMARK    6  A    between atoms: C_8  and  O_9
REMARK    7  A    between atoms: C_8  and  C_10
REMARK    8  A    between atoms: C_10  and  O_11
REMARK    9  A    between atoms: C_10  and  C_12
REMARK   10  A    between atoms: C_12  and  O_13
REMARK                            x       y       z     vdW  Elec       q    Type
REMARK                         _______ _______ _______ _____ _____    ______ ____
ROOT
ATOM      1  C   UNL     1     -12.323   7.628 130.404  0.00  0.00    +0.000 C 
ENDROOT
BRANCH   1   2
ATOM      2  O   UNL     1     -13.124   8.044 131.503  0.00  0.00    +0.000 OA
ATOM      3  H   UNL     1     -12.618   8.025 132.331  0.00  0.00    +0.000 HD
ENDBRANCH   1   2
BRANCH   1   4
ATOM      4  C   UNL     1     -11.474   6.418 130.849  0.00  0.00    +0.000 C 
BRANCH   4   5
ATOM      5  O   UNL     1     -11.904   5.979 132.148  0.00  0.00    +0.000 OA
ATOM      6  H   UNL     1     -11.486   5.111 132.326  0.00  0.00    +0.000 HD
ENDBRANCH   4   5
BRANCH   4   7
ATOM      7  C   UNL     1      -9.953   6.699 130.852  0.00  0.00    +0.000 C 
BRANCH   7   8
ATOM      8  C   UNL     1      -9.205   5.816 129.865  0.00  0.00    +0.000 C 
ATOM      9  O   UNL     1      -9.428   5.803 128.652  0.00  0.00    +0.000 OA
ENDBRANCH   7   8
BRANCH   7  10
ATOM     10  O   UNL     1      -9.406   6.474 132.150  0.00  0.00    +0.000 OA
ATOM     11  H   UNL     1      -8.504   6.131 132.007  0.00  0.00    +0.000 HD
ENDBRANCH   7  10
ENDBRANCH   4   7
ENDBRANCH   1   4
BRANCH   1  12
ATOM     12  C   UNL     1     -13.097   7.322 129.094  0.00  0.00    +0.000 C 
BRANCH  12  13
ATOM     13  O   UNL     1     -12.395   6.349 128.317  0.00  0.00    +0.000 OA
ATOM     14  H   UNL     1     -13.010   6.005 127.638  0.00  0.00    +0.000 HD
ENDBRANCH  12  13
BRANCH  12  15
ATOM     15  C   UNL     1     -13.400   8.559 128.256  0.00  0.00    +0.000 C 
BRANCH  15  16
ATOM     16  O   UNL     1     -12.852   9.722 128.865  0.00  0.00    +0.000 OA
ATOM     17  H   UNL     1     -13.506  10.079 129.490  0.00  0.00    +0.000 HD
ENDBRANCH  15  16
ENDBRANCH  12  15
ENDBRANCH   1  12
TORSDOF 10
ENDMDL
MODEL 8
REMARK VINA RESULT:      -4.0      7.917      9.126
REMARK  Name = Galactose
REMARK  10 active torsions:
REMARK  status: ('A' for Active; 'I' for Inactive)
REMARK    1  A    between atoms: C_2  and  C_4
REMARK    2  A    between atoms: C_4  and  O_5
REMARK    3  A    between atoms: C_4  and  C_6
REMARK    4  A    between atoms: C_6  and  O_7
REMARK    5  A    between atoms: C_6  and  C_8
REMARK    6  A    between atoms: C_8  and  O_9
REMARK    7  A    between atoms: C_8  and  C_10
REMARK    8  A    between atoms: C_10  and  O_11
REMARK    9  A    between atoms: C_10  and  C_12
REMARK   10  A    between atoms: C_12  and  O_13
REMARK                            x       y       z     vdW  Elec       q    Type
REMARK                         _______ _______ _______ _____ _____    ______ ____
ROOT
ATOM      1  C   UNL     1      -9.595   0.930 124.375  0.00  0.00    +0.000 C 
ENDROOT
BRANCH   1   2
ATOM      2  O   UNL     1     -11.011   1.032 124.285  0.00  0.00    +0.000 OA
ATOM      3  H   UNL     1     -11.439   0.643 125.064  0.00  0.00    +0.000 HD
ENDBRANCH   1   2
BRANCH   1   4
ATOM      4  C   UNL     1      -9.139  -0.287 123.542  0.00  0.00    +0.000 C 
BRANCH   4   5
ATOM      5  O   UNL     1     -10.144  -0.606 122.565  0.00  0.00    +0.000 OA
ATOM      6  H   UNL     1     -11.005  -0.663 123.028  0.00  0.00    +0.000 HD
ENDBRANCH   4   5
BRANCH   4   7
ATOM      7  C   UNL     1      -8.806  -1.531 124.397  0.00  0.00    +0.000 C 
BRANCH   7   8
ATOM      8  C   UNL     1      -8.927  -2.822 123.604  0.00  0.00    +0.000 C 
ATOM      9  O   UNL     1      -9.999  -3.383 123.365  0.00  0.00    +0.000 OA
ENDBRANCH   7   8
BRANCH   7  10
ATOM     10  O   UNL     1      -9.684  -1.616 125.518  0.00  0.00    +0.000 OA
ATOM     11  H   UNL     1      -9.752  -2.565 125.737  0.00  0.00    +0.000 HD
ENDBRANCH   7  10
ENDBRANCH   4   7
ENDBRANCH   1   4
BRANCH   1  12
ATOM     12  C   UNL     1      -8.810   2.209 123.981  0.00  0.00    +0.000 C 
BRANCH  12  13
ATOM     13  O   UNL     1      -9.217   3.313 124.794  0.00  0.00    +0.000 OA
ATOM     14  H   UNL     1      -9.271   4.105 124.222  0.00  0.00    +0.000 HD
ENDBRANCH  12  13
BRANCH  12  15
ATOM     15  C   UNL     1      -8.917   2.566 122.503  0.00  0.00    +0.000 C 
BRANCH  15  16
ATOM     16  O   UNL     1      -8.333   3.839 122.252  0.00  0.00    +0.000 OA
ATOM     17  H   UNL     1      -8.210   3.935 121.292  0.00  0.00    +0.000 HD
ENDBRANCH  15  16
ENDBRANCH  12  15
ENDBRANCH   1  12
TORSDOF 10
ENDMDL
MODEL 9
REMARK VINA RESULT:      -3.9      1.600      4.333
REMARK  Name = Galactose
REMARK  10 active torsions:
REMARK  status: ('A' for Active; 'I' for Inactive)
REMARK    1  A    between atoms: C_2  and  C_4
REMARK    2  A    between atoms: C_4  and  O_5
REMARK    3  A    between atoms: C_4  and  C_6
REMARK    4  A    between atoms: C_6  and  O_7
REMARK    5  A    between atoms: C_6  and  C_8
REMARK    6  A    between atoms: C_8  and  O_9
REMARK    7  A    between atoms: C_8  and  C_10
REMARK    8  A    between atoms: C_10  and  O_11
REMARK    9  A    between atoms: C_10  and  C_12
REMARK   10  A    between atoms: C_12  and  O_13
REMARK                            x       y       z     vdW  Elec       q    Type
REMARK                         _______ _______ _______ _____ _____    ______ ____
ROOT
ATOM      1  C   UNL     1     -10.204   7.158 129.843  0.00  0.00    +0.000 C 
ENDROOT
BRANCH   1   2
ATOM      2  O   UNL     1      -9.069   7.982 129.606  0.00  0.00    +0.000 OA
ATOM      3  H   UNL     1      -8.581   7.685 128.822  0.00  0.00    +0.000 HD
ENDBRANCH   1   2
BRANCH   1   4
ATOM      4  C   UNL     1     -10.593   6.469 128.517  0.00  0.00    +0.000 C 
BRANCH   4   5
ATOM      5  O   UNL     1      -9.406   6.047 127.826  0.00  0.00    +0.000 OA
ATOM      6  H   UNL     1      -8.649   6.150 128.439  0.00  0.00    +0.000 HD
ENDBRANCH   4   5
BRANCH   4   7
ATOM      7  C   UNL     1     -11.467   7.351 127.596  0.00  0.00    +0.000 C 
BRANCH   7   8
ATOM      8  C   UNL     1     -12.821   7.661 128.215  0.00  0.00    +0.000 C 
ATOM      9  O   UNL     1     -13.493   6.839 128.842  0.00  0.00    +0.000 OA
ENDBRANCH   7   8
BRANCH   7  10
ATOM     10  O   UNL     1     -11.690   6.702 126.346  0.00  0.00    +0.000 OA
ATOM     11  H   UNL     1     -12.560   6.268 126.419  0.00  0.00    +0.000 HD
ENDBRANCH   7  10
ENDBRANCH   4   7
ENDBRANCH   1   4
BRANCH   1  12
ATOM     12  C   UNL     1     -10.048   6.124 130.990  0.00  0.00    +0.000 C 
BRANCH  12  13
ATOM     13  O   UNL     1     -10.153   4.793 130.479  0.00  0.00    +0.000 OA
ATOM     14  H   UNL     1      -9.420   4.654 129.847  0.00  0.00    +0.000 HD
ENDBRANCH  12  13
BRANCH  12  15
ATOM     15  C   UNL     1     -11.023   6.333 132.143  0.00  0.00    +0.000 C 
BRANCH  15  16
ATOM     16  O   UNL     1     -12.367   6.265 131.680  0.00  0.00    +0.000 OA
ATOM     17  H   UNL     1     -12.541   5.356 131.380  0.00  0.00    +0.000 HD
ENDBRANCH  15  16
ENDBRANCH  12  15
ENDBRANCH   1  12
TORSDOF 10
ENDMDL
