MODEL 1
REMARK VINA RESULT:      -6.8      0.000      0.000
REMARK  Name = Galantamine
REMARK  4 active torsions:
REMARK  status: ('A' for Active; 'I' for Inactive)
REMARK    1  A    between atoms: C_4  and  O_5
REMARK    2  A    between atoms: N_11  and  C_12
REMARK    3  A    between atoms: C_18  and  O_19
REMARK    4  A    between atoms: O_19  and  C_20
REMARK                            x       y       z     vdW  Elec       q    Type
REMARK                         _______ _______ _______ _____ _____    ______ ____
ROOT
ATOM      1  C   UNL     1      -4.153   7.663 130.609  0.00  0.00    +0.000 C 
ATOM      2  C   UNL     1      -3.724   7.613 129.139  0.00  0.00    +0.000 C 
ATOM      3  C   UNL     1      -4.009   6.136 128.761  0.00  0.00    +0.000 C 
ATOM      4  C   UNL     1      -2.760   5.544 129.233  0.00  0.00    +0.000 C 
ATOM      5  C   UNL     1      -2.590   6.034 130.507  0.00  0.00    +0.000 C 
ATOM      6  C   UNL     1      -3.778   6.423 131.594  0.00  0.00    +0.000 C 
ATOM      7  C   UNL     1      -3.131   5.085 132.124  0.00  0.00    +0.000 C 
ATOM      8  C   UNL     1      -3.071   5.054 133.620  0.00  0.00    +0.000 C 
ATOM      9  N   UNL     1      -4.152   4.185 134.014  0.00  0.00    +0.000 NA
ATOM     10  C   UNL     1      -3.735   3.420 135.173  0.00  0.00    +0.000 C 
ATOM     11  C   UNL     1      -5.341   4.980 134.233  0.00  0.00    +0.000 C 
ATOM     12  C   UNL     1      -5.987   5.527 132.969  0.00  0.00    +0.000 A 
ATOM     13  C   UNL     1      -5.333   6.117 131.853  0.00  0.00    +0.000 A 
ATOM     14  C   UNL     1      -6.208   6.864 131.049  0.00  0.00    +0.000 A 
ATOM     15  O   UNL     1      -5.573   7.835 130.349  0.00  0.00    +0.000 OA
ATOM     16  C   UNL     1      -7.628   6.865 131.082  0.00  0.00    +0.000 A 
ATOM     17  C   UNL     1      -8.230   6.213 132.135  0.00  0.00    +0.000 A 
ATOM     18  C   UNL     1      -7.416   5.601 133.082  0.00  0.00    +0.000 A 
ENDROOT
BRANCH   3  19
ATOM     19  O   UNL     1      -4.284   6.048 127.399  0.00  0.00    +0.000 OA
ATOM     20  H   UNL     1      -5.070   5.462 127.408  0.00  0.00    +0.000 HD
ENDBRANCH   3  19
BRANCH  16  21
ATOM     21  O   UNL     1      -8.321   7.565 130.122  0.00  0.00    +0.000 OA
ATOM     22  C   UNL     1      -9.716   7.271 129.981  0.00  0.00    +0.000 C 
ENDBRANCH  16  21
TORSDOF 2
ENDMDL
MODEL 2
REMARK VINA RESULT:      -6.7      8.757      9.845
REMARK  Name = Galantamine
REMARK  4 active torsions:
REMARK  status: ('A' for Active; 'I' for Inactive)
REMARK    1  A    between atoms: C_4  and  O_5
REMARK    2  A    between atoms: N_11  and  C_12
REMARK    3  A    between atoms: C_18  and  O_19
REMARK    4  A    between atoms: O_19  and  C_20
REMARK                            x       y       z     vdW  Elec       q    Type
REMARK                         _______ _______ _______ _____ _____    ______ ____
ROOT
ATOM      1  C   UNL     1      -6.967  -1.462 123.486  0.00  0.00    +0.000 C 
ATOM      2  C   UNL     1      -7.895  -2.481 122.818  0.00  0.00    +0.000 C 
ATOM      3  C   UNL     1      -9.002  -2.674 123.888  0.00  0.00    +0.000 C 
ATOM      4  C   UNL     1      -8.341  -3.686 124.707  0.00  0.00    +0.000 C 
ATOM      5  C   UNL     1      -7.076  -3.196 124.931  0.00  0.00    +0.000 C 
ATOM      6  C   UNL     1      -6.631  -1.606 125.072  0.00  0.00    +0.000 C 
ATOM      7  C   UNL     1      -6.556  -2.205 126.530  0.00  0.00    +0.000 C 
ATOM      8  C   UNL     1      -5.418  -1.621 127.308  0.00  0.00    +0.000 C 
ATOM      9  N   UNL     1      -6.031  -0.663 128.195  0.00  0.00    +0.000 NA
ATOM     10  C   UNL     1      -5.323  -0.679 129.460  0.00  0.00    +0.000 C 
ATOM     11  C   UNL     1      -6.050   0.632 127.550  0.00  0.00    +0.000 C 
ATOM     12  C   UNL     1      -7.046   0.763 126.407  0.00  0.00    +0.000 A 
ATOM     13  C   UNL     1      -7.304  -0.181 125.376  0.00  0.00    +0.000 A 
ATOM     14  C   UNL     1      -7.967   0.389 124.278  0.00  0.00    +0.000 A 
ATOM     15  O   UNL     1      -7.744  -0.288 123.126  0.00  0.00    +0.000 OA
ATOM     16  C   UNL     1      -8.604   1.657 124.213  0.00  0.00    +0.000 A 
ATOM     17  C   UNL     1      -8.398   2.516 125.268  0.00  0.00    +0.000 A 
ATOM     18  C   UNL     1      -7.592   2.088 126.318  0.00  0.00    +0.000 A 
ENDROOT
BRANCH   3  19
ATOM     19  O   UNL     1     -10.195  -3.032 123.265  0.00  0.00    +0.000 OA
ATOM     20  H   UNL     1      -9.855  -3.452 122.447  0.00  0.00    +0.000 HD
ENDBRANCH   3  19
BRANCH  16  21
ATOM     21  O   UNL     1      -9.322   1.989 123.087  0.00  0.00    +0.000 OA
ATOM     22  C   UNL     1      -8.740   2.956 122.204  0.00  0.00    +0.000 C 
ENDBRANCH  16  21
TORSDOF 2
ENDMDL
MODEL 3
REMARK VINA RESULT:      -6.6      6.991      8.906
REMARK  Name = Galantamine
REMARK  4 active torsions:
REMARK  status: ('A' for Active; 'I' for Inactive)
REMARK    1  A    between atoms: C_4  and  O_5
REMARK    2  A    between atoms: N_11  and  C_12
REMARK    3  A    between atoms: C_18  and  O_19
REMARK    4  A    between atoms: O_19  and  C_20
REMARK                            x       y       z     vdW  Elec       q    Type
REMARK                         _______ _______ _______ _____ _____    ______ ____
ROOT
ATOM      1  C   UNL     1      -7.557   0.235 123.937  0.00  0.00    +0.000 C 
ATOM      2  C   UNL     1      -9.050  -0.016 123.705  0.00  0.00    +0.000 C 
ATOM      3  C   UNL     1      -9.712   1.086 124.573  0.00  0.00    +0.000 C 
ATOM      4  C   UNL     1      -9.707   0.387 125.855  0.00  0.00    +0.000 C 
ATOM      5  C   UNL     1      -8.426  -0.094 125.997  0.00  0.00    +0.000 C 
ATOM      6  C   UNL     1      -7.030   0.599 125.433  0.00  0.00    +0.000 C 
ATOM      7  C   UNL     1      -7.020   0.818 126.996  0.00  0.00    +0.000 C 
ATOM      8  C   UNL     1      -5.636   0.716 127.558  0.00  0.00    +0.000 C 
ATOM      9  N   UNL     1      -5.233   2.080 127.795  0.00  0.00    +0.000 NA
ATOM     10  C   UNL     1      -4.433   2.127 129.003  0.00  0.00    +0.000 C 
ATOM     11  C   UNL     1      -4.551   2.581 126.620  0.00  0.00    +0.000 C 
ATOM     12  C   UNL     1      -5.451   2.851 125.424  0.00  0.00    +0.000 A 
ATOM     13  C   UNL     1      -6.503   2.030 124.934  0.00  0.00    +0.000 A 
ATOM     14  C   UNL     1      -6.867   2.351 123.617  0.00  0.00    +0.000 A 
ATOM     15  O   UNL     1      -7.428   1.305 122.962  0.00  0.00    +0.000 OA
ATOM     16  C   UNL     1      -6.506   3.506 122.874  0.00  0.00    +0.000 A 
ATOM     17  C   UNL     1      -5.541   4.323 123.419  0.00  0.00    +0.000 A 
ATOM     18  C   UNL     1      -4.994   3.968 124.647  0.00  0.00    +0.000 A 
ENDROOT
BRANCH   3  19
ATOM     19  O   UNL     1     -10.949   1.425 124.033  0.00  0.00    +0.000 OA
ATOM     20  H   UNL     1     -11.438   0.584 124.156  0.00  0.00    +0.000 HD
ENDBRANCH   3  19
BRANCH  16  21
ATOM     21  O   UNL     1      -7.071   3.712 121.637  0.00  0.00    +0.000 OA
ATOM     22  C   UNL     1      -6.177   3.955 120.544  0.00  0.00    +0.000 C 
ENDBRANCH  16  21
TORSDOF 2
ENDMDL
MODEL 4
REMARK VINA RESULT:      -6.6      9.128     10.395
REMARK  Name = Galantamine
REMARK  4 active torsions:
REMARK  status: ('A' for Active; 'I' for Inactive)
REMARK    1  A    between atoms: C_4  and  O_5
REMARK    2  A    between atoms: N_11  and  C_12
REMARK    3  A    between atoms: C_18  and  O_19
REMARK    4  A    between atoms: O_19  and  C_20
REMARK                            x       y       z     vdW  Elec       q    Type
REMARK                         _______ _______ _______ _____ _____    ______ ____
ROOT
ATOM      1  C   UNL     1      -9.001  -2.441 125.095  0.00  0.00    +0.000 C 
ATOM      2  C   UNL     1      -8.311  -3.507 124.238  0.00  0.00    +0.000 C 
ATOM      3  C   UNL     1      -6.835  -3.028 124.235  0.00  0.00    +0.000 C 
ATOM      4  C   UNL     1      -6.917  -2.073 123.133  0.00  0.00    +0.000 C 
ATOM      5  C   UNL     1      -8.019  -1.298 123.411  0.00  0.00    +0.000 C 
ATOM      6  C   UNL     1      -8.593  -0.877 124.907  0.00  0.00    +0.000 C 
ATOM      7  C   UNL     1      -7.939   0.431 124.313  0.00  0.00    +0.000 C 
ATOM      8  C   UNL     1      -8.702   1.657 124.707  0.00  0.00    +0.000 C 
ATOM      9  N   UNL     1      -7.918   2.258 125.757  0.00  0.00    +0.000 NA
ATOM     10  C   UNL     1      -7.999   3.700 125.633  0.00  0.00    +0.000 C 
ATOM     11  C   UNL     1      -8.375   1.753 127.035  0.00  0.00    +0.000 C 
ATOM     12  C   UNL     1      -8.003   0.305 127.320  0.00  0.00    +0.000 A 
ATOM     13  C   UNL     1      -8.077  -0.797 126.425  0.00  0.00    +0.000 A 
ATOM     14  C   UNL     1      -8.047  -2.032 127.089  0.00  0.00    +0.000 A 
ATOM     15  O   UNL     1      -8.642  -3.021 126.378  0.00  0.00    +0.000 OA
ATOM     16  C   UNL     1      -7.700  -2.281 128.444  0.00  0.00    +0.000 A 
ATOM     17  C   UNL     1      -7.556  -1.184 129.264  0.00  0.00    +0.000 A 
ATOM     18  C   UNL     1      -7.755   0.078 128.716  0.00  0.00    +0.000 A 
ENDROOT
BRANCH   3  19
ATOM     19  O   UNL     1      -5.990  -4.122 124.074  0.00  0.00    +0.000 OA
ATOM     20  H   UNL     1      -5.491  -3.851 123.275  0.00  0.00    +0.000 HD
ENDBRANCH   3  19
BRANCH  16  21
ATOM     21  O   UNL     1      -7.598  -3.580 128.883  0.00  0.00    +0.000 OA
ATOM     22  C   UNL     1      -6.670  -3.839 129.944  0.00  0.00    +0.000 C 
ENDBRANCH  16  21
TORSDOF 2
ENDMDL
MODEL 5
REMARK VINA RESULT:      -6.5      8.858      9.979
REMARK  Name = Galantamine
REMARK  4 active torsions:
REMARK  status: ('A' for Active; 'I' for Inactive)
REMARK    1  A    between atoms: C_4  and  O_5
REMARK    2  A    between atoms: N_11  and  C_12
REMARK    3  A    between atoms: C_18  and  O_19
REMARK    4  A    between atoms: O_19  and  C_20
REMARK                            x       y       z     vdW  Elec       q    Type
REMARK                         _______ _______ _______ _____ _____    ______ ____
ROOT
ATOM      1  C   UNL     1      -6.514   0.232 127.138  0.00  0.00    +0.000 C 
ATOM      2  C   UNL     1      -6.731   1.686 127.569  0.00  0.00    +0.000 C 
ATOM      3  C   UNL     1      -8.278   1.794 127.605  0.00  0.00    +0.000 C 
ATOM      4  C   UNL     1      -8.510   2.089 126.193  0.00  0.00    +0.000 C 
ATOM      5  C   UNL     1      -7.781   1.146 125.506  0.00  0.00    +0.000 C 
ATOM      6  C   UNL     1      -7.459  -0.409 125.979  0.00  0.00    +0.000 C 
ATOM      7  C   UNL     1      -8.524  -0.522 124.819  0.00  0.00    +0.000 C 
ATOM      8  C   UNL     1      -8.279  -1.725 123.961  0.00  0.00    +0.000 C 
ATOM      9  N   UNL     1      -9.269  -2.686 124.383  0.00  0.00    +0.000 NA
ATOM     10  C   UNL     1      -9.718  -3.431 123.224  0.00  0.00    +0.000 C 
ATOM     11  C   UNL     1      -8.708  -3.512 125.431  0.00  0.00    +0.000 C 
ATOM     12  C   UNL     1      -8.534  -2.814 126.772  0.00  0.00    +0.000 A 
ATOM     13  C   UNL     1      -8.026  -1.506 127.003  0.00  0.00    +0.000 A 
ATOM     14  C   UNL     1      -7.626  -1.312 128.334  0.00  0.00    +0.000 A 
ATOM     15  O   UNL     1      -6.684  -0.347 128.460  0.00  0.00    +0.000 OA
ATOM     16  C   UNL     1      -7.909  -2.139 129.455  0.00  0.00    +0.000 A 
ATOM     17  C   UNL     1      -8.477  -3.367 129.198  0.00  0.00    +0.000 A 
ATOM     18  C   UNL     1      -8.734  -3.710 127.875  0.00  0.00    +0.000 A 
ENDROOT
BRANCH   3  19
ATOM     19  O   UNL     1      -8.656   2.761 128.532  0.00  0.00    +0.000 OA
ATOM     20  H   UNL     1      -8.918   2.196 129.290  0.00  0.00    +0.000 HD
ENDBRANCH   3  19
BRANCH  16  21
ATOM     21  O   UNL     1      -7.544  -1.714 130.711  0.00  0.00    +0.000 OA
ATOM     22  C   UNL     1      -6.976  -2.693 131.590  0.00  0.00    +0.000 C 
ENDBRANCH  16  21
TORSDOF 2
ENDMDL
MODEL 6
REMARK VINA RESULT:      -6.4      8.326      9.034
REMARK  Name = Galantamine
REMARK  4 active torsions:
REMARK  status: ('A' for Active; 'I' for Inactive)
REMARK    1  A    between atoms: C_4  and  O_5
REMARK    2  A    between atoms: N_11  and  C_12
REMARK    3  A    between atoms: C_18  and  O_19
REMARK    4  A    between atoms: O_19  and  C_20
REMARK                            x       y       z     vdW  Elec       q    Type
REMARK                         _______ _______ _______ _____ _____    ______ ____
ROOT
ATOM      1  C   UNL     1      -9.297   0.948 126.004  0.00  0.00    +0.000 C 
ATOM      2  C   UNL     1      -8.951   1.690 124.709  0.00  0.00    +0.000 C 
ATOM      3  C   UNL     1      -7.496   1.225 124.438  0.00  0.00    +0.000 C 
ATOM      4  C   UNL     1      -6.797   2.193 125.279  0.00  0.00    +0.000 C 
ATOM      5  C   UNL     1      -7.447   2.152 126.490  0.00  0.00    +0.000 C 
ATOM      6  C   UNL     1      -8.183   0.840 127.186  0.00  0.00    +0.000 C 
ATOM      7  C   UNL     1      -6.859   1.079 128.010  0.00  0.00    +0.000 C 
ATOM      8  C   UNL     1      -7.054   0.781 129.465  0.00  0.00    +0.000 C 
ATOM      9  N   UNL     1      -6.437  -0.507 129.664  0.00  0.00    +0.000 NA
ATOM     10  C   UNL     1      -5.807  -0.525 130.969  0.00  0.00    +0.000 C 
ATOM     11  C   UNL     1      -7.433  -1.540 129.480  0.00  0.00    +0.000 C 
ATOM     12  C   UNL     1      -7.871  -1.757 128.038  0.00  0.00    +0.000 A 
ATOM     13  C   UNL     1      -8.169  -0.761 127.069  0.00  0.00    +0.000 A 
ATOM     14  C   UNL     1      -8.909  -1.266 125.989  0.00  0.00    +0.000 A 
ATOM     15  O   UNL     1      -9.647  -0.312 125.371  0.00  0.00    +0.000 OA
ATOM     16  C   UNL     1      -9.139  -2.628 125.656  0.00  0.00    +0.000 A 
ATOM     17  C   UNL     1      -8.762  -3.571 126.585  0.00  0.00    +0.000 A 
ATOM     18  C   UNL     1      -8.185  -3.132 127.772  0.00  0.00    +0.000 A 
ENDROOT
BRANCH   3  19
ATOM     19  O   UNL     1      -7.242   1.262 123.070  0.00  0.00    +0.000 OA
ATOM     20  H   UNL     1      -8.154   1.310 122.716  0.00  0.00    +0.000 HD
ENDBRANCH   3  19
BRANCH  16  21
ATOM     21  O   UNL     1      -9.780  -2.931 124.477  0.00  0.00    +0.000 OA
ATOM     22  C   UNL     1      -8.976  -2.984 123.292  0.00  0.00    +0.000 C 
ENDBRANCH  16  21
TORSDOF 2
ENDMDL
MODEL 7
REMARK VINA RESULT:      -6.4      1.610      4.481
REMARK  Name = Galantamine
REMARK  4 active torsions:
REMARK  status: ('A' for Active; 'I' for Inactive)
REMARK    1  A    between atoms: C_4  and  O_5
REMARK    2  A    between atoms: N_11  and  C_12
REMARK    3  A    between atoms: C_18  and  O_19
REMARK    4  A    between atoms: O_19  and  C_20
REMARK                            x       y       z     vdW  Elec       q    Type
REMARK                         _______ _______ _______ _____ _____    ______ ____
ROOT
ATOM      1  C   UNL     1      -7.671   4.984 130.641  0.00  0.00    +0.000 C 
ATOM      2  C   UNL     1      -8.820   5.556 129.803  0.00  0.00    +0.000 C 
ATOM      3  C   UNL     1      -9.041   6.948 130.450  0.00  0.00    +0.000 C 
ATOM      4  C   UNL     1      -9.925   6.545 131.541  0.00  0.00    +0.000 C 
ATOM      5  C   UNL     1      -9.301   5.470 132.129  0.00  0.00    +0.000 C 
ATOM      6  C   UNL     1      -7.670   5.206 132.253  0.00  0.00    +0.000 C 
ATOM      7  C   UNL     1      -8.154   5.599 133.703  0.00  0.00    +0.000 C 
ATOM      8  C   UNL     1      -7.410   4.841 134.758  0.00  0.00    +0.000 C 
ATOM      9  N   UNL     1      -6.455   5.783 135.285  0.00  0.00    +0.000 NA
ATOM     10  C   UNL     1      -6.313   5.555 136.710  0.00  0.00    +0.000 C 
ATOM     11  C   UNL     1      -5.216   5.663 134.546  0.00  0.00    +0.000 C 
ATOM     12  C   UNL     1      -5.262   6.211 133.127  0.00  0.00    +0.000 A 
ATOM     13  C   UNL     1      -6.298   6.035 132.169  0.00  0.00    +0.000 A 
ATOM     14  C   UNL     1      -5.873   6.315 130.861  0.00  0.00    +0.000 A 
ATOM     15  O   UNL     1      -6.606   5.664 129.925  0.00  0.00    +0.000 OA
ATOM     16  C   UNL     1      -4.680   6.972 130.458  0.00  0.00    +0.000 A 
ATOM     17  C   UNL     1      -3.733   7.199 131.430  0.00  0.00    +0.000 A 
ATOM     18  C   UNL     1      -4.006   6.778 132.727  0.00  0.00    +0.000 A 
ENDROOT
BRANCH   3  19
ATOM     19  O   UNL     1      -9.555   7.827 129.500  0.00  0.00    +0.000 OA
ATOM     20  H   UNL     1     -10.473   7.934 129.828  0.00  0.00    +0.000 HD
ENDBRANCH   3  19
BRANCH  16  21
ATOM     21  O   UNL     1      -4.498   7.278 129.129  0.00  0.00    +0.000 OA
ATOM     22  C   UNL     1      -3.165   7.178 128.613  0.00  0.00    +0.000 C 
ENDBRANCH  16  21
TORSDOF 2
ENDMDL
MODEL 8
REMARK VINA RESULT:      -6.4      8.114      8.679
REMARK  Name = Galantamine
REMARK  4 active torsions:
REMARK  status: ('A' for Active; 'I' for Inactive)
REMARK    1  A    between atoms: C_4  and  O_5
REMARK    2  A    between atoms: N_11  and  C_12
REMARK    3  A    between atoms: C_18  and  O_19
REMARK    4  A    between atoms: O_19  and  C_20
REMARK                            x       y       z     vdW  Elec       q    Type
REMARK                         _______ _______ _______ _____ _____    ______ ____
ROOT
ATOM      1  C   UNL     1      -7.038  -1.877 126.972  0.00  0.00    +0.000 C 
ATOM      2  C   UNL     1      -7.782  -2.691 125.908  0.00  0.00    +0.000 C 
ATOM      3  C   UNL     1      -9.211  -2.788 126.503  0.00  0.00    +0.000 C 
ATOM      4  C   UNL     1      -9.010  -3.946 127.369  0.00  0.00    +0.000 C 
ATOM      5  C   UNL     1      -7.859  -3.673 128.071  0.00  0.00    +0.000 C 
ATOM      6  C   UNL     1      -7.308  -2.185 128.547  0.00  0.00    +0.000 C 
ATOM      7  C   UNL     1      -7.828  -2.891 129.859  0.00  0.00    +0.000 C 
ATOM      8  C   UNL     1      -6.982  -2.547 131.045  0.00  0.00    +0.000 C 
ATOM      9  N   UNL     1      -7.752  -1.572 131.777  0.00  0.00    +0.000 NA
ATOM     10  C   UNL     1      -7.548  -1.788 133.196  0.00  0.00    +0.000 C 
ATOM     11  C   UNL     1      -7.386  -0.246 131.327  0.00  0.00    +0.000 C 
ATOM     12  C   UNL     1      -7.887   0.118 129.937  0.00  0.00    +0.000 A 
ATOM     13  C   UNL     1      -7.871  -0.699 128.773  0.00  0.00    +0.000 A 
ATOM     14  C   UNL     1      -8.028   0.044 127.593  0.00  0.00    +0.000 A 
ATOM     15  O   UNL     1      -7.491  -0.575 126.513  0.00  0.00    +0.000 OA
ATOM     16  C   UNL     1      -8.444   1.396 127.467  0.00  0.00    +0.000 A 
ATOM     17  C   UNL     1      -8.527   2.135 128.626  0.00  0.00    +0.000 A 
ATOM     18  C   UNL     1      -8.204   1.514 129.828  0.00  0.00    +0.000 A 
ENDROOT
BRANCH   3  19
ATOM     19  O   UNL     1     -10.138  -2.913 125.471  0.00  0.00    +0.000 OA
ATOM     20  H   UNL     1      -9.718  -3.617 124.934  0.00  0.00    +0.000 HD
ENDBRANCH   3  19
BRANCH  16  21
ATOM     21  O   UNL     1      -8.670   1.915 126.213  0.00  0.00    +0.000 OA
ATOM     22  C   UNL     1      -7.816   2.984 125.787  0.00  0.00    +0.000 C 
ENDBRANCH  16  21
TORSDOF 2
ENDMDL
MODEL 9
REMARK VINA RESULT:      -6.4      3.493      5.851
REMARK  Name = Galantamine
REMARK  4 active torsions:
REMARK  status: ('A' for Active; 'I' for Inactive)
REMARK    1  A    between atoms: C_4  and  O_5
REMARK    2  A    between atoms: N_11  and  C_12
REMARK    3  A    between atoms: C_18  and  O_19
REMARK    4  A    between atoms: O_19  and  C_20
REMARK                            x       y       z     vdW  Elec       q    Type
REMARK                         _______ _______ _______ _____ _____    ______ ____
ROOT
ATOM      1  C   UNL     1      -9.622   4.457 130.910  0.00  0.00    +0.000 C 
ATOM      2  C   UNL     1     -11.041   4.955 130.621  0.00  0.00    +0.000 C 
ATOM      3  C   UNL     1     -10.812   5.955 129.457  0.00  0.00    +0.000 C 
ATOM      4  C   UNL     1     -10.468   7.135 130.246  0.00  0.00    +0.000 C 
ATOM      5  C   UNL     1      -9.517   6.703 131.140  0.00  0.00    +0.000 C 
ATOM      6  C   UNL     1      -8.386   5.516 130.901  0.00  0.00    +0.000 C 
ATOM      7  C   UNL     1      -7.594   6.880 130.861  0.00  0.00    +0.000 C 
ATOM      8  C   UNL     1      -6.236   6.748 131.478  0.00  0.00    +0.000 C 
ATOM      9  N   UNL     1      -5.327   6.681 130.361  0.00  0.00    +0.000 NA
ATOM     10  C   UNL     1      -4.107   7.381 130.710  0.00  0.00    +0.000 C 
ATOM     11  C   UNL     1      -5.126   5.294 129.999  0.00  0.00    +0.000 C 
ATOM     12  C   UNL     1      -6.315   4.631 129.320  0.00  0.00    +0.000 A 
ATOM     13  C   UNL     1      -7.685   4.736 129.686  0.00  0.00    +0.000 A 
ATOM     14  C   UNL     1      -8.471   3.715 129.128  0.00  0.00    +0.000 A 
ATOM     15  O   UNL     1      -9.589   3.464 129.851  0.00  0.00    +0.000 OA
ATOM     16  C   UNL     1      -8.112   2.814 128.090  0.00  0.00    +0.000 A 
ATOM     17  C   UNL     1      -6.791   2.798 127.705  0.00  0.00    +0.000 A 
ATOM     18  C   UNL     1      -5.907   3.658 128.347  0.00  0.00    +0.000 A 
ENDROOT
BRANCH   3  19
ATOM     19  O   UNL     1     -11.958   6.023 128.669  0.00  0.00    +0.000 OA
ATOM     20  H   UNL     1     -12.533   6.584 129.230  0.00  0.00    +0.000 HD
ENDBRANCH   3  19
BRANCH  16  21
ATOM     21  O   UNL     1      -9.066   1.965 127.580  0.00  0.00    +0.000 OA
ATOM     22  C   UNL     1      -8.687   1.156 126.459  0.00  0.00    +0.000 C 
ENDBRANCH  16  21
TORSDOF 2
ENDMDL
