MODEL 1
REMARK VINA RESULT:      -4.1      0.000      0.000
REMARK  Name = gamma-Aminobutyric acid
REMARK  5 active torsions:
REMARK  status: ('A' for Active; 'I' for Inactive)
REMARK    1  A    between atoms: N_1  and  C_2
REMARK    2  A    between atoms: C_2  and  C_3
REMARK    3  A    between atoms: C_3  and  C_4
REMARK    4  A    between atoms: C_4  and  C_5
REMARK    5  A    between atoms: C_5  and  O_6
REMARK                            x       y       z     vdW  Elec       q    Type
REMARK                         _______ _______ _______ _____ _____    ______ ____
ROOT
ATOM      1  C   UNL     1      -5.828   3.941 121.902  0.00  0.00    +0.000 C 
ENDROOT
BRANCH   1   2
ATOM      2  C   UNL     1      -7.119   3.216 122.253  0.00  0.00    +0.000 C 
BRANCH   2   3
ATOM      3  N   UNL     1      -8.177   3.701 121.377  0.00  0.00    +0.000 NA
ATOM      4  H   UNL     1      -9.084   3.442 121.765  0.00  0.00    +0.000 HD
ATOM      5  H   UNL     1      -8.118   3.242 120.469  0.00  0.00    +0.000 HD
ENDBRANCH   2   3
ENDBRANCH   1   2
BRANCH   1   6
ATOM      6  C   UNL     1      -5.620   4.040 120.397  0.00  0.00    +0.000 C 
BRANCH   6   7
ATOM      7  C   UNL     1      -5.217   5.406 119.885  0.00  0.00    +0.000 C 
ATOM      8  O   UNL     1      -4.567   6.185 120.573  0.00  0.00    +0.000 OA
BRANCH   7   9
ATOM      9  O   UNL     1      -5.596   5.736 118.636  0.00  0.00    +0.000 OA
ATOM     10  H   UNL     1      -6.547   5.712 118.429  0.00  0.00    +0.000 HD
ENDBRANCH   7   9
ENDBRANCH   6   7
ENDBRANCH   1   6
TORSDOF 5
ENDMDL
MODEL 2
REMARK VINA RESULT:      -4.0      9.033      9.670
REMARK  Name = gamma-Aminobutyric acid
REMARK  5 active torsions:
REMARK  status: ('A' for Active; 'I' for Inactive)
REMARK    1  A    between atoms: N_1  and  C_2
REMARK    2  A    between atoms: C_2  and  C_3
REMARK    3  A    between atoms: C_3  and  C_4
REMARK    4  A    between atoms: C_4  and  C_5
REMARK    5  A    between atoms: C_5  and  O_6
REMARK                            x       y       z     vdW  Elec       q    Type
REMARK                         _______ _______ _______ _____ _____    ______ ____
ROOT
ATOM      1  C   UNL     1     -11.123   8.018 129.070  0.00  0.00    +0.000 C 
ENDROOT
BRANCH   1   2
ATOM      2  C   UNL     1     -12.543   8.435 129.427  0.00  0.00    +0.000 C 
BRANCH   2   3
ATOM      3  N   UNL     1     -12.834   9.701 128.767  0.00  0.00    +0.000 NA
ATOM      4  H   UNL     1     -12.262   9.785 127.926  0.00  0.00    +0.000 HD
ATOM      5  H   UNL     1     -12.568  10.479 129.367  0.00  0.00    +0.000 HD
ENDBRANCH   2   3
ENDBRANCH   1   2
BRANCH   1   6
ATOM      6  C   UNL     1     -10.794   8.302 127.611  0.00  0.00    +0.000 C 
BRANCH   6   7
ATOM      7  C   UNL     1     -10.814   7.097 126.695  0.00  0.00    +0.000 C 
ATOM      8  O   UNL     1      -9.794   6.464 126.443  0.00  0.00    +0.000 OA
BRANCH   7   9
ATOM      9  O   UNL     1     -11.999   6.739 126.168  0.00  0.00    +0.000 OA
ATOM     10  H   UNL     1     -12.121   6.850 125.208  0.00  0.00    +0.000 HD
ENDBRANCH   7   9
ENDBRANCH   6   7
ENDBRANCH   1   6
TORSDOF 5
ENDMDL
MODEL 3
REMARK VINA RESULT:      -4.0      2.317      2.848
REMARK  Name = gamma-Aminobutyric acid
REMARK  5 active torsions:
REMARK  status: ('A' for Active; 'I' for Inactive)
REMARK    1  A    between atoms: N_1  and  C_2
REMARK    2  A    between atoms: C_2  and  C_3
REMARK    3  A    between atoms: C_3  and  C_4
REMARK    4  A    between atoms: C_4  and  C_5
REMARK    5  A    between atoms: C_5  and  O_6
REMARK                            x       y       z     vdW  Elec       q    Type
REMARK                         _______ _______ _______ _____ _____    ______ ____
ROOT
ATOM      1  C   UNL     1      -5.078   3.815 120.780  0.00  0.00    +0.000 C 
ENDROOT
BRANCH   1   2
ATOM      2  C   UNL     1      -4.598   4.862 121.775  0.00  0.00    +0.000 C 
BRANCH   2   3
ATOM      3  N   UNL     1      -4.242   6.070 121.041  0.00  0.00    +0.000 NA
ATOM      4  H   UNL     1      -4.840   6.839 121.344  0.00  0.00    +0.000 HD
ATOM      5  H   UNL     1      -4.428   5.944 120.047  0.00  0.00    +0.000 HD
ENDBRANCH   2   3
ENDBRANCH   1   2
BRANCH   1   6
ATOM      6  C   UNL     1      -6.582   3.888 120.555  0.00  0.00    +0.000 C 
BRANCH   6   7
ATOM      7  C   UNL     1      -7.016   4.590 119.285  0.00  0.00    +0.000 C 
ATOM      8  O   UNL     1      -8.148   4.460 118.834  0.00  0.00    +0.000 OA
BRANCH   7   9
ATOM      9  O   UNL     1      -6.110   5.372 118.669  0.00  0.00    +0.000 OA
ATOM     10  H   UNL     1      -5.796   5.096 117.790  0.00  0.00    +0.000 HD
ENDBRANCH   7   9
ENDBRANCH   6   7
ENDBRANCH   1   6
TORSDOF 5
ENDMDL
MODEL 4
REMARK VINA RESULT:      -3.8      8.739      9.498
REMARK  Name = gamma-Aminobutyric acid
REMARK  5 active torsions:
REMARK  status: ('A' for Active; 'I' for Inactive)
REMARK    1  A    between atoms: N_1  and  C_2
REMARK    2  A    between atoms: C_2  and  C_3
REMARK    3  A    between atoms: C_3  and  C_4
REMARK    4  A    between atoms: C_4  and  C_5
REMARK    5  A    between atoms: C_5  and  O_6
REMARK                            x       y       z     vdW  Elec       q    Type
REMARK                         _______ _______ _______ _____ _____    ______ ____
ROOT
ATOM      1  C   UNL     1     -12.992   7.420 128.068  0.00  0.00    +0.000 C 
ENDROOT
BRANCH   1   2
ATOM      2  C   UNL     1     -12.856   6.807 129.454  0.00  0.00    +0.000 C 
BRANCH   2   3
ATOM      3  N   UNL     1     -11.990   5.638 129.361  0.00  0.00    +0.000 NA
ATOM      4  H   UNL     1     -11.957   5.168 130.266  0.00  0.00    +0.000 HD
ATOM      5  H   UNL     1     -11.034   5.925 129.159  0.00  0.00    +0.000 HD
ENDBRANCH   2   3
ENDBRANCH   1   2
BRANCH   1   6
ATOM      6  C   UNL     1     -11.775   8.253 127.690  0.00  0.00    +0.000 C 
BRANCH   6   7
ATOM      7  C   UNL     1     -10.850   7.626 126.668  0.00  0.00    +0.000 C 
ATOM      8  O   UNL     1     -10.824   8.009 125.504  0.00  0.00    +0.000 OA
BRANCH   7   9
ATOM      9  O   UNL     1     -10.049   6.629 127.087  0.00  0.00    +0.000 OA
ATOM     10  H   UNL     1      -9.104   6.679 126.855  0.00  0.00    +0.000 HD
ENDBRANCH   7   9
ENDBRANCH   6   7
ENDBRANCH   1   6
TORSDOF 5
ENDMDL
MODEL 5
REMARK VINA RESULT:      -3.7      9.783     10.641
REMARK  Name = gamma-Aminobutyric acid
REMARK  5 active torsions:
REMARK  status: ('A' for Active; 'I' for Inactive)
REMARK    1  A    between atoms: N_1  and  C_2
REMARK    2  A    between atoms: C_2  and  C_3
REMARK    3  A    between atoms: C_3  and  C_4
REMARK    4  A    between atoms: C_4  and  C_5
REMARK    5  A    between atoms: C_5  and  O_6
REMARK                            x       y       z     vdW  Elec       q    Type
REMARK                         _______ _______ _______ _____ _____    ______ ____
ROOT
ATOM      1  C   UNL     1     -11.195   8.294 127.888  0.00  0.00    +0.000 C 
ENDROOT
BRANCH   1   2
ATOM      2  C   UNL     1     -10.956   7.708 126.504  0.00  0.00    +0.000 C 
BRANCH   2   3
ATOM      3  N   UNL     1     -12.012   6.747 126.218  0.00  0.00    +0.000 NA
ATOM      4  H   UNL     1     -12.896   7.093 126.593  0.00  0.00    +0.000 HD
ATOM      5  H   UNL     1     -11.827   5.868 126.700  0.00  0.00    +0.000 HD
ENDBRANCH   2   3
ENDBRANCH   1   2
BRANCH   1   6
ATOM      6  C   UNL     1     -12.591   7.982 128.406  0.00  0.00    +0.000 C 
BRANCH   6   7
ATOM      7  C   UNL     1     -12.660   6.935 129.498  0.00  0.00    +0.000 C 
ATOM      8  O   UNL     1     -13.109   7.194 130.609  0.00  0.00    +0.000 OA
BRANCH   7   9
ATOM      9  O   UNL     1     -12.215   5.701 129.201  0.00  0.00    +0.000 OA
ATOM     10  H   UNL     1     -12.149   5.456 128.261  0.00  0.00    +0.000 HD
ENDBRANCH   7   9
ENDBRANCH   6   7
ENDBRANCH   1   6
TORSDOF 5
ENDMDL
MODEL 6
REMARK VINA RESULT:      -3.7     10.025     10.982
REMARK  Name = gamma-Aminobutyric acid
REMARK  5 active torsions:
REMARK  status: ('A' for Active; 'I' for Inactive)
REMARK    1  A    between atoms: N_1  and  C_2
REMARK    2  A    between atoms: C_2  and  C_3
REMARK    3  A    between atoms: C_3  and  C_4
REMARK    4  A    between atoms: C_4  and  C_5
REMARK    5  A    between atoms: C_5  and  O_6
REMARK                            x       y       z     vdW  Elec       q    Type
REMARK                         _______ _______ _______ _____ _____    ______ ____
ROOT
ATOM      1  C   UNL     1     -10.355   7.889 129.202  0.00  0.00    +0.000 C 
ENDROOT
BRANCH   1   2
ATOM      2  C   UNL     1     -10.592   7.873 127.698  0.00  0.00    +0.000 C 
BRANCH   2   3
ATOM      3  N   UNL     1     -10.089   6.615 127.163  0.00  0.00    +0.000 NA
ATOM      4  H   UNL     1     -10.864   5.962 127.046  0.00  0.00    +0.000 HD
ATOM      5  H   UNL     1      -9.452   6.180 127.829  0.00  0.00    +0.000 HD
ENDBRANCH   2   3
ENDBRANCH   1   2
BRANCH   1   6
ATOM      6  C   UNL     1     -11.629   7.601 129.984  0.00  0.00    +0.000 C 
BRANCH   6   7
ATOM      7  C   UNL     1     -11.782   6.176 130.473  0.00  0.00    +0.000 C 
ATOM      8  O   UNL     1     -11.650   5.220 129.718  0.00  0.00    +0.000 OA
BRANCH   7   9
ATOM      9  O   UNL     1     -12.066   5.996 131.776  0.00  0.00    +0.000 OA
ATOM     10  H   UNL     1     -12.215   5.085 132.086  0.00  0.00    +0.000 HD
ENDBRANCH   7   9
ENDBRANCH   6   7
ENDBRANCH   1   6
TORSDOF 5
ENDMDL
MODEL 7
REMARK VINA RESULT:      -3.7      9.370      9.847
REMARK  Name = gamma-Aminobutyric acid
REMARK  5 active torsions:
REMARK  status: ('A' for Active; 'I' for Inactive)
REMARK    1  A    between atoms: N_1  and  C_2
REMARK    2  A    between atoms: C_2  and  C_3
REMARK    3  A    between atoms: C_3  and  C_4
REMARK    4  A    between atoms: C_4  and  C_5
REMARK    5  A    between atoms: C_5  and  O_6
REMARK                            x       y       z     vdW  Elec       q    Type
REMARK                         _______ _______ _______ _____ _____    ______ ____
ROOT
ATOM      1  C   UNL     1     -12.144   8.277 128.057  0.00  0.00    +0.000 C 
ENDROOT
BRANCH   1   2
ATOM      2  C   UNL     1     -12.974   7.248 127.302  0.00  0.00    +0.000 C 
BRANCH   2   3
ATOM      3  N   UNL     1     -12.170   6.715 126.210  0.00  0.00    +0.000 NA
ATOM      4  H   UNL     1     -12.092   7.417 125.473  0.00  0.00    +0.000 HD
ATOM      5  H   UNL     1     -12.639   5.915 125.787  0.00  0.00    +0.000 HD
ENDBRANCH   2   3
ENDBRANCH   1   2
BRANCH   1   6
ATOM      6  C   UNL     1     -11.495   7.686 129.301  0.00  0.00    +0.000 C 
BRANCH   6   7
ATOM      7  C   UNL     1     -10.059   7.236 129.134  0.00  0.00    +0.000 C 
ATOM      8  O   UNL     1      -9.161   7.678 129.841  0.00  0.00    +0.000 OA
BRANCH   7   9
ATOM      9  O   UNL     1      -9.803   6.323 128.179  0.00  0.00    +0.000 OA
ATOM     10  H   UNL     1      -9.026   6.468 127.610  0.00  0.00    +0.000 HD
ENDBRANCH   7   9
ENDBRANCH   6   7
ENDBRANCH   1   6
TORSDOF 5
ENDMDL
MODEL 8
REMARK VINA RESULT:      -3.6     11.619     12.203
REMARK  Name = gamma-Aminobutyric acid
REMARK  5 active torsions:
REMARK  status: ('A' for Active; 'I' for Inactive)
REMARK    1  A    between atoms: N_1  and  C_2
REMARK    2  A    between atoms: C_2  and  C_3
REMARK    3  A    between atoms: C_3  and  C_4
REMARK    4  A    between atoms: C_4  and  C_5
REMARK    5  A    between atoms: C_5  and  O_6
REMARK                            x       y       z     vdW  Elec       q    Type
REMARK                         _______ _______ _______ _____ _____    ______ ____
ROOT
ATOM      1  C   UNL     1     -12.166   8.504 129.465  0.00  0.00    +0.000 C 
ENDROOT
BRANCH   1   2
ATOM      2  C   UNL     1     -13.206   9.077 128.513  0.00  0.00    +0.000 C 
BRANCH   2   3
ATOM      3  N   UNL     1     -13.442  10.470 128.869  0.00  0.00    +0.000 NA
ATOM      4  H   UNL     1     -14.318  10.783 128.449  0.00  0.00    +0.000 HD
ATOM      5  H   UNL     1     -12.713  11.062 128.472  0.00  0.00    +0.000 HD
ENDBRANCH   2   3
ENDBRANCH   1   2
BRANCH   1   6
ATOM      6  C   UNL     1     -12.789   7.587 130.507  0.00  0.00    +0.000 C 
BRANCH   6   7
ATOM      7  C   UNL     1     -12.098   6.252 130.695  0.00  0.00    +0.000 C 
ATOM      8  O   UNL     1     -11.755   5.567 129.739  0.00  0.00    +0.000 OA
BRANCH   7   9
ATOM      9  O   UNL     1     -11.868   5.846 131.957  0.00  0.00    +0.000 OA
ATOM     10  H   UNL     1     -11.030   5.386 132.140  0.00  0.00    +0.000 HD
ENDBRANCH   7   9
ENDBRANCH   6   7
ENDBRANCH   1   6
TORSDOF 5
ENDMDL
MODEL 9
REMARK VINA RESULT:      -3.6     11.087     11.818
REMARK  Name = gamma-Aminobutyric acid
REMARK  5 active torsions:
REMARK  status: ('A' for Active; 'I' for Inactive)
REMARK    1  A    between atoms: N_1  and  C_2
REMARK    2  A    between atoms: C_2  and  C_3
REMARK    3  A    between atoms: C_3  and  C_4
REMARK    4  A    between atoms: C_4  and  C_5
REMARK    5  A    between atoms: C_5  and  O_6
REMARK                            x       y       z     vdW  Elec       q    Type
REMARK                         _______ _______ _______ _____ _____    ______ ____
ROOT
ATOM      1  C   UNL     1     -12.110   8.138 128.394  0.00  0.00    +0.000 C 
ENDROOT
BRANCH   1   2
ATOM      2  C   UNL     1     -10.683   8.542 128.054  0.00  0.00    +0.000 C 
BRANCH   2   3
ATOM      3  N   UNL     1      -9.793   8.006 129.076  0.00  0.00    +0.000 NA
ATOM      4  H   UNL     1      -8.872   8.434 128.981  0.00  0.00    +0.000 HD
ATOM      5  H   UNL     1      -9.655   7.007 128.931  0.00  0.00    +0.000 HD
ENDBRANCH   2   3
ENDBRANCH   1   2
BRANCH   1   6
ATOM      6  C   UNL     1     -12.556   8.691 129.740  0.00  0.00    +0.000 C 
BRANCH   6   7
ATOM      7  C   UNL     1     -13.192  10.064 129.700  0.00  0.00    +0.000 C 
ATOM      8  O   UNL     1     -13.293  10.755 130.707  0.00  0.00    +0.000 OA
BRANCH   7   9
ATOM      9  O   UNL     1     -13.640  10.505 128.510  0.00  0.00    +0.000 OA
ATOM     10  H   UNL     1     -14.111   9.872 127.940  0.00  0.00    +0.000 HD
ENDBRANCH   7   9
ENDBRANCH   6   7
ENDBRANCH   1   6
TORSDOF 5
ENDMDL
