MODEL 1
REMARK VINA RESULT:      -4.1      0.000      0.000
REMARK  Name = gamma-Hydroxybutyric acid
REMARK  5 active torsions:
REMARK  status: ('A' for Active; 'I' for Inactive)
REMARK    1  A    between atoms: O_1  and  C_2
REMARK    2  A    between atoms: C_2  and  C_3
REMARK    3  A    between atoms: C_3  and  C_4
REMARK    4  A    between atoms: C_4  and  C_5
REMARK    5  A    between atoms: C_5  and  O_6
REMARK                            x       y       z     vdW  Elec       q    Type
REMARK                         _______ _______ _______ _____ _____    ______ ____
ROOT
ATOM      1  C   UNL     1      -6.111   4.294 120.009  0.00  0.00    +0.000 C 
ENDROOT
BRANCH   1   2
ATOM      2  C   UNL     1      -5.357   5.554 119.645  0.00  0.00    +0.000 C 
ATOM      3  O   UNL     1      -4.645   6.134 120.458  0.00  0.00    +0.000 OA
BRANCH   2   4
ATOM      4  O   UNL     1      -5.495   6.018 118.390  0.00  0.00    +0.000 OA
ATOM      5  H   UNL     1      -6.397   6.105 118.034  0.00  0.00    +0.000 HD
ENDBRANCH   2   4
ENDBRANCH   1   2
BRANCH   1   6
ATOM      6  C   UNL     1      -5.495   3.454 121.113  0.00  0.00    +0.000 C 
BRANCH   6   7
ATOM      7  C   UNL     1      -6.206   3.639 122.441  0.00  0.00    +0.000 C 
BRANCH   7   8
ATOM      8  O   UNL     1      -5.664   4.795 123.064  0.00  0.00    +0.000 OA
ATOM      9  H   UNL     1      -5.730   5.524 122.423  0.00  0.00    +0.000 HD
ENDBRANCH   7   8
ENDBRANCH   6   7
ENDBRANCH   1   6
TORSDOF 5
ENDMDL
MODEL 2
REMARK VINA RESULT:      -3.8      8.699      9.972
REMARK  Name = gamma-Hydroxybutyric acid
REMARK  5 active torsions:
REMARK  status: ('A' for Active; 'I' for Inactive)
REMARK    1  A    between atoms: O_1  and  C_2
REMARK    2  A    between atoms: C_2  and  C_3
REMARK    3  A    between atoms: C_3  and  C_4
REMARK    4  A    between atoms: C_4  and  C_5
REMARK    5  A    between atoms: C_5  and  O_6
REMARK                            x       y       z     vdW  Elec       q    Type
REMARK                         _______ _______ _______ _____ _____    ______ ____
ROOT
ATOM      1  C   UNL     1     -10.846   8.323 127.577  0.00  0.00    +0.000 C 
ENDROOT
BRANCH   1   2
ATOM      2  C   UNL     1     -10.831   7.097 126.691  0.00  0.00    +0.000 C 
ATOM      3  O   UNL     1      -9.799   6.471 126.479  0.00  0.00    +0.000 OA
BRANCH   2   4
ATOM      4  O   UNL     1     -11.998   6.716 126.140  0.00  0.00    +0.000 OA
ATOM      5  H   UNL     1     -11.979   6.360 125.234  0.00  0.00    +0.000 HD
ENDBRANCH   2   4
ENDBRANCH   1   2
BRANCH   1   6
ATOM      6  C   UNL     1     -11.755   8.246 128.791  0.00  0.00    +0.000 C 
BRANCH   6   7
ATOM      7  C   UNL     1     -13.086   8.937 128.557  0.00  0.00    +0.000 C 
BRANCH   7   8
ATOM      8  O   UNL     1     -12.959  10.281 129.000  0.00  0.00    +0.000 OA
ATOM      9  H   UNL     1     -13.554  10.821 128.452  0.00  0.00    +0.000 HD
ENDBRANCH   7   8
ENDBRANCH   6   7
ENDBRANCH   1   6
TORSDOF 5
ENDMDL
MODEL 3
REMARK VINA RESULT:      -3.8      8.650      9.866
REMARK  Name = gamma-Hydroxybutyric acid
REMARK  5 active torsions:
REMARK  status: ('A' for Active; 'I' for Inactive)
REMARK    1  A    between atoms: O_1  and  C_2
REMARK    2  A    between atoms: C_2  and  C_3
REMARK    3  A    between atoms: C_3  and  C_4
REMARK    4  A    between atoms: C_4  and  C_5
REMARK    5  A    between atoms: C_5  and  O_6
REMARK                            x       y       z     vdW  Elec       q    Type
REMARK                         _______ _______ _______ _____ _____    ______ ____
ROOT
ATOM      1  C   UNL     1     -10.949   8.264 127.707  0.00  0.00    +0.000 C 
ENDROOT
BRANCH   1   2
ATOM      2  C   UNL     1     -11.189   7.618 126.361  0.00  0.00    +0.000 C 
ATOM      3  O   UNL     1     -10.715   8.085 125.331  0.00  0.00    +0.000 OA
BRANCH   2   4
ATOM      4  O   UNL     1     -11.947   6.507 126.333  0.00  0.00    +0.000 OA
ATOM      5  H   UNL     1     -12.309   6.224 125.474  0.00  0.00    +0.000 HD
ENDBRANCH   2   4
ENDBRANCH   1   2
BRANCH   1   6
ATOM      6  C   UNL     1     -12.192   8.719 128.451  0.00  0.00    +0.000 C 
BRANCH   6   7
ATOM      7  C   UNL     1     -12.521   7.816 129.626  0.00  0.00    +0.000 C 
BRANCH   7   8
ATOM      8  O   UNL     1     -13.083   6.619 129.106  0.00  0.00    +0.000 OA
ATOM      9  H   UNL     1     -13.992   6.826 128.828  0.00  0.00    +0.000 HD
ENDBRANCH   7   8
ENDBRANCH   6   7
ENDBRANCH   1   6
TORSDOF 5
ENDMDL
MODEL 4
REMARK VINA RESULT:      -3.7      0.865      3.487
REMARK  Name = gamma-Hydroxybutyric acid
REMARK  5 active torsions:
REMARK  status: ('A' for Active; 'I' for Inactive)
REMARK    1  A    between atoms: O_1  and  C_2
REMARK    2  A    between atoms: C_2  and  C_3
REMARK    3  A    between atoms: C_3  and  C_4
REMARK    4  A    between atoms: C_4  and  C_5
REMARK    5  A    between atoms: C_5  and  O_6
REMARK                            x       y       z     vdW  Elec       q    Type
REMARK                         _______ _______ _______ _____ _____    ______ ____
ROOT
ATOM      1  C   UNL     1      -5.498   3.536 121.074  0.00  0.00    +0.000 C 
ENDROOT
BRANCH   1   2
ATOM      2  C   UNL     1      -5.947   3.657 122.513  0.00  0.00    +0.000 C 
ATOM      3  O   UNL     1      -6.511   2.735 123.090  0.00  0.00    +0.000 OA
BRANCH   2   4
ATOM      4  O   UNL     1      -5.703   4.822 123.142  0.00  0.00    +0.000 OA
ATOM      5  H   UNL     1      -5.557   4.797 124.104  0.00  0.00    +0.000 HD
ENDBRANCH   2   4
ENDBRANCH   1   2
BRANCH   1   6
ATOM      6  C   UNL     1      -6.258   4.388 120.073  0.00  0.00    +0.000 C 
BRANCH   6   7
ATOM      7  C   UNL     1      -5.379   5.452 119.441  0.00  0.00    +0.000 C 
BRANCH   7   8
ATOM      8  O   UNL     1      -4.695   6.125 120.488  0.00  0.00    +0.000 OA
ATOM      9  H   UNL     1      -4.230   6.881 120.089  0.00  0.00    +0.000 HD
ENDBRANCH   7   8
ENDBRANCH   6   7
ENDBRANCH   1   6
TORSDOF 5
ENDMDL
MODEL 5
REMARK VINA RESULT:      -3.6      9.100     10.851
REMARK  Name = gamma-Hydroxybutyric acid
REMARK  5 active torsions:
REMARK  status: ('A' for Active; 'I' for Inactive)
REMARK    1  A    between atoms: O_1  and  C_2
REMARK    2  A    between atoms: C_2  and  C_3
REMARK    3  A    between atoms: C_3  and  C_4
REMARK    4  A    between atoms: C_4  and  C_5
REMARK    5  A    between atoms: C_5  and  O_6
REMARK                            x       y       z     vdW  Elec       q    Type
REMARK                         _______ _______ _______ _____ _____    ______ ____
ROOT
ATOM      1  C   UNL     1     -12.774   7.812 128.258  0.00  0.00    +0.000 C 
ENDROOT
BRANCH   1   2
ATOM      2  C   UNL     1     -12.722   6.853 129.427  0.00  0.00    +0.000 C 
ATOM      3  O   UNL     1     -13.149   7.166 130.533  0.00  0.00    +0.000 OA
BRANCH   2   4
ATOM      4  O   UNL     1     -12.188   5.638 129.209  0.00  0.00    +0.000 OA
ATOM      5  H   UNL     1     -11.846   5.444 128.318  0.00  0.00    +0.000 HD
ENDBRANCH   2   4
ENDBRANCH   1   2
BRANCH   1   6
ATOM      6  C   UNL     1     -11.433   8.342 127.782  0.00  0.00    +0.000 C 
BRANCH   6   7
ATOM      7  C   UNL     1     -10.967   7.662 126.507  0.00  0.00    +0.000 C 
BRANCH   7   8
ATOM      8  O   UNL     1     -11.877   6.611 126.221  0.00  0.00    +0.000 OA
ATOM      9  H   UNL     1     -11.361   5.878 125.843  0.00  0.00    +0.000 HD
ENDBRANCH   7   8
ENDBRANCH   6   7
ENDBRANCH   1   6
TORSDOF 5
ENDMDL
MODEL 6
REMARK VINA RESULT:      -3.3      9.541     10.884
REMARK  Name = gamma-Hydroxybutyric acid
REMARK  5 active torsions:
REMARK  status: ('A' for Active; 'I' for Inactive)
REMARK    1  A    between atoms: O_1  and  C_2
REMARK    2  A    between atoms: C_2  and  C_3
REMARK    3  A    between atoms: C_3  and  C_4
REMARK    4  A    between atoms: C_4  and  C_5
REMARK    5  A    between atoms: C_5  and  O_6
REMARK                            x       y       z     vdW  Elec       q    Type
REMARK                         _______ _______ _______ _____ _____    ______ ____
ROOT
ATOM      1  C   UNL     1     -12.912   7.534 128.654  0.00  0.00    +0.000 C 
ENDROOT
BRANCH   1   2
ATOM      2  C   UNL     1     -11.852   7.651 127.581  0.00  0.00    +0.000 C 
ATOM      3  O   UNL     1     -11.683   6.769 126.746  0.00  0.00    +0.000 OA
BRANCH   2   4
ATOM      4  O   UNL     1     -11.097   8.765 127.574  0.00  0.00    +0.000 OA
ATOM      5  H   UNL     1     -10.777   9.102 128.430  0.00  0.00    +0.000 HD
ENDBRANCH   2   4
ENDBRANCH   1   2
BRANCH   1   6
ATOM      6  C   UNL     1     -12.443   7.800 130.074  0.00  0.00    +0.000 C 
BRANCH   6   7
ATOM      7  C   UNL     1     -11.625   6.650 130.633  0.00  0.00    +0.000 C 
BRANCH   7   8
ATOM      8  O   UNL     1     -12.233   6.240 131.849  0.00  0.00    +0.000 OA
ATOM      9  H   UNL     1     -11.715   5.490 132.191  0.00  0.00    +0.000 HD
ENDBRANCH   7   8
ENDBRANCH   6   7
ENDBRANCH   1   6
TORSDOF 5
ENDMDL
MODEL 7
REMARK VINA RESULT:      -3.3      9.398     10.054
REMARK  Name = gamma-Hydroxybutyric acid
REMARK  5 active torsions:
REMARK  status: ('A' for Active; 'I' for Inactive)
REMARK    1  A    between atoms: O_1  and  C_2
REMARK    2  A    between atoms: C_2  and  C_3
REMARK    3  A    between atoms: C_3  and  C_4
REMARK    4  A    between atoms: C_4  and  C_5
REMARK    5  A    between atoms: C_5  and  O_6
REMARK                            x       y       z     vdW  Elec       q    Type
REMARK                         _______ _______ _______ _____ _____    ______ ____
ROOT
ATOM      1  C   UNL     1     -11.646   6.822 129.496  0.00  0.00    +0.000 C 
ENDROOT
BRANCH   1   2
ATOM      2  C   UNL     1     -10.287   7.085 128.886  0.00  0.00    +0.000 C 
ATOM      3  O   UNL     1      -9.710   8.156 129.041  0.00  0.00    +0.000 OA
BRANCH   2   4
ATOM      4  O   UNL     1      -9.730   6.096 128.162  0.00  0.00    +0.000 OA
ATOM      5  H   UNL     1      -9.540   5.254 128.613  0.00  0.00    +0.000 HD
ENDBRANCH   2   4
ENDBRANCH   1   2
BRANCH   1   6
ATOM      6  C   UNL     1     -12.781   6.614 128.509  0.00  0.00    +0.000 C 
BRANCH   6   7
ATOM      7  C   UNL     1     -12.604   7.441 127.248  0.00  0.00    +0.000 C 
BRANCH   7   8
ATOM      8  O   UNL     1     -12.169   6.567 126.216  0.00  0.00    +0.000 OA
ATOM      9  H   UNL     1     -12.852   6.577 125.524  0.00  0.00    +0.000 HD
ENDBRANCH   7   8
ENDBRANCH   6   7
ENDBRANCH   1   6
TORSDOF 5
ENDMDL
MODEL 8
REMARK VINA RESULT:      -3.2     11.010     11.885
REMARK  Name = gamma-Hydroxybutyric acid
REMARK  5 active torsions:
REMARK  status: ('A' for Active; 'I' for Inactive)
REMARK    1  A    between atoms: O_1  and  C_2
REMARK    2  A    between atoms: C_2  and  C_3
REMARK    3  A    between atoms: C_3  and  C_4
REMARK    4  A    between atoms: C_4  and  C_5
REMARK    5  A    between atoms: C_5  and  O_6
REMARK                            x       y       z     vdW  Elec       q    Type
REMARK                         _______ _______ _______ _____ _____    ______ ____
ROOT
ATOM      1  C   UNL     1     -10.775   7.309 129.916  0.00  0.00    +0.000 C 
ENDROOT
BRANCH   1   2
ATOM      2  C   UNL     1     -11.566   6.081 130.311  0.00  0.00    +0.000 C 
ATOM      3  O   UNL     1     -11.965   5.278 129.475  0.00  0.00    +0.000 OA
BRANCH   2   4
ATOM      4  O   UNL     1     -11.816   5.900 131.621  0.00  0.00    +0.000 OA
ATOM      5  H   UNL     1     -12.543   5.301 131.866  0.00  0.00    +0.000 HD
ENDBRANCH   2   4
ENDBRANCH   1   2
BRANCH   1   6
ATOM      6  C   UNL     1     -11.473   8.262 128.962  0.00  0.00    +0.000 C 
BRANCH   6   7
ATOM      7  C   UNL     1     -12.680   8.928 129.596  0.00  0.00    +0.000 C 
BRANCH   7   8
ATOM      8  O   UNL     1     -12.963  10.105 128.854  0.00  0.00    +0.000 OA
ATOM      9  H   UNL     1     -12.362  10.799 129.175  0.00  0.00    +0.000 HD
ENDBRANCH   7   8
ENDBRANCH   6   7
ENDBRANCH   1   6
TORSDOF 5
ENDMDL
MODEL 9
REMARK VINA RESULT:      -3.2     10.766     12.235
REMARK  Name = gamma-Hydroxybutyric acid
REMARK  5 active torsions:
REMARK  status: ('A' for Active; 'I' for Inactive)
REMARK    1  A    between atoms: O_1  and  C_2
REMARK    2  A    between atoms: C_2  and  C_3
REMARK    3  A    between atoms: C_3  and  C_4
REMARK    4  A    between atoms: C_4  and  C_5
REMARK    5  A    between atoms: C_5  and  O_6
REMARK                            x       y       z     vdW  Elec       q    Type
REMARK                         _______ _______ _______ _____ _____    ______ ____
ROOT
ATOM      1  C   UNL     1     -12.608   7.110 131.079  0.00  0.00    +0.000 C 
ENDROOT
BRANCH   1   2
ATOM      2  C   UNL     1     -11.503   6.247 131.647  0.00  0.00    +0.000 C 
ATOM      3  O   UNL     1     -10.763   6.654 132.535  0.00  0.00    +0.000 OA
BRANCH   2   4
ATOM      4  O   UNL     1     -11.360   5.009 131.139  0.00  0.00    +0.000 OA
ATOM      5  H   UNL     1     -11.708   4.262 131.658  0.00  0.00    +0.000 HD
ENDBRANCH   2   4
ENDBRANCH   1   2
BRANCH   1   6
ATOM      6  C   UNL     1     -12.192   8.073 129.981  0.00  0.00    +0.000 C 
BRANCH   6   7
ATOM      7  C   UNL     1     -11.856   7.357 128.686  0.00  0.00    +0.000 C 
BRANCH   7   8
ATOM      8  O   UNL     1     -12.672   6.197 128.609  0.00  0.00    +0.000 OA
ATOM      9  H   UNL     1     -13.123   6.106 129.466  0.00  0.00    +0.000 HD
ENDBRANCH   7   8
ENDBRANCH   6   7
ENDBRANCH   1   6
TORSDOF 5
ENDMDL
