MODEL 1
REMARK VINA RESULT:      -5.7      0.000      0.000
REMARK  Name = Gamolenic acid
REMARK  15 active torsions:
REMARK  status: ('A' for Active; 'I' for Inactive)
REMARK    1  A    between atoms: C_1  and  C_2
REMARK    2  A    between atoms: C_2  and  C_3
REMARK    3  A    between atoms: C_3  and  C_4
REMARK    4  A    between atoms: C_4  and  C_5
REMARK    5  A    between atoms: C_5  and  C_6
REMARK    6  A    between atoms: C_7  and  C_8
REMARK    7  A    between atoms: C_8  and  C_9
REMARK    8  A    between atoms: C_10  and  C_11
REMARK    9  A    between atoms: C_11  and  C_12
REMARK   10  A    between atoms: C_13  and  C_14
REMARK   11  A    between atoms: C_14  and  C_15
REMARK   12  A    between atoms: C_15  and  C_16
REMARK   13  A    between atoms: C_16  and  C_17
REMARK   14  A    between atoms: C_17  and  C_18
REMARK   15  A    between atoms: C_18  and  O_19
REMARK                            x       y       z     vdW  Elec       q    Type
REMARK                         _______ _______ _______ _____ _____    ______ ____
ROOT
ATOM      1  C   UNL     1      -6.836  -2.779 128.792  0.00  0.00    +0.000 C 
ENDROOT
BRANCH   1   3
ATOM      2  C   UNL     1      -8.993  -3.789 128.087  0.00  0.00    +0.000 C 
ATOM      3  C   UNL     1      -8.179  -3.378 129.073  0.00  0.00    +0.000 C 
BRANCH   2   4
ATOM      4  C   UNL     1      -8.609  -3.673 126.644  0.00  0.00    +0.000 C 
BRANCH   4   6
ATOM      5  C   UNL     1      -8.945  -2.201 124.679  0.00  0.00    +0.000 C 
ATOM      6  C   UNL     1      -9.262  -2.526 125.941  0.00  0.00    +0.000 C 
BRANCH   5   7
ATOM      7  C   UNL     1      -7.919  -2.962 123.890  0.00  0.00    +0.000 C 
BRANCH   7   8
ATOM      8  C   UNL     1      -7.047  -2.036 123.062  0.00  0.00    +0.000 C 
BRANCH   8   9
ATOM      9  C   UNL     1      -5.594  -2.487 123.133  0.00  0.00    +0.000 C 
BRANCH   9  11
ATOM     10  C   UNL     1      -4.262  -4.548 123.591  0.00  0.00    +0.000 C 
ATOM     11  C   UNL     1      -5.468  -3.728 124.004  0.00  0.00    +0.000 C 
ENDBRANCH   9  11
ENDBRANCH   8   9
ENDBRANCH   7   8
ENDBRANCH   5   7
ENDBRANCH   4   6
ENDBRANCH   2   4
ENDBRANCH   1   3
BRANCH   1  12
ATOM     12  C   UNL     1      -6.782  -1.301 129.014  0.00  0.00    +0.000 C 
ATOM     13  C   UNL     1      -6.427  -0.452 128.037  0.00  0.00    +0.000 C 
BRANCH  13  14
ATOM     14  C   UNL     1      -6.061  -0.928 126.663  0.00  0.00    +0.000 C 
BRANCH  14  15
ATOM     15  C   UNL     1      -5.941   0.225 125.680  0.00  0.00    +0.000 C 
BRANCH  15  16
ATOM     16  C   UNL     1      -7.114   1.174 125.880  0.00  0.00    +0.000 C 
BRANCH  16  17
ATOM     17  C   UNL     1      -7.818   1.475 124.569  0.00  0.00    +0.000 C 
BRANCH  17  18
ATOM     18  C   UNL     1      -8.985   2.432 124.666  0.00  0.00    +0.000 C 
ATOM     19  O   UNL     1      -8.828   3.612 124.959  0.00  0.00    +0.000 OA
BRANCH  18  20
ATOM     20  O   UNL     1     -10.213   1.938 124.416  0.00  0.00    +0.000 OA
ATOM     21  H   UNL     1     -10.560   1.258 125.018  0.00  0.00    +0.000 HD
ENDBRANCH  18  20
ENDBRANCH  17  18
ENDBRANCH  16  17
ENDBRANCH  15  16
ENDBRANCH  14  15
ENDBRANCH  13  14
ENDBRANCH   1  12
TORSDOF 14
ENDMDL
MODEL 2
REMARK VINA RESULT:      -5.6      3.134      4.343
REMARK  Name = Gamolenic acid
REMARK  15 active torsions:
REMARK  status: ('A' for Active; 'I' for Inactive)
REMARK    1  A    between atoms: C_1  and  C_2
REMARK    2  A    between atoms: C_2  and  C_3
REMARK    3  A    between atoms: C_3  and  C_4
REMARK    4  A    between atoms: C_4  and  C_5
REMARK    5  A    between atoms: C_5  and  C_6
REMARK    6  A    between atoms: C_7  and  C_8
REMARK    7  A    between atoms: C_8  and  C_9
REMARK    8  A    between atoms: C_10  and  C_11
REMARK    9  A    between atoms: C_11  and  C_12
REMARK   10  A    between atoms: C_13  and  C_14
REMARK   11  A    between atoms: C_14  and  C_15
REMARK   12  A    between atoms: C_15  and  C_16
REMARK   13  A    between atoms: C_16  and  C_17
REMARK   14  A    between atoms: C_17  and  C_18
REMARK   15  A    between atoms: C_18  and  O_19
REMARK                            x       y       z     vdW  Elec       q    Type
REMARK                         _______ _______ _______ _____ _____    ______ ____
ROOT
ATOM      1  C   UNL     1      -6.336   0.676 126.045  0.00  0.00    +0.000 C 
ENDROOT
BRANCH   1   3
ATOM      2  C   UNL     1      -6.021  -1.582 127.031  0.00  0.00    +0.000 C 
ATOM      3  C   UNL     1      -5.520  -0.544 126.343  0.00  0.00    +0.000 C 
BRANCH   2   4
ATOM      4  C   UNL     1      -7.427  -1.584 127.547  0.00  0.00    +0.000 C 
BRANCH   4   6
ATOM      5  C   UNL     1      -8.842  -3.498 126.853  0.00  0.00    +0.000 C 
ATOM      6  C   UNL     1      -7.993  -2.956 127.739  0.00  0.00    +0.000 C 
BRANCH   5   7
ATOM      7  C   UNL     1      -9.279  -2.770 125.615  0.00  0.00    +0.000 C 
BRANCH   7   8
ATOM      8  C   UNL     1      -8.802  -3.468 124.355  0.00  0.00    +0.000 C 
BRANCH   8   9
ATOM      9  C   UNL     1      -7.543  -2.791 123.830  0.00  0.00    +0.000 C 
BRANCH   9  11
ATOM     10  C   UNL     1      -5.066  -2.987 123.588  0.00  0.00    +0.000 C 
ATOM     11  C   UNL     1      -6.321  -3.649 124.122  0.00  0.00    +0.000 C 
ENDBRANCH   9  11
ENDBRANCH   8   9
ENDBRANCH   7   8
ENDBRANCH   5   7
ENDBRANCH   4   6
ENDBRANCH   2   4
ENDBRANCH   1   3
BRANCH   1  12
ATOM     12  C   UNL     1      -6.783   0.763 124.620  0.00  0.00    +0.000 C 
ATOM     13  C   UNL     1      -6.726   1.913 123.931  0.00  0.00    +0.000 C 
BRANCH  13  14
ATOM     14  C   UNL     1      -6.215   3.183 124.541  0.00  0.00    +0.000 C 
BRANCH  14  15
ATOM     15  C   UNL     1      -5.643   4.124 123.492  0.00  0.00    +0.000 C 
BRANCH  15  16
ATOM     16  C   UNL     1      -6.189   3.736 122.126  0.00  0.00    +0.000 C 
BRANCH  16  17
ATOM     17  C   UNL     1      -5.158   3.953 121.032  0.00  0.00    +0.000 C 
BRANCH  17  18
ATOM     18  C   UNL     1      -5.495   5.034 120.030  0.00  0.00    +0.000 C 
ATOM     19  O   UNL     1      -6.336   4.861 119.155  0.00  0.00    +0.000 OA
BRANCH  18  20
ATOM     20  O   UNL     1      -4.834   6.203 120.133  0.00  0.00    +0.000 OA
ATOM     21  H   UNL     1      -5.127   6.941 119.573  0.00  0.00    +0.000 HD
ENDBRANCH  18  20
ENDBRANCH  17  18
ENDBRANCH  16  17
ENDBRANCH  15  16
ENDBRANCH  14  15
ENDBRANCH  13  14
ENDBRANCH   1  12
TORSDOF 14
ENDMDL
MODEL 3
REMARK VINA RESULT:      -5.5      1.482      3.352
REMARK  Name = Gamolenic acid
REMARK  15 active torsions:
REMARK  status: ('A' for Active; 'I' for Inactive)
REMARK    1  A    between atoms: C_1  and  C_2
REMARK    2  A    between atoms: C_2  and  C_3
REMARK    3  A    between atoms: C_3  and  C_4
REMARK    4  A    between atoms: C_4  and  C_5
REMARK    5  A    between atoms: C_5  and  C_6
REMARK    6  A    between atoms: C_7  and  C_8
REMARK    7  A    between atoms: C_8  and  C_9
REMARK    8  A    between atoms: C_10  and  C_11
REMARK    9  A    between atoms: C_11  and  C_12
REMARK   10  A    between atoms: C_13  and  C_14
REMARK   11  A    between atoms: C_14  and  C_15
REMARK   12  A    between atoms: C_15  and  C_16
REMARK   13  A    between atoms: C_16  and  C_17
REMARK   14  A    between atoms: C_17  and  C_18
REMARK   15  A    between atoms: C_18  and  O_19
REMARK                            x       y       z     vdW  Elec       q    Type
REMARK                         _______ _______ _______ _____ _____    ______ ____
ROOT
ATOM      1  C   UNL     1      -8.734  -2.954 125.715  0.00  0.00    +0.000 C 
ENDROOT
BRANCH   1   3
ATOM      2  C   UNL     1      -8.462  -3.477 128.128  0.00  0.00    +0.000 C 
ATOM      3  C   UNL     1      -8.951  -3.811 126.922  0.00  0.00    +0.000 C 
BRANCH   2   4
ATOM      4  C   UNL     1      -7.666  -2.227 128.339  0.00  0.00    +0.000 C 
BRANCH   4   6
ATOM      5  C   UNL     1      -5.347  -1.906 127.523  0.00  0.00    +0.000 C 
ATOM      6  C   UNL     1      -6.190  -2.460 128.407  0.00  0.00    +0.000 C 
BRANCH   5   7
ATOM      7  C   UNL     1      -5.826  -1.018 126.411  0.00  0.00    +0.000 C 
BRANCH   7   8
ATOM      8  C   UNL     1      -5.204  -1.401 125.080  0.00  0.00    +0.000 C 
BRANCH   8   9
ATOM      9  C   UNL     1      -5.269  -2.910 124.890  0.00  0.00    +0.000 C 
BRANCH   9  11
ATOM     10  C   UNL     1      -4.336  -4.757 123.494  0.00  0.00    +0.000 C 
ATOM     11  C   UNL     1      -4.731  -3.294 123.519  0.00  0.00    +0.000 C 
ENDBRANCH   9  11
ENDBRANCH   8   9
ENDBRANCH   7   8
ENDBRANCH   5   7
ENDBRANCH   4   6
ENDBRANCH   2   4
ENDBRANCH   1   3
BRANCH   1  12
ATOM     12  C   UNL     1      -9.579  -3.343 124.544  0.00  0.00    +0.000 C 
ATOM     13  C   UNL     1      -9.312  -2.909 123.303  0.00  0.00    +0.000 C 
BRANCH  13  14
ATOM     14  C   UNL     1      -8.152  -2.006 123.008  0.00  0.00    +0.000 C 
BRANCH  14  15
ATOM     15  C   UNL     1      -8.439  -0.568 123.409  0.00  0.00    +0.000 C 
BRANCH  15  16
ATOM     16  C   UNL     1      -9.689  -0.089 122.685  0.00  0.00    +0.000 C 
BRANCH  16  17
ATOM     17  C   UNL     1     -10.280   1.143 123.348  0.00  0.00    +0.000 C 
BRANCH  17  18
ATOM     18  C   UNL     1      -9.360   2.340 123.426  0.00  0.00    +0.000 C 
ATOM     19  O   UNL     1      -8.709   2.717 122.458  0.00  0.00    +0.000 OA
BRANCH  18  20
ATOM     20  O   UNL     1      -9.280   2.984 124.607  0.00  0.00    +0.000 OA
ATOM     21  H   UNL     1      -9.797   2.632 125.352  0.00  0.00    +0.000 HD
ENDBRANCH  18  20
ENDBRANCH  17  18
ENDBRANCH  16  17
ENDBRANCH  15  16
ENDBRANCH  14  15
ENDBRANCH  13  14
ENDBRANCH   1  12
TORSDOF 14
ENDMDL
MODEL 4
REMARK VINA RESULT:      -5.5      1.481      2.134
REMARK  Name = Gamolenic acid
REMARK  15 active torsions:
REMARK  status: ('A' for Active; 'I' for Inactive)
REMARK    1  A    between atoms: C_1  and  C_2
REMARK    2  A    between atoms: C_2  and  C_3
REMARK    3  A    between atoms: C_3  and  C_4
REMARK    4  A    between atoms: C_4  and  C_5
REMARK    5  A    between atoms: C_5  and  C_6
REMARK    6  A    between atoms: C_7  and  C_8
REMARK    7  A    between atoms: C_8  and  C_9
REMARK    8  A    between atoms: C_10  and  C_11
REMARK    9  A    between atoms: C_11  and  C_12
REMARK   10  A    between atoms: C_13  and  C_14
REMARK   11  A    between atoms: C_14  and  C_15
REMARK   12  A    between atoms: C_15  and  C_16
REMARK   13  A    between atoms: C_16  and  C_17
REMARK   14  A    between atoms: C_17  and  C_18
REMARK   15  A    between atoms: C_18  and  O_19
REMARK                            x       y       z     vdW  Elec       q    Type
REMARK                         _______ _______ _______ _____ _____    ______ ____
ROOT
ATOM      1  C   UNL     1      -7.186  -1.269 127.180  0.00  0.00    +0.000 C 
ENDROOT
BRANCH   1   3
ATOM      2  C   UNL     1      -8.953  -2.939 126.667  0.00  0.00    +0.000 C 
ATOM      3  C   UNL     1      -8.017  -2.471 127.509  0.00  0.00    +0.000 C 
BRANCH   2   4
ATOM      4  C   UNL     1      -9.226  -2.287 125.347  0.00  0.00    +0.000 C 
BRANCH   4   6
ATOM      5  C   UNL     1      -8.743  -3.032 123.033  0.00  0.00    +0.000 C 
ATOM      6  C   UNL     1      -9.341  -3.255 124.212  0.00  0.00    +0.000 C 
BRANCH   5   7
ATOM      7  C   UNL     1      -7.922  -1.803 122.772  0.00  0.00    +0.000 C 
BRANCH   7   8
ATOM      8  C   UNL     1      -6.438  -2.118 122.728  0.00  0.00    +0.000 C 
BRANCH   8   9
ATOM      9  C   UNL     1      -5.784  -1.726 124.046  0.00  0.00    +0.000 C 
BRANCH   9  11
ATOM     10  C   UNL     1      -4.900  -4.034 123.689  0.00  0.00    +0.000 C 
ATOM     11  C   UNL     1      -5.166  -2.948 124.712  0.00  0.00    +0.000 C 
ENDBRANCH   9  11
ENDBRANCH   8   9
ENDBRANCH   7   8
ENDBRANCH   5   7
ENDBRANCH   4   6
ENDBRANCH   2   4
ENDBRANCH   1   3
BRANCH   1  12
ATOM     12  C   UNL     1      -7.318  -0.160 128.176  0.00  0.00    +0.000 C 
ATOM     13  C   UNL     1      -8.103   0.904 127.948  0.00  0.00    +0.000 C 
BRANCH  13  14
ATOM     14  C   UNL     1      -8.897   1.053 126.685  0.00  0.00    +0.000 C 
BRANCH  14  15
ATOM     15  C   UNL     1      -8.239   2.021 125.715  0.00  0.00    +0.000 C 
BRANCH  15  16
ATOM     16  C   UNL     1      -8.133   1.361 124.348  0.00  0.00    +0.000 C 
BRANCH  16  17
ATOM     17  C   UNL     1      -9.155   1.923 123.376  0.00  0.00    +0.000 C 
BRANCH  17  18
ATOM     18  C   UNL     1     -10.435   1.128 123.251  0.00  0.00    +0.000 C 
ATOM     19  O   UNL     1     -10.604   0.318 122.347  0.00  0.00    +0.000 OA
BRANCH  18  20
ATOM     20  O   UNL     1     -11.391   1.344 124.176  0.00  0.00    +0.000 OA
ATOM     21  H   UNL     1     -11.242   2.050 124.827  0.00  0.00    +0.000 HD
ENDBRANCH  18  20
ENDBRANCH  17  18
ENDBRANCH  16  17
ENDBRANCH  15  16
ENDBRANCH  14  15
ENDBRANCH  13  14
ENDBRANCH   1  12
TORSDOF 14
ENDMDL
MODEL 5
REMARK VINA RESULT:      -5.4      3.690      5.188
REMARK  Name = Gamolenic acid
REMARK  15 active torsions:
REMARK  status: ('A' for Active; 'I' for Inactive)
REMARK    1  A    between atoms: C_1  and  C_2
REMARK    2  A    between atoms: C_2  and  C_3
REMARK    3  A    between atoms: C_3  and  C_4
REMARK    4  A    between atoms: C_4  and  C_5
REMARK    5  A    between atoms: C_5  and  C_6
REMARK    6  A    between atoms: C_7  and  C_8
REMARK    7  A    between atoms: C_8  and  C_9
REMARK    8  A    between atoms: C_10  and  C_11
REMARK    9  A    between atoms: C_11  and  C_12
REMARK   10  A    between atoms: C_13  and  C_14
REMARK   11  A    between atoms: C_14  and  C_15
REMARK   12  A    between atoms: C_15  and  C_16
REMARK   13  A    between atoms: C_16  and  C_17
REMARK   14  A    between atoms: C_17  and  C_18
REMARK   15  A    between atoms: C_18  and  O_19
REMARK                            x       y       z     vdW  Elec       q    Type
REMARK                         _______ _______ _______ _____ _____    ______ ____
ROOT
ATOM      1  C   UNL     1      -8.852  -2.669 126.356  0.00  0.00    +0.000 C 
ENDROOT
BRANCH   1   3
ATOM      2  C   UNL     1      -9.222  -3.288 123.979  0.00  0.00    +0.000 C 
ATOM      3  C   UNL     1      -9.109  -3.660 125.264  0.00  0.00    +0.000 C 
BRANCH   2   4
ATOM      4  C   UNL     1      -9.100  -1.857 123.556  0.00  0.00    +0.000 C 
BRANCH   4   6
ATOM      5  C   UNL     1      -6.822  -1.123 122.911  0.00  0.00    +0.000 C 
ATOM      6  C   UNL     1      -8.016  -1.617 122.553  0.00  0.00    +0.000 C 
BRANCH   5   7
ATOM      7  C   UNL     1      -6.493  -0.778 124.335  0.00  0.00    +0.000 C 
BRANCH   7   8
ATOM      8  C   UNL     1      -5.385  -1.658 124.884  0.00  0.00    +0.000 C 
BRANCH   8   9
ATOM      9  C   UNL     1      -5.569  -3.090 124.398  0.00  0.00    +0.000 C 
BRANCH   9  11
ATOM     10  C   UNL     1      -4.305  -5.027 123.457  0.00  0.00    +0.000 C 
ATOM     11  C   UNL     1      -4.380  -3.515 123.549  0.00  0.00    +0.000 C 
ENDBRANCH   9  11
ENDBRANCH   8   9
ENDBRANCH   7   8
ENDBRANCH   5   7
ENDBRANCH   4   6
ENDBRANCH   2   4
ENDBRANCH   1   3
BRANCH   1  12
ATOM     12  C   UNL     1      -8.489  -3.299 127.663  0.00  0.00    +0.000 C 
ATOM     13  C   UNL     1      -7.711  -2.670 128.558  0.00  0.00    +0.000 C 
BRANCH  13  14
ATOM     14  C   UNL     1      -7.155  -1.301 128.308  0.00  0.00    +0.000 C 
BRANCH  14  15
ATOM     15  C   UNL     1      -5.680  -1.216 128.667  0.00  0.00    +0.000 C 
BRANCH  15  16
ATOM     16  C   UNL     1      -5.005  -2.532 128.311  0.00  0.00    +0.000 C 
BRANCH  16  17
ATOM     17  C   UNL     1      -3.842  -2.832 129.241  0.00  0.00    +0.000 C 
BRANCH  17  18
ATOM     18  C   UNL     1      -4.160  -3.749 130.400  0.00  0.00    +0.000 C 
ATOM     19  O   UNL     1      -5.135  -4.493 130.383  0.00  0.00    +0.000 OA
BRANCH  18  20
ATOM     20  O   UNL     1      -3.329  -3.720 131.460  0.00  0.00    +0.000 OA
ATOM     21  H   UNL     1      -3.708  -3.501 132.328  0.00  0.00    +0.000 HD
ENDBRANCH  18  20
ENDBRANCH  17  18
ENDBRANCH  16  17
ENDBRANCH  15  16
ENDBRANCH  14  15
ENDBRANCH  13  14
ENDBRANCH   1  12
TORSDOF 14
ENDMDL
MODEL 6
REMARK VINA RESULT:      -5.3      1.845      2.485
REMARK  Name = Gamolenic acid
REMARK  15 active torsions:
REMARK  status: ('A' for Active; 'I' for Inactive)
REMARK    1  A    between atoms: C_1  and  C_2
REMARK    2  A    between atoms: C_2  and  C_3
REMARK    3  A    between atoms: C_3  and  C_4
REMARK    4  A    between atoms: C_4  and  C_5
REMARK    5  A    between atoms: C_5  and  C_6
REMARK    6  A    between atoms: C_7  and  C_8
REMARK    7  A    between atoms: C_8  and  C_9
REMARK    8  A    between atoms: C_10  and  C_11
REMARK    9  A    between atoms: C_11  and  C_12
REMARK   10  A    between atoms: C_13  and  C_14
REMARK   11  A    between atoms: C_14  and  C_15
REMARK   12  A    between atoms: C_15  and  C_16
REMARK   13  A    between atoms: C_16  and  C_17
REMARK   14  A    between atoms: C_17  and  C_18
REMARK   15  A    between atoms: C_18  and  O_19
REMARK                            x       y       z     vdW  Elec       q    Type
REMARK                         _______ _______ _______ _____ _____    ______ ____
ROOT
ATOM      1  C   UNL     1      -7.917  -1.223 127.812  0.00  0.00    +0.000 C 
ENDROOT
BRANCH   1   3
ATOM      2  C   UNL     1      -8.351  -3.303 126.527  0.00  0.00    +0.000 C 
ATOM      3  C   UNL     1      -7.804  -2.699 127.594  0.00  0.00    +0.000 C 
BRANCH   2   4
ATOM      4  C   UNL     1      -9.112  -2.538 125.489  0.00  0.00    +0.000 C 
BRANCH   4   6
ATOM      5  C   UNL     1      -8.446  -2.580 123.101  0.00  0.00    +0.000 C 
ATOM      6  C   UNL     1      -9.073  -3.166 124.132  0.00  0.00    +0.000 C 
BRANCH   5   7
ATOM      7  C   UNL     1      -7.744  -1.260 123.239  0.00  0.00    +0.000 C 
BRANCH   7   8
ATOM      8  C   UNL     1      -6.324  -1.430 123.745  0.00  0.00    +0.000 C 
BRANCH   8   9
ATOM      9  C   UNL     1      -5.678  -2.643 123.089  0.00  0.00    +0.000 C 
BRANCH   9  11
ATOM     10  C   UNL     1      -4.376  -4.735 123.493  0.00  0.00    +0.000 C 
ATOM     11  C   UNL     1      -5.035  -3.534 124.143  0.00  0.00    +0.000 C 
ENDBRANCH   9  11
ENDBRANCH   8   9
ENDBRANCH   7   8
ENDBRANCH   5   7
ENDBRANCH   4   6
ENDBRANCH   2   4
ENDBRANCH   1   3
BRANCH   1  12
ATOM     12  C   UNL     1      -6.728  -0.454 127.331  0.00  0.00    +0.000 C 
ATOM     13  C   UNL     1      -6.853   0.606 126.517  0.00  0.00    +0.000 C 
BRANCH  13  14
ATOM     14  C   UNL     1      -8.188   1.086 126.035  0.00  0.00    +0.000 C 
BRANCH  14  15
ATOM     15  C   UNL     1      -8.051   2.136 124.944  0.00  0.00    +0.000 C 
BRANCH  15  16
ATOM     16  C   UNL     1      -6.583   2.273 124.567  0.00  0.00    +0.000 C 
BRANCH  16  17
ATOM     17  C   UNL     1      -6.415   2.916 123.202  0.00  0.00    +0.000 C 
BRANCH  17  18
ATOM     18  C   UNL     1      -5.818   4.305 123.210  0.00  0.00    +0.000 C 
ATOM     19  O   UNL     1      -5.068   4.689 122.319  0.00  0.00    +0.000 OA
BRANCH  18  20
ATOM     20  O   UNL     1      -6.142   5.113 124.238  0.00  0.00    +0.000 OA
ATOM     21  H   UNL     1      -6.204   4.717 125.124  0.00  0.00    +0.000 HD
ENDBRANCH  18  20
ENDBRANCH  17  18
ENDBRANCH  16  17
ENDBRANCH  15  16
ENDBRANCH  14  15
ENDBRANCH  13  14
ENDBRANCH   1  12
TORSDOF 14
ENDMDL
MODEL 7
REMARK VINA RESULT:      -5.2      1.546      3.979
REMARK  Name = Gamolenic acid
REMARK  15 active torsions:
REMARK  status: ('A' for Active; 'I' for Inactive)
REMARK    1  A    between atoms: C_1  and  C_2
REMARK    2  A    between atoms: C_2  and  C_3
REMARK    3  A    between atoms: C_3  and  C_4
REMARK    4  A    between atoms: C_4  and  C_5
REMARK    5  A    between atoms: C_5  and  C_6
REMARK    6  A    between atoms: C_7  and  C_8
REMARK    7  A    between atoms: C_8  and  C_9
REMARK    8  A    between atoms: C_10  and  C_11
REMARK    9  A    between atoms: C_11  and  C_12
REMARK   10  A    between atoms: C_13  and  C_14
REMARK   11  A    between atoms: C_14  and  C_15
REMARK   12  A    between atoms: C_15  and  C_16
REMARK   13  A    between atoms: C_16  and  C_17
REMARK   14  A    between atoms: C_17  and  C_18
REMARK   15  A    between atoms: C_18  and  O_19
REMARK                            x       y       z     vdW  Elec       q    Type
REMARK                         _______ _______ _______ _____ _____    ______ ____
ROOT
ATOM      1  C   UNL     1      -5.875  -1.915 125.799  0.00  0.00    +0.000 C 
ENDROOT
BRANCH   1   3
ATOM      2  C   UNL     1      -7.131  -2.600 123.768  0.00  0.00    +0.000 C 
ATOM      3  C   UNL     1      -6.188  -1.831 124.337  0.00  0.00    +0.000 C 
BRANCH   2   4
ATOM      4  C   UNL     1      -7.927  -3.591 124.560  0.00  0.00    +0.000 C 
BRANCH   4   6
ATOM      5  C   UNL     1      -9.509  -3.190 126.425  0.00  0.00    +0.000 C 
ATOM      6  C   UNL     1      -9.187  -3.025 125.134  0.00  0.00    +0.000 C 
BRANCH   5   7
ATOM      7  C   UNL     1      -8.631  -3.949 127.378  0.00  0.00    +0.000 C 
BRANCH   7   8
ATOM      8  C   UNL     1      -8.489  -3.228 128.706  0.00  0.00    +0.000 C 
BRANCH   8   9
ATOM      9  C   UNL     1      -7.024  -3.181 129.119  0.00  0.00    +0.000 C 
BRANCH   9  11
ATOM     10  C   UNL     1      -5.698  -4.561 130.723  0.00  0.00    +0.000 C 
ATOM     11  C   UNL     1      -6.871  -3.612 130.571  0.00  0.00    +0.000 C 
ENDBRANCH   9  11
ENDBRANCH   8   9
ENDBRANCH   7   8
ENDBRANCH   5   7
ENDBRANCH   4   6
ENDBRANCH   2   4
ENDBRANCH   1   3
BRANCH   1  12
ATOM     12  C   UNL     1      -5.385  -0.626 126.380  0.00  0.00    +0.000 C 
ATOM     13  C   UNL     1      -6.211   0.223 127.011  0.00  0.00    +0.000 C 
BRANCH  13  14
ATOM     14  C   UNL     1      -7.674  -0.061 127.175  0.00  0.00    +0.000 C 
BRANCH  14  15
ATOM     15  C   UNL     1      -8.531   1.113 126.731  0.00  0.00    +0.000 C 
BRANCH  15  16
ATOM     16  C   UNL     1      -8.440   1.252 125.218  0.00  0.00    +0.000 C 
BRANCH  16  17
ATOM     17  C   UNL     1      -9.539   0.470 124.520  0.00  0.00    +0.000 C 
BRANCH  17  18
ATOM     18  C   UNL     1      -9.947   0.998 123.164  0.00  0.00    +0.000 C 
ATOM     19  O   UNL     1     -10.723   0.383 122.439  0.00  0.00    +0.000 OA
BRANCH  18  20
ATOM     20  O   UNL     1      -9.426   2.178 122.775  0.00  0.00    +0.000 OA
ATOM     21  H   UNL     1      -8.982   2.216 121.911  0.00  0.00    +0.000 HD
ENDBRANCH  18  20
ENDBRANCH  17  18
ENDBRANCH  16  17
ENDBRANCH  15  16
ENDBRANCH  14  15
ENDBRANCH  13  14
ENDBRANCH   1  12
TORSDOF 14
ENDMDL
MODEL 8
REMARK VINA RESULT:      -5.2      1.494      4.353
REMARK  Name = Gamolenic acid
REMARK  15 active torsions:
REMARK  status: ('A' for Active; 'I' for Inactive)
REMARK    1  A    between atoms: C_1  and  C_2
REMARK    2  A    between atoms: C_2  and  C_3
REMARK    3  A    between atoms: C_3  and  C_4
REMARK    4  A    between atoms: C_4  and  C_5
REMARK    5  A    between atoms: C_5  and  C_6
REMARK    6  A    between atoms: C_7  and  C_8
REMARK    7  A    between atoms: C_8  and  C_9
REMARK    8  A    between atoms: C_10  and  C_11
REMARK    9  A    between atoms: C_11  and  C_12
REMARK   10  A    between atoms: C_13  and  C_14
REMARK   11  A    between atoms: C_14  and  C_15
REMARK   12  A    between atoms: C_15  and  C_16
REMARK   13  A    between atoms: C_16  and  C_17
REMARK   14  A    between atoms: C_17  and  C_18
REMARK   15  A    between atoms: C_18  and  O_19
REMARK                            x       y       z     vdW  Elec       q    Type
REMARK                         _______ _______ _______ _____ _____    ______ ____
ROOT
ATOM      1  C   UNL     1      -7.773  -3.453 124.102  0.00  0.00    +0.000 C 
ENDROOT
BRANCH   1   3
ATOM      2  C   UNL     1      -9.638  -2.880 125.640  0.00  0.00    +0.000 C 
ATOM      3  C   UNL     1      -9.222  -3.243 124.416  0.00  0.00    +0.000 C 
BRANCH   2   4
ATOM      4  C   UNL     1      -8.679  -2.664 126.769  0.00  0.00    +0.000 C 
BRANCH   4   6
ATOM      5  C   UNL     1      -8.231  -3.504 129.058  0.00  0.00    +0.000 C 
ATOM      6  C   UNL     1      -8.785  -3.691 127.851  0.00  0.00    +0.000 C 
BRANCH   5   7
ATOM      7  C   UNL     1      -7.469  -2.257 129.403  0.00  0.00    +0.000 C 
BRANCH   7   8
ATOM      8  C   UNL     1      -5.985  -2.411 129.126  0.00  0.00    +0.000 C 
BRANCH   8   9
ATOM      9  C   UNL     1      -5.249  -2.764 130.412  0.00  0.00    +0.000 C 
BRANCH   9  11
ATOM     10  C   UNL     1      -5.567  -5.182 130.950  0.00  0.00    +0.000 C 
ATOM     11  C   UNL     1      -4.648  -4.159 130.310  0.00  0.00    +0.000 C 
ENDBRANCH   9  11
ENDBRANCH   8   9
ENDBRANCH   7   8
ENDBRANCH   5   7
ENDBRANCH   4   6
ENDBRANCH   2   4
ENDBRANCH   1   3
BRANCH   1  12
ATOM     12  C   UNL     1      -7.201  -2.412 123.194  0.00  0.00    +0.000 C 
ATOM     13  C   UNL     1      -6.221  -1.587 123.593  0.00  0.00    +0.000 C 
BRANCH  13  14
ATOM     14  C   UNL     1      -5.637  -1.652 124.972  0.00  0.00    +0.000 C 
BRANCH  14  15
ATOM     15  C   UNL     1      -5.977  -0.416 125.789  0.00  0.00    +0.000 C 
BRANCH  15  16
ATOM     16  C   UNL     1      -6.850   0.508 124.953  0.00  0.00    +0.000 C 
BRANCH  16  17
ATOM     17  C   UNL     1      -8.159   0.825 125.655  0.00  0.00    +0.000 C 
BRANCH  17  18
ATOM     18  C   UNL     1      -9.326   1.128 124.742  0.00  0.00    +0.000 C 
ATOM     19  O   UNL     1      -9.817   0.269 124.018  0.00  0.00    +0.000 OA
BRANCH  18  20
ATOM     20  O   UNL     1      -9.811   2.384 124.753  0.00  0.00    +0.000 OA
ATOM     21  H   UNL     1      -9.207   3.106 124.509  0.00  0.00    +0.000 HD
ENDBRANCH  18  20
ENDBRANCH  17  18
ENDBRANCH  16  17
ENDBRANCH  15  16
ENDBRANCH  14  15
ENDBRANCH  13  14
ENDBRANCH   1  12
TORSDOF 14
ENDMDL
MODEL 9
REMARK VINA RESULT:      -5.1      7.995     10.079
REMARK  Name = Gamolenic acid
REMARK  15 active torsions:
REMARK  status: ('A' for Active; 'I' for Inactive)
REMARK    1  A    between atoms: C_1  and  C_2
REMARK    2  A    between atoms: C_2  and  C_3
REMARK    3  A    between atoms: C_3  and  C_4
REMARK    4  A    between atoms: C_4  and  C_5
REMARK    5  A    between atoms: C_5  and  C_6
REMARK    6  A    between atoms: C_7  and  C_8
REMARK    7  A    between atoms: C_8  and  C_9
REMARK    8  A    between atoms: C_10  and  C_11
REMARK    9  A    between atoms: C_11  and  C_12
REMARK   10  A    between atoms: C_13  and  C_14
REMARK   11  A    between atoms: C_14  and  C_15
REMARK   12  A    between atoms: C_15  and  C_16
REMARK   13  A    between atoms: C_16  and  C_17
REMARK   14  A    between atoms: C_17  and  C_18
REMARK   15  A    between atoms: C_18  and  O_19
REMARK                            x       y       z     vdW  Elec       q    Type
REMARK                         _______ _______ _______ _____ _____    ______ ____
ROOT
ATOM      1  C   UNL     1     -10.598   5.391 130.484  0.00  0.00    +0.000 C 
ENDROOT
BRANCH   1   3
ATOM      2  C   UNL     1     -10.257   2.994 131.038  0.00  0.00    +0.000 C 
ATOM      3  C   UNL     1     -10.986   3.946 130.434  0.00  0.00    +0.000 C 
BRANCH   2   4
ATOM      4  C   UNL     1      -9.007   3.317 131.797  0.00  0.00    +0.000 C 
BRANCH   4   6
ATOM      5  C   UNL     1      -8.216   3.720 134.111  0.00  0.00    +0.000 C 
ATOM      6  C   UNL     1      -9.193   3.328 133.281  0.00  0.00    +0.000 C 
BRANCH   5   7
ATOM      7  C   UNL     1      -6.875   4.173 133.609  0.00  0.00    +0.000 C 
BRANCH   7   8
ATOM      8  C   UNL     1      -6.800   5.685 133.493  0.00  0.00    +0.000 C 
BRANCH   8   9
ATOM      9  C   UNL     1      -5.610   6.083 132.630  0.00  0.00    +0.000 C 
BRANCH   9  11
ATOM     10  C   UNL     1      -7.430   6.908 131.133  0.00  0.00    +0.000 C 
ATOM     11  C   UNL     1      -6.049   6.285 131.187  0.00  0.00    +0.000 C 
ENDBRANCH   9  11
ENDBRANCH   8   9
ENDBRANCH   7   8
ENDBRANCH   5   7
ENDBRANCH   4   6
ENDBRANCH   2   4
ENDBRANCH   1   3
BRANCH   1  12
ATOM     12  C   UNL     1     -11.128   6.112 131.683  0.00  0.00    +0.000 C 
ATOM     13  C   UNL     1     -12.170   6.953 131.598  0.00  0.00    +0.000 C 
BRANCH  13  14
ATOM     14  C   UNL     1     -12.869   7.228 130.301  0.00  0.00    +0.000 C 
BRANCH  14  15
ATOM     15  C   UNL     1     -12.701   8.673 129.863  0.00  0.00    +0.000 C 
BRANCH  15  16
ATOM     16  C   UNL     1     -12.955   8.773 128.366  0.00  0.00    +0.000 C 
BRANCH  16  17
ATOM     17  C   UNL     1     -12.491   7.524 127.637  0.00  0.00    +0.000 C 
BRANCH  17  18
ATOM     18  C   UNL     1     -11.115   7.611 127.017  0.00  0.00    +0.000 C 
ATOM     19  O   UNL     1     -10.956   7.614 125.801  0.00  0.00    +0.000 OA
BRANCH  18  20
ATOM     20  O   UNL     1     -10.062   7.685 127.853  0.00  0.00    +0.000 OA
ATOM     21  H   UNL     1     -10.205   7.448 128.785  0.00  0.00    +0.000 HD
ENDBRANCH  18  20
ENDBRANCH  17  18
ENDBRANCH  16  17
ENDBRANCH  15  16
ENDBRANCH  14  15
ENDBRANCH  13  14
ENDBRANCH   1  12
TORSDOF 14
ENDMDL
