MODEL 1
REMARK VINA RESULT:      -8.9      0.000      0.000
REMARK  Name = Ganaxolone
REMARK  6 active torsions:
REMARK  status: ('A' for Active; 'I' for Inactive)
REMARK    1  A    between atoms: C_5  and  C_6
REMARK    2  A    between atoms: C_6  and  C_7
REMARK    3  A    between atoms: C_9  and  C_10
REMARK    4  A    between atoms: C_22  and  C_23
REMARK    5  A    between atoms: C_22  and  O_24
REMARK    6  A    between atoms: C_27  and  C_28
REMARK                            x       y       z     vdW  Elec       q    Type
REMARK                         _______ _______ _______ _____ _____    ______ ____
ROOT
ATOM      1  C   UNL     1      -8.538  -3.380 125.795  0.00  0.00    +0.000 C 
ATOM      2  C   UNL     1      -9.648  -2.484 125.843  0.00  0.00    +0.000 C 
ATOM      3  C   UNL     1      -8.383  -1.705 125.647  0.00  0.00    +0.000 C 
ATOM      4  C   UNL     1      -6.787  -2.837 125.100  0.00  0.00    +0.000 C 
ATOM      5  C   UNL     1      -7.793  -2.478 124.351  0.00  0.00    +0.000 C 
ATOM      6  C   UNL     1      -8.431  -2.961 123.093  0.00  0.00    +0.000 C 
ATOM      7  C   UNL     1      -6.698  -0.960 124.646  0.00  0.00    +0.000 C 
ATOM      8  C   UNL     1      -5.934  -1.080 126.175  0.00  0.00    +0.000 C 
ATOM      9  C   UNL     1      -6.814  -1.741 127.444  0.00  0.00    +0.000 C 
ATOM     10  C   UNL     1      -7.572  -3.169 127.291  0.00  0.00    +0.000 C 
ATOM     11  C   UNL     1      -8.469  -3.452 128.481  0.00  0.00    +0.000 C 
ATOM     12  C   UNL     1      -7.754  -3.318 129.810  0.00  0.00    +0.000 C 
ATOM     13  C   UNL     1      -7.049  -2.001 130.007  0.00  0.00    +0.000 C 
ATOM     14  C   UNL     1      -7.981  -0.845 130.271  0.00  0.00    +0.000 C 
ATOM     15  C   UNL     1      -6.984   0.602 130.477  0.00  0.00    +0.000 C 
ATOM     16  C   UNL     1      -6.216   1.934 129.308  0.00  0.00    +0.000 C 
ATOM     17  C   UNL     1      -7.763   1.003 129.394  0.00  0.00    +0.000 C 
ATOM     18  C   UNL     1      -6.195  -0.118 128.892  0.00  0.00    +0.000 C 
ATOM     19  C   UNL     1      -6.209  -1.629 128.796  0.00  0.00    +0.000 C 
ATOM     20  C   UNL     1      -4.913  -2.450 128.751  0.00  0.00    +0.000 C 
ENDROOT
BRANCH   4  21
ATOM     21  C   UNL     1      -5.647  -3.116 123.787  0.00  0.00    +0.000 C 
ATOM     22  C   UNL     1      -4.678  -4.330 123.726  0.00  0.00    +0.000 C 
ATOM     23  O   UNL     1      -5.617  -2.351 122.812  0.00  0.00    +0.000 OA
ENDBRANCH   4  21
BRANCH  15  24
ATOM     24  O   UNL     1      -6.762   0.930 131.787  0.00  0.00    +0.000 OA
ATOM     25  H   UNL     1      -6.995   0.168 132.338  0.00  0.00    +0.000 HD
ENDBRANCH  15  24
TORSDOF 2
ENDMDL
MODEL 2
REMARK VINA RESULT:      -8.6      1.634      5.908
REMARK  Name = Ganaxolone
REMARK  6 active torsions:
REMARK  status: ('A' for Active; 'I' for Inactive)
REMARK    1  A    between atoms: C_5  and  C_6
REMARK    2  A    between atoms: C_6  and  C_7
REMARK    3  A    between atoms: C_9  and  C_10
REMARK    4  A    between atoms: C_22  and  C_23
REMARK    5  A    between atoms: C_22  and  O_24
REMARK    6  A    between atoms: C_27  and  C_28
REMARK                            x       y       z     vdW  Elec       q    Type
REMARK                         _______ _______ _______ _____ _____    ______ ____
ROOT
ATOM      1  C   UNL     1      -8.020  -1.999 129.300  0.00  0.00    +0.000 C 
ATOM      2  C   UNL     1      -8.538  -3.260 128.880  0.00  0.00    +0.000 C 
ATOM      3  C   UNL     1      -7.053  -3.238 128.684  0.00  0.00    +0.000 C 
ATOM      4  C   UNL     1      -6.110  -1.718 129.647  0.00  0.00    +0.000 C 
ATOM      5  C   UNL     1      -6.594  -2.807 130.176  0.00  0.00    +0.000 C 
ATOM      6  C   UNL     1      -7.040  -3.245 131.530  0.00  0.00    +0.000 C 
ATOM      7  C   UNL     1      -5.024  -3.257 129.216  0.00  0.00    +0.000 C 
ATOM      8  C   UNL     1      -4.830  -2.195 127.885  0.00  0.00    +0.000 C 
ATOM      9  C   UNL     1      -6.209  -1.707 127.060  0.00  0.00    +0.000 C 
ATOM     10  C   UNL     1      -7.489  -1.091 127.848  0.00  0.00    +0.000 C 
ATOM     11  C   UNL     1      -8.682  -0.927 126.926  0.00  0.00    +0.000 C 
ATOM     12  C   UNL     1      -8.356  -0.156 125.662  0.00  0.00    +0.000 C 
ATOM     13  C   UNL     1      -7.185  -0.700 124.887  0.00  0.00    +0.000 C 
ATOM     14  C   UNL     1      -7.485  -1.985 124.153  0.00  0.00    +0.000 C 
ATOM     15  C   UNL     1      -6.009  -2.467 123.305  0.00  0.00    +0.000 C 
ATOM     16  C   UNL     1      -4.430  -3.488 123.744  0.00  0.00    +0.000 C 
ATOM     17  C   UNL     1      -6.196  -3.587 124.112  0.00  0.00    +0.000 C 
ATOM     18  C   UNL     1      -5.284  -2.074 125.030  0.00  0.00    +0.000 C 
ATOM     19  C   UNL     1      -5.992  -0.971 125.788  0.00  0.00    +0.000 C 
ATOM     20  C   UNL     1      -5.282   0.335 126.169  0.00  0.00    +0.000 C 
ENDROOT
BRANCH   4  21
ATOM     21  C   UNL     1      -4.949  -1.369 130.924  0.00  0.00    +0.000 C 
ATOM     22  C   UNL     1      -3.516  -1.967 130.977  0.00  0.00    +0.000 C 
ATOM     23  O   UNL     1      -5.235  -0.568 131.826  0.00  0.00    +0.000 OA
ENDBRANCH   4  21
BRANCH  15  24
ATOM     24  O   UNL     1      -6.001  -2.116 121.983  0.00  0.00    +0.000 OA
ATOM     25  H   UNL     1      -5.082  -2.087 121.678  0.00  0.00    +0.000 HD
ENDBRANCH  15  24
TORSDOF 2
ENDMDL
MODEL 3
REMARK VINA RESULT:      -8.2      2.022      3.554
REMARK  Name = Ganaxolone
REMARK  6 active torsions:
REMARK  status: ('A' for Active; 'I' for Inactive)
REMARK    1  A    between atoms: C_5  and  C_6
REMARK    2  A    between atoms: C_6  and  C_7
REMARK    3  A    between atoms: C_9  and  C_10
REMARK    4  A    between atoms: C_22  and  C_23
REMARK    5  A    between atoms: C_22  and  O_24
REMARK    6  A    between atoms: C_27  and  C_28
REMARK                            x       y       z     vdW  Elec       q    Type
REMARK                         _______ _______ _______ _____ _____    ______ ____
ROOT
ATOM      1  C   UNL     1      -7.539   1.046 126.563  0.00  0.00    +0.000 C 
ATOM      2  C   UNL     1      -6.320   1.738 126.831  0.00  0.00    +0.000 C 
ATOM      3  C   UNL     1      -6.014   0.358 126.333  0.00  0.00    +0.000 C 
ATOM      4  C   UNL     1      -7.597  -0.586 125.476  0.00  0.00    +0.000 C 
ATOM      5  C   UNL     1      -6.878   0.374 124.962  0.00  0.00    +0.000 C 
ATOM      6  C   UNL     1      -7.050   1.401 123.895  0.00  0.00    +0.000 C 
ATOM      7  C   UNL     1      -5.845  -1.215 124.956  0.00  0.00    +0.000 C 
ATOM      8  C   UNL     1      -6.295  -2.208 126.278  0.00  0.00    +0.000 C 
ATOM      9  C   UNL     1      -6.675  -1.458 127.732  0.00  0.00    +0.000 C 
ATOM     10  C   UNL     1      -7.746  -0.239 127.797  0.00  0.00    +0.000 C 
ATOM     11  C   UNL     1      -7.762   0.414 129.166  0.00  0.00    +0.000 C 
ATOM     12  C   UNL     1      -7.948  -0.579 130.296  0.00  0.00    +0.000 C 
ATOM     13  C   UNL     1      -6.965  -1.721 130.288  0.00  0.00    +0.000 C 
ATOM     14  C   UNL     1      -5.573  -1.329 130.719  0.00  0.00    +0.000 C 
ATOM     15  C   UNL     1      -4.569  -2.783 130.652  0.00  0.00    +0.000 C 
ATOM     16  C   UNL     1      -3.526  -3.685 129.300  0.00  0.00    +0.000 C 
ATOM     17  C   UNL     1      -3.872  -1.972 129.759  0.00  0.00    +0.000 C 
ATOM     18  C   UNL     1      -5.437  -2.903 128.953  0.00  0.00    +0.000 C 
ATOM     19  C   UNL     1      -6.844  -2.348 128.910  0.00  0.00    +0.000 C 
ATOM     20  C   UNL     1      -8.057  -3.235 128.600  0.00  0.00    +0.000 C 
ENDROOT
BRANCH   4  21
ATOM     21  C   UNL     1      -8.186  -1.238 123.950  0.00  0.00    +0.000 C 
ATOM     22  C   UNL     1      -7.285  -1.977 122.921  0.00  0.00    +0.000 C 
ATOM     23  O   UNL     1      -9.389  -1.169 123.664  0.00  0.00    +0.000 OA
ENDBRANCH   4  21
BRANCH  15  24
ATOM     24  O   UNL     1      -4.403  -3.389 131.867  0.00  0.00    +0.000 OA
ATOM     25  H   UNL     1      -4.810  -4.267 131.832  0.00  0.00    +0.000 HD
ENDBRANCH  15  24
TORSDOF 2
ENDMDL
MODEL 4
REMARK VINA RESULT:      -8.1      2.924      4.794
REMARK  Name = Ganaxolone
REMARK  6 active torsions:
REMARK  status: ('A' for Active; 'I' for Inactive)
REMARK    1  A    between atoms: C_5  and  C_6
REMARK    2  A    between atoms: C_6  and  C_7
REMARK    3  A    between atoms: C_9  and  C_10
REMARK    4  A    between atoms: C_22  and  C_23
REMARK    5  A    between atoms: C_22  and  O_24
REMARK    6  A    between atoms: C_27  and  C_28
REMARK                            x       y       z     vdW  Elec       q    Type
REMARK                         _______ _______ _______ _____ _____    ______ ____
ROOT
ATOM      1  C   UNL     1      -7.418  -1.229 123.748  0.00  0.00    +0.000 C 
ATOM      2  C   UNL     1      -6.053  -1.356 123.350  0.00  0.00    +0.000 C 
ATOM      3  C   UNL     1      -6.144  -1.390 124.845  0.00  0.00    +0.000 C 
ATOM      4  C   UNL     1      -8.024  -1.685 125.557  0.00  0.00    +0.000 C 
ATOM      5  C   UNL     1      -7.236  -2.574 125.017  0.00  0.00    +0.000 C 
ATOM      6  C   UNL     1      -7.396  -3.898 124.351  0.00  0.00    +0.000 C 
ATOM      7  C   UNL     1      -6.577  -2.162 126.746  0.00  0.00    +0.000 C 
ATOM      8  C   UNL     1      -6.957  -0.540 127.144  0.00  0.00    +0.000 C 
ATOM      9  C   UNL     1      -6.881   0.609 125.920  0.00  0.00    +0.000 C 
ATOM     10  C   UNL     1      -7.642   0.382 124.503  0.00  0.00    +0.000 C 
ATOM     11  C   UNL     1      -7.254   1.441 123.489  0.00  0.00    +0.000 C 
ATOM     12  C   UNL     1      -7.417   2.854 124.012  0.00  0.00    +0.000 C 
ATOM     13  C   UNL     1      -6.714   3.118 125.318  0.00  0.00    +0.000 C 
ATOM     14  C   UNL     1      -5.214   3.225 125.191  0.00  0.00    +0.000 C 
ATOM     15  C   UNL     1      -4.567   3.537 126.807  0.00  0.00    +0.000 C 
ATOM     16  C   UNL     1      -4.018   2.458 128.312  0.00  0.00    +0.000 C 
ATOM     17  C   UNL     1      -3.905   2.347 126.512  0.00  0.00    +0.000 C 
ATOM     18  C   UNL     1      -5.755   2.093 127.202  0.00  0.00    +0.000 C 
ATOM     19  C   UNL     1      -6.998   2.029 126.339  0.00  0.00    +0.000 C 
ATOM     20  C   UNL     1      -8.405   2.182 126.931  0.00  0.00    +0.000 C 
ENDROOT
BRANCH   4  21
ATOM     21  C   UNL     1      -9.022  -2.820 126.461  0.00  0.00    +0.000 C 
ATOM     22  C   UNL     1      -8.591  -3.469 127.806  0.00  0.00    +0.000 C 
ATOM     23  O   UNL     1     -10.160  -3.106 126.062  0.00  0.00    +0.000 OA
ENDBRANCH   4  21
BRANCH  15  24
ATOM     24  O   UNL     1      -4.296   4.857 127.041  0.00  0.00    +0.000 OA
ATOM     25  H   UNL     1      -3.501   4.915 127.591  0.00  0.00    +0.000 HD
ENDBRANCH  15  24
TORSDOF 2
ENDMDL
MODEL 5
REMARK VINA RESULT:      -7.9      5.423      9.386
REMARK  Name = Ganaxolone
REMARK  6 active torsions:
REMARK  status: ('A' for Active; 'I' for Inactive)
REMARK    1  A    between atoms: C_5  and  C_6
REMARK    2  A    between atoms: C_6  and  C_7
REMARK    3  A    between atoms: C_9  and  C_10
REMARK    4  A    between atoms: C_22  and  C_23
REMARK    5  A    between atoms: C_22  and  O_24
REMARK    6  A    between atoms: C_27  and  C_28
REMARK                            x       y       z     vdW  Elec       q    Type
REMARK                         _______ _______ _______ _____ _____    ______ ____
ROOT
ATOM      1  C   UNL     1      -2.306   5.870 129.390  0.00  0.00    +0.000 C 
ATOM      2  C   UNL     1      -2.405   6.957 128.471  0.00  0.00    +0.000 C 
ATOM      3  C   UNL     1      -3.770   6.602 128.976  0.00  0.00    +0.000 C 
ATOM      4  C   UNL     1      -3.764   5.404 130.616  0.00  0.00    +0.000 C 
ATOM      5  C   UNL     1      -3.492   6.679 130.570  0.00  0.00    +0.000 C 
ATOM      6  C   UNL     1      -2.747   7.657 131.414  0.00  0.00    +0.000 C 
ATOM      7  C   UNL     1      -5.359   6.458 130.337  0.00  0.00    +0.000 C 
ATOM      8  C   UNL     1      -5.678   4.963 129.561  0.00  0.00    +0.000 C 
ATOM      9  C   UNL     1      -4.615   4.457 128.363  0.00  0.00    +0.000 C 
ATOM     10  C   UNL     1      -3.012   4.411 128.621  0.00  0.00    +0.000 C 
ATOM     11  C   UNL     1      -2.251   4.132 127.340  0.00  0.00    +0.000 C 
ATOM     12  C   UNL     1      -2.752   2.905 126.605  0.00  0.00    +0.000 C 
ATOM     13  C   UNL     1      -4.232   2.909 126.327  0.00  0.00    +0.000 C 
ATOM     14  C   UNL     1      -4.643   3.863 125.232  0.00  0.00    +0.000 C 
ATOM     15  C   UNL     1      -6.397   3.730 125.045  0.00  0.00    +0.000 C 
ATOM     16  C   UNL     1      -7.944   4.544 125.864  0.00  0.00    +0.000 C 
ATOM     17  C   UNL     1      -6.295   5.082 125.360  0.00  0.00    +0.000 C 
ATOM     18  C   UNL     1      -6.280   3.879 126.946  0.00  0.00    +0.000 C 
ATOM     19  C   UNL     1      -5.035   3.278 127.563  0.00  0.00    +0.000 C 
ATOM     20  C   UNL     1      -5.105   2.101 128.546  0.00  0.00    +0.000 C 
ENDROOT
BRANCH   4  21
ATOM     21  C   UNL     1      -4.205   5.352 132.321  0.00  0.00    +0.000 C 
ATOM     22  C   UNL     1      -5.549   5.895 132.883  0.00  0.00    +0.000 C 
ATOM     23  O   UNL     1      -3.451   4.817 133.145  0.00  0.00    +0.000 OA
ENDBRANCH   4  21
BRANCH  15  24
ATOM     24  O   UNL     1      -6.775   2.920 124.008  0.00  0.00    +0.000 OA
ATOM     25  H   UNL     1      -7.615   3.247 123.653  0.00  0.00    +0.000 HD
ENDBRANCH  15  24
TORSDOF 2
ENDMDL
MODEL 6
REMARK VINA RESULT:      -7.9      1.940      5.805
REMARK  Name = Ganaxolone
REMARK  6 active torsions:
REMARK  status: ('A' for Active; 'I' for Inactive)
REMARK    1  A    between atoms: C_5  and  C_6
REMARK    2  A    between atoms: C_6  and  C_7
REMARK    3  A    between atoms: C_9  and  C_10
REMARK    4  A    between atoms: C_22  and  C_23
REMARK    5  A    between atoms: C_22  and  O_24
REMARK    6  A    between atoms: C_27  and  C_28
REMARK                            x       y       z     vdW  Elec       q    Type
REMARK                         _______ _______ _______ _____ _____    ______ ____
ROOT
ATOM      1  C   UNL     1      -6.941  -0.361 130.390  0.00  0.00    +0.000 C 
ATOM      2  C   UNL     1      -8.204  -0.972 130.655  0.00  0.00    +0.000 C 
ATOM      3  C   UNL     1      -7.336  -1.925 129.891  0.00  0.00    +0.000 C 
ATOM      4  C   UNL     1      -5.374  -1.402 129.838  0.00  0.00    +0.000 C 
ATOM      5  C   UNL     1      -6.027  -1.913 130.845  0.00  0.00    +0.000 C 
ATOM      6  C   UNL     1      -5.862  -1.966 132.326  0.00  0.00    +0.000 C 
ATOM      7  C   UNL     1      -5.765  -3.272 129.550  0.00  0.00    +0.000 C 
ATOM      8  C   UNL     1      -5.728  -2.584 127.981  0.00  0.00    +0.000 C 
ATOM      9  C   UNL     1      -6.767  -1.304 127.659  0.00  0.00    +0.000 C 
ATOM     10  C   UNL     1      -6.837  -0.008 128.635  0.00  0.00    +0.000 C 
ATOM     11  C   UNL     1      -7.989   0.905 128.264  0.00  0.00    +0.000 C 
ATOM     12  C   UNL     1      -7.998   1.287 126.797  0.00  0.00    +0.000 C 
ATOM     13  C   UNL     1      -7.951   0.116 125.850  0.00  0.00    +0.000 C 
ATOM     14  C   UNL     1      -9.247  -0.652 125.767  0.00  0.00    +0.000 C 
ATOM     15  C   UNL     1      -9.006  -1.974 124.617  0.00  0.00    +0.000 C 
ATOM     16  C   UNL     1      -8.338  -3.784 124.706  0.00  0.00    +0.000 C 
ATOM     17  C   UNL     1      -9.342  -2.706 125.753  0.00  0.00    +0.000 C 
ATOM     18  C   UNL     1      -7.427  -2.168 125.676  0.00  0.00    +0.000 C 
ATOM     19  C   UNL     1      -6.869  -0.878 126.239  0.00  0.00    +0.000 C 
ATOM     20  C   UNL     1      -5.478  -0.359 125.852  0.00  0.00    +0.000 C 
ENDROOT
BRANCH   4  21
ATOM     21  C   UNL     1      -3.769  -1.910 130.357  0.00  0.00    +0.000 C 
ATOM     22  C   UNL     1      -2.925  -2.990 129.624  0.00  0.00    +0.000 C 
ATOM     23  O   UNL     1      -3.226  -1.366 131.328  0.00  0.00    +0.000 OA
ENDBRANCH   4  21
BRANCH  15  24
ATOM     24  O   UNL     1      -9.486  -1.702 123.365  0.00  0.00    +0.000 OA
ATOM     25  H   UNL     1      -8.911  -2.132 122.715  0.00  0.00    +0.000 HD
ENDBRANCH  15  24
TORSDOF 2
ENDMDL
MODEL 7
REMARK VINA RESULT:      -7.9      5.909      9.204
REMARK  Name = Ganaxolone
REMARK  6 active torsions:
REMARK  status: ('A' for Active; 'I' for Inactive)
REMARK    1  A    between atoms: C_5  and  C_6
REMARK    2  A    between atoms: C_6  and  C_7
REMARK    3  A    between atoms: C_9  and  C_10
REMARK    4  A    between atoms: C_22  and  C_23
REMARK    5  A    between atoms: C_22  and  O_24
REMARK    6  A    between atoms: C_27  and  C_28
REMARK                            x       y       z     vdW  Elec       q    Type
REMARK                         _______ _______ _______ _____ _____    ______ ____
ROOT
ATOM      1  C   UNL     1      -6.951   6.443 131.986  0.00  0.00    +0.000 C 
ATOM      2  C   UNL     1      -7.275   7.163 130.797  0.00  0.00    +0.000 C 
ATOM      3  C   UNL     1      -7.411   5.693 130.545  0.00  0.00    +0.000 C 
ATOM      4  C   UNL     1      -7.439   4.560 132.231  0.00  0.00    +0.000 C 
ATOM      5  C   UNL     1      -8.403   5.305 131.766  0.00  0.00    +0.000 C 
ATOM      6  C   UNL     1      -9.624   5.961 132.315  0.00  0.00    +0.000 C 
ATOM      7  C   UNL     1      -8.246   3.772 130.662  0.00  0.00    +0.000 C 
ATOM      8  C   UNL     1      -6.619   3.236 130.636  0.00  0.00    +0.000 C 
ATOM      9  C   UNL     1      -5.407   4.400 130.635  0.00  0.00    +0.000 C 
ATOM     10  C   UNL     1      -5.389   5.599 131.731  0.00  0.00    +0.000 C 
ATOM     11  C   UNL     1      -4.335   6.638 131.401  0.00  0.00    +0.000 C 
ATOM     12  C   UNL     1      -2.960   6.040 131.177  0.00  0.00    +0.000 C 
ATOM     13  C   UNL     1      -2.922   4.933 130.156  0.00  0.00    +0.000 C 
ATOM     14  C   UNL     1      -3.061   5.415 128.732  0.00  0.00    +0.000 C 
ATOM     15  C   UNL     1      -2.992   3.991 127.683  0.00  0.00    +0.000 C 
ATOM     16  C   UNL     1      -4.263   2.703 127.010  0.00  0.00    +0.000 C 
ATOM     17  C   UNL     1      -4.249   4.480 127.337  0.00  0.00    +0.000 C 
ATOM     18  C   UNL     1      -4.240   3.375 128.992  0.00  0.00    +0.000 C 
ATOM     19  C   UNL     1      -4.025   3.914 130.391  0.00  0.00    +0.000 C 
ATOM     20  C   UNL     1      -3.683   2.995 131.570  0.00  0.00    +0.000 C 
ENDROOT
BRANCH   4  21
ATOM     21  C   UNL     1      -8.456   3.483 133.184  0.00  0.00    +0.000 C 
ATOM     22  C   UNL     1      -9.175   2.234 132.603  0.00  0.00    +0.000 C 
ATOM     23  O   UNL     1      -8.593   3.669 134.402  0.00  0.00    +0.000 OA
ENDBRANCH   4  21
BRANCH  15  24
ATOM     24  O   UNL     1      -1.758   3.782 127.129  0.00  0.00    +0.000 OA
ATOM     25  H   UNL     1      -1.414   2.938 127.454  0.00  0.00    +0.000 HD
ENDBRANCH  15  24
TORSDOF 2
ENDMDL
MODEL 8
REMARK VINA RESULT:      -7.8      6.866      9.773
REMARK  Name = Ganaxolone
REMARK  6 active torsions:
REMARK  status: ('A' for Active; 'I' for Inactive)
REMARK    1  A    between atoms: C_5  and  C_6
REMARK    2  A    between atoms: C_6  and  C_7
REMARK    3  A    between atoms: C_9  and  C_10
REMARK    4  A    between atoms: C_22  and  C_23
REMARK    5  A    between atoms: C_22  and  O_24
REMARK    6  A    between atoms: C_27  and  C_28
REMARK                            x       y       z     vdW  Elec       q    Type
REMARK                         _______ _______ _______ _____ _____    ______ ____
ROOT
ATOM      1  C   UNL     1      -5.781   3.765 129.793  0.00  0.00    +0.000 C 
ATOM      2  C   UNL     1      -5.236   2.855 130.749  0.00  0.00    +0.000 C 
ATOM      3  C   UNL     1      -5.739   4.079 131.452  0.00  0.00    +0.000 C 
ATOM      4  C   UNL     1      -6.946   5.253 130.315  0.00  0.00    +0.000 C 
ATOM      5  C   UNL     1      -7.252   4.115 130.873  0.00  0.00    +0.000 C 
ATOM      6  C   UNL     1      -8.273   3.048 130.664  0.00  0.00    +0.000 C 
ATOM      7  C   UNL     1      -7.140   5.433 132.230  0.00  0.00    +0.000 C 
ATOM      8  C   UNL     1      -5.992   6.626 131.790  0.00  0.00    +0.000 C 
ATOM      9  C   UNL     1      -4.603   6.125 130.988  0.00  0.00    +0.000 C 
ATOM     10  C   UNL     1      -4.686   5.180 129.670  0.00  0.00    +0.000 C 
ATOM     11  C   UNL     1      -3.314   4.686 129.254  0.00  0.00    +0.000 C 
ATOM     12  C   UNL     1      -2.300   5.803 129.101  0.00  0.00    +0.000 C 
ATOM     13  C   UNL     1      -2.175   6.697 130.307  0.00  0.00    +0.000 C 
ATOM     14  C   UNL     1      -1.454   6.057 131.468  0.00  0.00    +0.000 C 
ATOM     15  C   UNL     1      -1.400   7.245 132.778  0.00  0.00    +0.000 C 
ATOM     16  C   UNL     1      -2.565   7.759 134.230  0.00  0.00    +0.000 C 
ATOM     17  C   UNL     1      -2.089   6.217 133.417  0.00  0.00    +0.000 C 
ATOM     18  C   UNL     1      -3.242   7.381 132.286  0.00  0.00    +0.000 C 
ATOM     19  C   UNL     1      -3.535   7.143 130.819  0.00  0.00    +0.000 C 
ATOM     20  C   UNL     1      -4.129   8.237 129.923  0.00  0.00    +0.000 C 
ENDROOT
BRANCH   4  21
ATOM     21  C   UNL     1      -8.593   5.863 130.182  0.00  0.00    +0.000 C 
ATOM     22  C   UNL     1      -9.386   6.479 131.368  0.00  0.00    +0.000 C 
ATOM     23  O   UNL     1      -9.171   5.865 129.086  0.00  0.00    +0.000 OA
ENDBRANCH   4  21
BRANCH  15  24
ATOM     24  O   UNL     1      -0.211   7.918 132.856  0.00  0.00    +0.000 OA
ATOM     25  H   UNL     1      -0.396   8.846 133.059  0.00  0.00    +0.000 HD
ENDBRANCH  15  24
TORSDOF 2
ENDMDL
MODEL 9
REMARK VINA RESULT:      -7.7      2.334      3.389
REMARK  Name = Ganaxolone
REMARK  6 active torsions:
REMARK  status: ('A' for Active; 'I' for Inactive)
REMARK    1  A    between atoms: C_5  and  C_6
REMARK    2  A    between atoms: C_6  and  C_7
REMARK    3  A    between atoms: C_9  and  C_10
REMARK    4  A    between atoms: C_22  and  C_23
REMARK    5  A    between atoms: C_22  and  O_24
REMARK    6  A    between atoms: C_27  and  C_28
REMARK                            x       y       z     vdW  Elec       q    Type
REMARK                         _______ _______ _______ _____ _____    ______ ____
ROOT
ATOM      1  C   UNL     1      -9.007  -0.531 124.669  0.00  0.00    +0.000 C 
ATOM      2  C   UNL     1      -8.953   0.589 123.787  0.00  0.00    +0.000 C 
ATOM      3  C   UNL     1      -7.572   0.043 123.989  0.00  0.00    +0.000 C 
ATOM      4  C   UNL     1      -7.526  -1.805 124.832  0.00  0.00    +0.000 C 
ATOM      5  C   UNL     1      -7.841  -1.507 123.602  0.00  0.00    +0.000 C 
ATOM      6  C   UNL     1      -8.612  -2.147 122.498  0.00  0.00    +0.000 C 
ATOM      7  C   UNL     1      -5.969  -1.297 123.806  0.00  0.00    +0.000 C 
ATOM      8  C   UNL     1      -5.606  -0.834 125.415  0.00  0.00    +0.000 C 
ATOM      9  C   UNL     1      -6.660   0.224 126.186  0.00  0.00    +0.000 C 
ATOM     10  C   UNL     1      -8.258  -0.061 126.230  0.00  0.00    +0.000 C 
ATOM     11  C   UNL     1      -9.019   1.127 126.785  0.00  0.00    +0.000 C 
ATOM     12  C   UNL     1      -8.482   1.607 128.119  0.00  0.00    +0.000 C 
ATOM     13  C   UNL     1      -7.005   1.901 128.124  0.00  0.00    +0.000 C 
ATOM     14  C   UNL     1      -6.634   3.171 127.398  0.00  0.00    +0.000 C 
ATOM     15  C   UNL     1      -4.878   3.352 127.511  0.00  0.00    +0.000 C 
ATOM     16  C   UNL     1      -3.354   2.735 126.499  0.00  0.00    +0.000 C 
ATOM     17  C   UNL     1      -5.024   3.314 126.126  0.00  0.00    +0.000 C 
ATOM     18  C   UNL     1      -4.986   1.518 126.985  0.00  0.00    +0.000 C 
ATOM     19  C   UNL     1      -6.206   0.775 127.489  0.00  0.00    +0.000 C 
ATOM     20  C   UNL     1      -6.089  -0.423 128.440  0.00  0.00    +0.000 C 
ENDROOT
BRANCH   4  21
ATOM     21  C   UNL     1      -7.070  -3.479 124.525  0.00  0.00    +0.000 C 
ATOM     22  C   UNL     1      -5.652  -3.918 124.065  0.00  0.00    +0.000 C 
ATOM     23  O   UNL     1      -7.883  -4.393 124.722  0.00  0.00    +0.000 OA
ENDBRANCH   4  21
BRANCH  15  24
ATOM     24  O   UNL     1      -4.481   4.210 128.500  0.00  0.00    +0.000 OA
ATOM     25  H   UNL     1      -3.630   4.598 128.247  0.00  0.00    +0.000 HD
ENDBRANCH  15  24
TORSDOF 2
ENDMDL
