MODEL 1
REMARK VINA RESULT:      -6.1      0.000      0.000
REMARK  Name = Ganciclovir
REMARK  7 active torsions:
REMARK  status: ('A' for Active; 'I' for Inactive)
REMARK    1  A    between atoms: N_8  and  C_9
REMARK    2  A    between atoms: C_9  and  O_10
REMARK    3  A    between atoms: O_10  and  C_11
REMARK    4  A    between atoms: C_11  and  C_12
REMARK    5  A    between atoms: C_11  and  C_14
REMARK    6  A    between atoms: C_12  and  O_13
REMARK    7  A    between atoms: C_14  and  O_15
REMARK                            x       y       z     vdW  Elec       q    Type
REMARK                         _______ _______ _______ _____ _____    ______ ____
ROOT
ATOM      1  N   UNL     1      -9.832   4.185 118.757  0.00  0.00    +0.000 N 
ATOM      2  C   UNL     1      -8.751   4.116 119.570  0.00  0.00    +0.000 A 
ATOM      3  N   UNL     1      -8.834   3.615 120.779  0.00  0.00    +0.000 NA
ATOM      4  C   UNL     1      -7.652   3.634 121.455  0.00  0.00    +0.000 A 
ATOM      5  C   UNL     1      -6.430   4.094 121.014  0.00  0.00    +0.000 A 
ATOM      6  N   UNL     1      -5.448   3.939 121.959  0.00  0.00    +0.000 NA
ATOM      7  C   UNL     1      -6.065   3.383 122.980  0.00  0.00    +0.000 A 
ATOM      8  N   UNL     1      -7.398   3.203 122.734  0.00  0.00    +0.000 N 
ATOM      9  C   UNL     1      -6.359   4.647 119.687  0.00  0.00    +0.000 A 
ATOM     10  O   UNL     1      -5.350   5.117 119.160  0.00  0.00    +0.000 OA
ATOM     11  N   UNL     1      -7.578   4.612 119.032  0.00  0.00    +0.000 N 
ATOM     12  H   UNL     1     -10.718   3.827 119.088  0.00  0.00    +0.000 HD
ATOM     13  H   UNL     1      -9.805   4.572 117.824  0.00  0.00    +0.000 HD
ATOM     14  H   UNL     1      -7.564   4.996 118.103  0.00  0.00    +0.000 HD
ENDROOT
BRANCH   8  15
ATOM     15  C   UNL     1      -8.349   2.545 123.604  0.00  0.00    +0.000 C 
BRANCH  15  16
ATOM     16  O   UNL     1      -8.044   1.149 123.753  0.00  0.00    +0.000 OA
BRANCH  16  17
ATOM     17  C   UNL     1      -9.202   0.310 123.582  0.00  0.00    +0.000 C 
BRANCH  17  18
ATOM     18  C   UNL     1     -10.167   0.832 122.495  0.00  0.00    +0.000 C 
BRANCH  18  19
ATOM     19  O   UNL     1     -11.534   0.514 122.751  0.00  0.00    +0.000 OA
ATOM     20  H   UNL     1     -11.687   0.516 123.709  0.00  0.00    +0.000 HD
ENDBRANCH  18  19
ENDBRANCH  17  18
BRANCH  17  21
ATOM     21  C   UNL     1      -8.743  -1.109 123.192  0.00  0.00    +0.000 C 
BRANCH  21  22
ATOM     22  O   UNL     1      -9.822  -2.040 123.258  0.00  0.00    +0.000 OA
ATOM     23  H   UNL     1     -10.444  -1.835 122.540  0.00  0.00    +0.000 HD
ENDBRANCH  21  22
ENDBRANCH  17  21
ENDBRANCH  16  17
ENDBRANCH  15  16
ENDBRANCH   8  15
TORSDOF 7
ENDMDL
MODEL 2
REMARK VINA RESULT:      -6.0      8.573     10.107
REMARK  Name = Ganciclovir
REMARK  7 active torsions:
REMARK  status: ('A' for Active; 'I' for Inactive)
REMARK    1  A    between atoms: N_8  and  C_9
REMARK    2  A    between atoms: C_9  and  O_10
REMARK    3  A    between atoms: O_10  and  C_11
REMARK    4  A    between atoms: C_11  and  C_12
REMARK    5  A    between atoms: C_11  and  C_14
REMARK    6  A    between atoms: C_12  and  O_13
REMARK    7  A    between atoms: C_14  and  O_15
REMARK                            x       y       z     vdW  Elec       q    Type
REMARK                         _______ _______ _______ _____ _____    ______ ____
ROOT
ATOM      1  N   UNL     1     -10.741   7.723 126.299  0.00  0.00    +0.000 N 
ATOM      2  C   UNL     1     -11.230   7.717 127.563  0.00  0.00    +0.000 A 
ATOM      3  N   UNL     1     -11.000   6.720 128.381  0.00  0.00    +0.000 NA
ATOM      4  C   UNL     1     -11.575   6.880 129.606  0.00  0.00    +0.000 A 
ATOM      5  C   UNL     1     -12.330   7.942 130.054  0.00  0.00    +0.000 A 
ATOM      6  N   UNL     1     -12.734   7.776 131.355  0.00  0.00    +0.000 NA
ATOM      7  C   UNL     1     -12.227   6.613 131.706  0.00  0.00    +0.000 A 
ATOM      8  N   UNL     1     -11.543   6.024 130.678  0.00  0.00    +0.000 N 
ATOM      9  C   UNL     1     -12.578   9.025 129.140  0.00  0.00    +0.000 A 
ATOM     10  O   UNL     1     -13.250  10.029 129.383  0.00  0.00    +0.000 OA
ATOM     11  N   UNL     1     -11.981   8.826 127.907  0.00  0.00    +0.000 N 
ATOM     12  H   UNL     1     -10.173   6.945 125.990  0.00  0.00    +0.000 HD
ATOM     13  H   UNL     1     -10.905   8.470 125.640  0.00  0.00    +0.000 HD
ATOM     14  H   UNL     1     -12.138   9.563 127.242  0.00  0.00    +0.000 HD
ENDROOT
BRANCH   8  15
ATOM     15  C   UNL     1     -10.793   4.788 130.745  0.00  0.00    +0.000 C 
BRANCH  15  16
ATOM     16  O   UNL     1      -9.574   4.954 131.490  0.00  0.00    +0.000 OA
BRANCH  16  17
ATOM     17  C   UNL     1      -8.406   4.619 130.717  0.00  0.00    +0.000 C 
BRANCH  17  18
ATOM     18  C   UNL     1      -8.749   4.097 129.304  0.00  0.00    +0.000 C 
BRANCH  18  19
ATOM     19  O   UNL     1      -8.528   5.061 128.275  0.00  0.00    +0.000 OA
ATOM     20  H   UNL     1      -8.238   5.895 128.678  0.00  0.00    +0.000 HD
ENDBRANCH  18  19
ENDBRANCH  17  18
BRANCH  17  21
ATOM     21  C   UNL     1      -7.518   5.871 130.578  0.00  0.00    +0.000 C 
BRANCH  21  22
ATOM     22  O   UNL     1      -8.297   7.028 130.280  0.00  0.00    +0.000 OA
ATOM     23  H   UNL     1      -7.968   7.764 130.825  0.00  0.00    +0.000 HD
ENDBRANCH  21  22
ENDBRANCH  17  21
ENDBRANCH  16  17
ENDBRANCH  15  16
ENDBRANCH   8  15
TORSDOF 7
ENDMDL
MODEL 3
REMARK VINA RESULT:      -6.0      9.219     10.614
REMARK  Name = Ganciclovir
REMARK  7 active torsions:
REMARK  status: ('A' for Active; 'I' for Inactive)
REMARK    1  A    between atoms: N_8  and  C_9
REMARK    2  A    between atoms: C_9  and  O_10
REMARK    3  A    between atoms: O_10  and  C_11
REMARK    4  A    between atoms: C_11  and  C_12
REMARK    5  A    between atoms: C_11  and  C_14
REMARK    6  A    between atoms: C_12  and  O_13
REMARK    7  A    between atoms: C_14  and  O_15
REMARK                            x       y       z     vdW  Elec       q    Type
REMARK                         _______ _______ _______ _____ _____    ______ ____
ROOT
ATOM      1  N   UNL     1     -10.716   7.721 126.242  0.00  0.00    +0.000 N 
ATOM      2  C   UNL     1     -11.181   7.691 127.515  0.00  0.00    +0.000 A 
ATOM      3  N   UNL     1     -10.880   6.711 128.330  0.00  0.00    +0.000 NA
ATOM      4  C   UNL     1     -11.442   6.842 129.565  0.00  0.00    +0.000 A 
ATOM      5  C   UNL     1     -12.247   7.861 130.025  0.00  0.00    +0.000 A 
ATOM      6  N   UNL     1     -12.617   7.676 131.333  0.00  0.00    +0.000 NA
ATOM      7  C   UNL     1     -12.039   6.545 131.677  0.00  0.00    +0.000 A 
ATOM      8  N   UNL     1     -11.341   5.992 130.638  0.00  0.00    +0.000 N 
ATOM      9  C   UNL     1     -12.572   8.926 129.113  0.00  0.00    +0.000 A 
ATOM     10  O   UNL     1     -13.294   9.891 129.367  0.00  0.00    +0.000 OA
ATOM     11  N   UNL     1     -11.986   8.757 127.871  0.00  0.00    +0.000 N 
ATOM     12  H   UNL     1     -10.111   6.975 125.924  0.00  0.00    +0.000 HD
ATOM     13  H   UNL     1     -10.934   8.456 125.584  0.00  0.00    +0.000 HD
ATOM     14  H   UNL     1     -12.197   9.482 127.207  0.00  0.00    +0.000 HD
ENDROOT
BRANCH   8  15
ATOM     15  C   UNL     1     -10.522   4.801 130.694  0.00  0.00    +0.000 C 
BRANCH  15  16
ATOM     16  O   UNL     1      -9.133   5.127 130.861  0.00  0.00    +0.000 OA
BRANCH  16  17
ATOM     17  C   UNL     1      -8.569   4.546 132.053  0.00  0.00    +0.000 C 
BRANCH  17  18
ATOM     18  C   UNL     1      -8.215   5.600 133.125  0.00  0.00    +0.000 C 
BRANCH  18  19
ATOM     19  O   UNL     1      -9.337   6.367 133.560  0.00  0.00    +0.000 OA
ATOM     20  H   UNL     1      -9.647   6.020 134.411  0.00  0.00    +0.000 HD
ENDBRANCH  18  19
ENDBRANCH  17  18
BRANCH  17  21
ATOM     21  C   UNL     1      -9.581   3.552 132.656  0.00  0.00    +0.000 C 
BRANCH  21  22
ATOM     22  O   UNL     1      -9.744   3.764 134.057  0.00  0.00    +0.000 OA
ATOM     23  H   UNL     1      -9.737   2.898 134.498  0.00  0.00    +0.000 HD
ENDBRANCH  21  22
ENDBRANCH  17  21
ENDBRANCH  16  17
ENDBRANCH  15  16
ENDBRANCH   8  15
TORSDOF 7
ENDMDL
MODEL 4
REMARK VINA RESULT:      -5.8      6.784      8.751
REMARK  Name = Ganciclovir
REMARK  7 active torsions:
REMARK  status: ('A' for Active; 'I' for Inactive)
REMARK    1  A    between atoms: N_8  and  C_9
REMARK    2  A    between atoms: C_9  and  O_10
REMARK    3  A    between atoms: O_10  and  C_11
REMARK    4  A    between atoms: C_11  and  C_12
REMARK    5  A    between atoms: C_11  and  C_14
REMARK    6  A    between atoms: C_12  and  O_13
REMARK    7  A    between atoms: C_14  and  O_15
REMARK                            x       y       z     vdW  Elec       q    Type
REMARK                         _______ _______ _______ _____ _____    ______ ____
ROOT
ATOM      1  N   UNL     1     -10.961   8.299 127.755  0.00  0.00    +0.000 N 
ATOM      2  C   UNL     1     -10.708   7.318 128.656  0.00  0.00    +0.000 A 
ATOM      3  N   UNL     1      -9.806   6.395 128.427  0.00  0.00    +0.000 NA
ATOM      4  C   UNL     1      -9.693   5.488 129.437  0.00  0.00    +0.000 A 
ATOM      5  C   UNL     1     -10.390   5.450 130.625  0.00  0.00    +0.000 A 
ATOM      6  N   UNL     1     -10.002   4.401 131.419  0.00  0.00    +0.000 NA
ATOM      7  C   UNL     1      -9.066   3.795 130.720  0.00  0.00    +0.000 A 
ATOM      8  N   UNL     1      -8.862   4.397 129.509  0.00  0.00    +0.000 N 
ATOM      9  C   UNL     1     -11.382   6.467 130.856  0.00  0.00    +0.000 A 
ATOM     10  O   UNL     1     -12.099   6.556 131.853  0.00  0.00    +0.000 OA
ATOM     11  N   UNL     1     -11.470   7.369 129.809  0.00  0.00    +0.000 N 
ATOM     12  H   UNL     1     -10.429   8.324 126.896  0.00  0.00    +0.000 HD
ATOM     13  H   UNL     1     -11.655   9.020 127.895  0.00  0.00    +0.000 HD
ATOM     14  H   UNL     1     -12.157   8.091 129.936  0.00  0.00    +0.000 HD
ENDROOT
BRANCH   8  15
ATOM     15  C   UNL     1      -7.853   4.042 128.534  0.00  0.00    +0.000 C 
BRANCH  15  16
ATOM     16  O   UNL     1      -8.439   3.432 127.372  0.00  0.00    +0.000 OA
BRANCH  16  17
ATOM     17  C   UNL     1      -7.602   3.550 126.206  0.00  0.00    +0.000 C 
BRANCH  17  18
ATOM     18  C   UNL     1      -8.099   2.693 125.021  0.00  0.00    +0.000 C 
BRANCH  18  19
ATOM     19  O   UNL     1      -9.430   3.007 124.614  0.00  0.00    +0.000 OA
ATOM     20  H   UNL     1     -10.006   3.020 125.394  0.00  0.00    +0.000 HD
ENDBRANCH  18  19
ENDBRANCH  17  18
BRANCH  17  21
ATOM     21  C   UNL     1      -7.558   5.025 125.763  0.00  0.00    +0.000 C 
BRANCH  21  22
ATOM     22  O   UNL     1      -8.866   5.595 125.729  0.00  0.00    +0.000 OA
ATOM     23  H   UNL     1      -9.381   5.218 126.462  0.00  0.00    +0.000 HD
ENDBRANCH  21  22
ENDBRANCH  17  21
ENDBRANCH  16  17
ENDBRANCH  15  16
ENDBRANCH   8  15
TORSDOF 7
ENDMDL
MODEL 5
REMARK VINA RESULT:      -5.8      3.300      6.440
REMARK  Name = Ganciclovir
REMARK  7 active torsions:
REMARK  status: ('A' for Active; 'I' for Inactive)
REMARK    1  A    between atoms: N_8  and  C_9
REMARK    2  A    between atoms: C_9  and  O_10
REMARK    3  A    between atoms: O_10  and  C_11
REMARK    4  A    between atoms: C_11  and  C_12
REMARK    5  A    between atoms: C_11  and  C_14
REMARK    6  A    between atoms: C_12  and  O_13
REMARK    7  A    between atoms: C_14  and  O_15
REMARK                            x       y       z     vdW  Elec       q    Type
REMARK                         _______ _______ _______ _____ _____    ______ ____
ROOT
ATOM      1  N   UNL     1      -5.451  -1.495 124.720  0.00  0.00    +0.000 N 
ATOM      2  C   UNL     1      -6.668  -1.211 124.197  0.00  0.00    +0.000 A 
ATOM      3  N   UNL     1      -7.023   0.019 123.917  0.00  0.00    +0.000 NA
ATOM      4  C   UNL     1      -8.282   0.117 123.407  0.00  0.00    +0.000 A 
ATOM      5  C   UNL     1      -9.176  -0.901 123.156  0.00  0.00    +0.000 A 
ATOM      6  N   UNL     1     -10.350  -0.437 122.621  0.00  0.00    +0.000 NA
ATOM      7  C   UNL     1     -10.178   0.865 122.541  0.00  0.00    +0.000 A 
ATOM      8  N   UNL     1      -8.959   1.249 123.027  0.00  0.00    +0.000 N 
ATOM      9  C   UNL     1      -8.772  -2.245 123.476  0.00  0.00    +0.000 A 
ATOM     10  O   UNL     1      -9.462  -3.254 123.331  0.00  0.00    +0.000 OA
ATOM     11  N   UNL     1      -7.489  -2.304 123.993  0.00  0.00    +0.000 N 
ATOM     12  H   UNL     1      -4.798  -0.739 124.882  0.00  0.00    +0.000 HD
ATOM     13  H   UNL     1      -5.148  -2.430 124.955  0.00  0.00    +0.000 HD
ATOM     14  H   UNL     1      -7.177  -3.229 124.232  0.00  0.00    +0.000 HD
ENDROOT
BRANCH   8  15
ATOM     15  C   UNL     1      -8.414   2.590 123.012  0.00  0.00    +0.000 C 
BRANCH  15  16
ATOM     16  O   UNL     1      -8.723   3.295 124.225  0.00  0.00    +0.000 OA
BRANCH  16  17
ATOM     17  C   UNL     1      -7.582   3.422 125.095  0.00  0.00    +0.000 C 
BRANCH  17  18
ATOM     18  C   UNL     1      -6.279   3.748 124.334  0.00  0.00    +0.000 C 
BRANCH  18  19
ATOM     19  O   UNL     1      -6.080   5.146 124.123  0.00  0.00    +0.000 OA
ATOM     20  H   UNL     1      -5.673   5.280 123.253  0.00  0.00    +0.000 HD
ENDBRANCH  18  19
ENDBRANCH  17  18
BRANCH  17  21
ATOM     21  C   UNL     1      -7.850   4.544 126.117  0.00  0.00    +0.000 C 
BRANCH  21  22
ATOM     22  O   UNL     1      -8.502   5.656 125.507  0.00  0.00    +0.000 OA
ATOM     23  H   UNL     1      -8.943   6.170 126.204  0.00  0.00    +0.000 HD
ENDBRANCH  21  22
ENDBRANCH  17  21
ENDBRANCH  16  17
ENDBRANCH  15  16
ENDBRANCH   8  15
TORSDOF 7
ENDMDL
MODEL 6
REMARK VINA RESULT:      -5.7      3.415      4.483
REMARK  Name = Ganciclovir
REMARK  7 active torsions:
REMARK  status: ('A' for Active; 'I' for Inactive)
REMARK    1  A    between atoms: N_8  and  C_9
REMARK    2  A    between atoms: C_9  and  O_10
REMARK    3  A    between atoms: O_10  and  C_11
REMARK    4  A    between atoms: C_11  and  C_12
REMARK    5  A    between atoms: C_11  and  C_14
REMARK    6  A    between atoms: C_12  and  O_13
REMARK    7  A    between atoms: C_14  and  O_15
REMARK                            x       y       z     vdW  Elec       q    Type
REMARK                         _______ _______ _______ _____ _____    ______ ____
ROOT
ATOM      1  N   UNL     1      -5.372   4.201 122.734  0.00  0.00    +0.000 N 
ATOM      2  C   UNL     1      -6.386   3.610 123.410  0.00  0.00    +0.000 A 
ATOM      3  N   UNL     1      -6.663   2.339 123.254  0.00  0.00    +0.000 NA
ATOM      4  C   UNL     1      -7.719   1.919 124.007  0.00  0.00    +0.000 A 
ATOM      5  C   UNL     1      -8.482   2.658 124.883  0.00  0.00    +0.000 A 
ATOM      6  N   UNL     1      -9.455   1.902 125.486  0.00  0.00    +0.000 NA
ATOM      7  C   UNL     1      -9.289   0.698 124.982  0.00  0.00    +0.000 A 
ATOM      8  N   UNL     1      -8.272   0.663 124.067  0.00  0.00    +0.000 N 
ATOM      9  C   UNL     1      -8.168   4.055 125.036  0.00  0.00    +0.000 A 
ATOM     10  O   UNL     1      -8.769   4.849 125.760  0.00  0.00    +0.000 OA
ATOM     11  N   UNL     1      -7.093   4.444 124.256  0.00  0.00    +0.000 N 
ATOM     12  H   UNL     1      -4.809   3.642 122.107  0.00  0.00    +0.000 HD
ATOM     13  H   UNL     1      -5.136   5.180 122.823  0.00  0.00    +0.000 HD
ATOM     14  H   UNL     1      -6.850   5.417 124.336  0.00  0.00    +0.000 HD
ENDROOT
BRANCH   8  15
ATOM     15  C   UNL     1      -7.769  -0.511 123.389  0.00  0.00    +0.000 C 
BRANCH  15  16
ATOM     16  O   UNL     1      -7.330  -1.510 124.325  0.00  0.00    +0.000 OA
BRANCH  16  17
ATOM     17  C   UNL     1      -8.029  -2.759 124.167  0.00  0.00    +0.000 C 
BRANCH  17  18
ATOM     18  C   UNL     1      -8.637  -3.279 125.488  0.00  0.00    +0.000 C 
BRANCH  18  19
ATOM     19  O   UNL     1      -9.838  -2.606 125.864  0.00  0.00    +0.000 OA
ATOM     20  H   UNL     1     -10.438  -3.240 126.287  0.00  0.00    +0.000 HD
ENDBRANCH  18  19
ENDBRANCH  17  18
BRANCH  17  21
ATOM     21  C   UNL     1      -9.166  -2.575 123.142  0.00  0.00    +0.000 C 
BRANCH  21  22
ATOM     22  O   UNL     1     -10.201  -3.537 123.337  0.00  0.00    +0.000 OA
ATOM     23  H   UNL     1     -10.869  -3.409 122.642  0.00  0.00    +0.000 HD
ENDBRANCH  21  22
ENDBRANCH  17  21
ENDBRANCH  16  17
ENDBRANCH  15  16
ENDBRANCH   8  15
TORSDOF 7
ENDMDL
MODEL 7
REMARK VINA RESULT:      -5.7      3.026      6.631
REMARK  Name = Ganciclovir
REMARK  7 active torsions:
REMARK  status: ('A' for Active; 'I' for Inactive)
REMARK    1  A    between atoms: N_8  and  C_9
REMARK    2  A    between atoms: C_9  and  O_10
REMARK    3  A    between atoms: O_10  and  C_11
REMARK    4  A    between atoms: C_11  and  C_12
REMARK    5  A    between atoms: C_11  and  C_14
REMARK    6  A    between atoms: C_12  and  O_13
REMARK    7  A    between atoms: C_14  and  O_15
REMARK                            x       y       z     vdW  Elec       q    Type
REMARK                         _______ _______ _______ _____ _____    ______ ____
ROOT
ATOM      1  N   UNL     1      -5.640  -2.668 124.747  0.00  0.00    +0.000 N 
ATOM      2  C   UNL     1      -6.739  -2.035 124.270  0.00  0.00    +0.000 A 
ATOM      3  N   UNL     1      -6.759  -0.737 124.093  0.00  0.00    +0.000 NA
ATOM      4  C   UNL     1      -7.948  -0.274 123.615  0.00  0.00    +0.000 A 
ATOM      5  C   UNL     1      -9.077  -1.001 123.303  0.00  0.00    +0.000 A 
ATOM      6  N   UNL     1     -10.088  -0.205 122.827  0.00  0.00    +0.000 NA
ATOM      7  C   UNL     1      -9.581   1.009 122.845  0.00  0.00    +0.000 A 
ATOM      8  N   UNL     1      -8.305   1.022 123.336  0.00  0.00    +0.000 N 
ATOM      9  C   UNL     1      -9.039  -2.424 123.511  0.00  0.00    +0.000 A 
ATOM     10  O   UNL     1      -9.970  -3.203 123.302  0.00  0.00    +0.000 OA
ATOM     11  N   UNL     1      -7.818  -2.857 123.998  0.00  0.00    +0.000 N 
ATOM     12  H   UNL     1      -4.813  -2.124 124.954  0.00  0.00    +0.000 HD
ATOM     13  H   UNL     1      -5.593  -3.665 124.903  0.00  0.00    +0.000 HD
ATOM     14  H   UNL     1      -7.759  -3.847 124.158  0.00  0.00    +0.000 HD
ENDROOT
BRANCH   8  15
ATOM     15  C   UNL     1      -7.428   2.171 123.414  0.00  0.00    +0.000 C 
BRANCH  15  16
ATOM     16  O   UNL     1      -6.606   2.284 122.240  0.00  0.00    +0.000 OA
BRANCH  16  17
ATOM     17  C   UNL     1      -6.525   3.636 121.752  0.00  0.00    +0.000 C 
BRANCH  17  18
ATOM     18  C   UNL     1      -5.119   4.002 121.228  0.00  0.00    +0.000 C 
BRANCH  18  19
ATOM     19  O   UNL     1      -4.850   5.403 121.256  0.00  0.00    +0.000 OA
ATOM     20  H   UNL     1      -5.021   5.777 120.378  0.00  0.00    +0.000 HD
ENDBRANCH  18  19
ENDBRANCH  17  18
BRANCH  17  21
ATOM     21  C   UNL     1      -7.540   3.821 120.607  0.00  0.00    +0.000 C 
BRANCH  21  22
ATOM     22  O   UNL     1      -8.857   4.035 121.112  0.00  0.00    +0.000 OA
ATOM     23  H   UNL     1      -9.211   4.843 120.704  0.00  0.00    +0.000 HD
ENDBRANCH  21  22
ENDBRANCH  17  21
ENDBRANCH  16  17
ENDBRANCH  15  16
ENDBRANCH   8  15
TORSDOF 7
ENDMDL
MODEL 8
REMARK VINA RESULT:      -5.5      9.305     10.945
REMARK  Name = Ganciclovir
REMARK  7 active torsions:
REMARK  status: ('A' for Active; 'I' for Inactive)
REMARK    1  A    between atoms: N_8  and  C_9
REMARK    2  A    between atoms: C_9  and  O_10
REMARK    3  A    between atoms: O_10  and  C_11
REMARK    4  A    between atoms: C_11  and  C_12
REMARK    5  A    between atoms: C_11  and  C_14
REMARK    6  A    between atoms: C_12  and  O_13
REMARK    7  A    between atoms: C_14  and  O_15
REMARK                            x       y       z     vdW  Elec       q    Type
REMARK                         _______ _______ _______ _____ _____    ______ ____
ROOT
ATOM      1  N   UNL     1     -11.044   8.696 127.773  0.00  0.00    +0.000 N 
ATOM      2  C   UNL     1     -10.906   7.986 128.919  0.00  0.00    +0.000 A 
ATOM      3  N   UNL     1      -9.803   7.333 129.191  0.00  0.00    +0.000 NA
ATOM      4  C   UNL     1      -9.845   6.671 130.380  0.00  0.00    +0.000 A 
ATOM      5  C   UNL     1     -10.878   6.629 131.291  0.00  0.00    +0.000 A 
ATOM      6  N   UNL     1     -10.565   5.876 132.394  0.00  0.00    +0.000 NA
ATOM      7  C   UNL     1      -9.339   5.456 132.162  0.00  0.00    +0.000 A 
ATOM      8  N   UNL     1      -8.872   5.887 130.951  0.00  0.00    +0.000 N 
ATOM      9  C   UNL     1     -12.085   7.346 130.973  0.00  0.00    +0.000 A 
ATOM     10  O   UNL     1     -13.099   7.387 131.670  0.00  0.00    +0.000 OA
ATOM     11  N   UNL     1     -12.005   8.004 129.758  0.00  0.00    +0.000 N 
ATOM     12  H   UNL     1     -10.271   8.732 127.122  0.00  0.00    +0.000 HD
ATOM     13  H   UNL     1     -11.883   9.204 127.528  0.00  0.00    +0.000 HD
ATOM     14  H   UNL     1     -12.834   8.512 129.503  0.00  0.00    +0.000 HD
ENDROOT
BRANCH   8  15
ATOM     15  C   UNL     1      -7.541   5.681 130.422  0.00  0.00    +0.000 C 
BRANCH  15  16
ATOM     16  O   UNL     1      -6.665   6.766 130.768  0.00  0.00    +0.000 OA
BRANCH  16  17
ATOM     17  C   UNL     1      -5.283   6.365 130.821  0.00  0.00    +0.000 C 
BRANCH  17  18
ATOM     18  C   UNL     1      -4.904   5.369 129.703  0.00  0.00    +0.000 C 
BRANCH  18  19
ATOM     19  O   UNL     1      -4.556   6.003 128.473  0.00  0.00    +0.000 OA
ATOM     20  H   UNL     1      -3.707   6.460 128.579  0.00  0.00    +0.000 HD
ENDBRANCH  18  19
ENDBRANCH  17  18
BRANCH  17  21
ATOM     21  C   UNL     1      -4.390   7.615 130.691  0.00  0.00    +0.000 C 
BRANCH  21  22
ATOM     22  O   UNL     1      -4.910   8.524 129.722  0.00  0.00    +0.000 OA
ATOM     23  H   UNL     1      -4.227   8.672 129.047  0.00  0.00    +0.000 HD
ENDBRANCH  21  22
ENDBRANCH  17  21
ENDBRANCH  16  17
ENDBRANCH  15  16
ENDBRANCH   8  15
TORSDOF 7
ENDMDL
MODEL 9
REMARK VINA RESULT:      -5.5      9.194     11.542
REMARK  Name = Ganciclovir
REMARK  7 active torsions:
REMARK  status: ('A' for Active; 'I' for Inactive)
REMARK    1  A    between atoms: N_8  and  C_9
REMARK    2  A    between atoms: C_9  and  O_10
REMARK    3  A    between atoms: O_10  and  C_11
REMARK    4  A    between atoms: C_11  and  C_12
REMARK    5  A    between atoms: C_11  and  C_14
REMARK    6  A    between atoms: C_12  and  O_13
REMARK    7  A    between atoms: C_14  and  O_15
REMARK                            x       y       z     vdW  Elec       q    Type
REMARK                         _______ _______ _______ _____ _____    ______ ____
ROOT
ATOM      1  N   UNL     1      -8.234   5.984 135.104  0.00  0.00    +0.000 N 
ATOM      2  C   UNL     1      -8.693   5.403 133.970  0.00  0.00    +0.000 A 
ATOM      3  N   UNL     1      -9.097   6.118 132.949  0.00  0.00    +0.000 NA
ATOM      4  C   UNL     1      -9.533   5.366 131.900  0.00  0.00    +0.000 A 
ATOM      5  C   UNL     1      -9.580   3.992 131.803  0.00  0.00    +0.000 A 
ATOM      6  N   UNL     1     -10.061   3.576 130.588  0.00  0.00    +0.000 NA
ATOM      7  C   UNL     1     -10.309   4.693 129.938  0.00  0.00    +0.000 A 
ATOM      8  N   UNL     1     -10.031   5.797 130.695  0.00  0.00    +0.000 N 
ATOM      9  C   UNL     1      -9.140   3.223 132.937  0.00  0.00    +0.000 A 
ATOM     10  O   UNL     1      -9.142   1.994 133.013  0.00  0.00    +0.000 OA
ATOM     11  N   UNL     1      -8.706   4.020 133.983  0.00  0.00    +0.000 N 
ATOM     12  H   UNL     1      -8.188   6.993 135.154  0.00  0.00    +0.000 HD
ATOM     13  H   UNL     1      -7.923   5.464 135.913  0.00  0.00    +0.000 HD
ATOM     14  H   UNL     1      -8.395   3.513 134.793  0.00  0.00    +0.000 HD
ENDROOT
BRANCH   8  15
ATOM     15  C   UNL     1     -10.107   7.176 130.262  0.00  0.00    +0.000 C 
BRANCH  15  16
ATOM     16  O   UNL     1      -9.803   7.303 128.863  0.00  0.00    +0.000 OA
BRANCH  16  17
ATOM     17  C   UNL     1     -10.620   8.292 128.208  0.00  0.00    +0.000 C 
BRANCH  17  18
ATOM     18  C   UNL     1     -10.969   7.914 126.752  0.00  0.00    +0.000 C 
BRANCH  18  19
ATOM     19  O   UNL     1     -11.008   6.505 126.526  0.00  0.00    +0.000 OA
ATOM     20  H   UNL     1     -10.993   6.046 127.380  0.00  0.00    +0.000 HD
ENDBRANCH  18  19
ENDBRANCH  17  18
BRANCH  17  21
ATOM     21  C   UNL     1     -11.931   8.467 128.999  0.00  0.00    +0.000 C 
BRANCH  21  22
ATOM     22  O   UNL     1     -12.601   9.671 128.632  0.00  0.00    +0.000 OA
ATOM     23  H   UNL     1     -13.292   9.450 127.986  0.00  0.00    +0.000 HD
ENDBRANCH  21  22
ENDBRANCH  17  21
ENDBRANCH  16  17
ENDBRANCH  15  16
ENDBRANCH   8  15
TORSDOF 7
ENDMDL
