MODEL 1
REMARK VINA RESULT:      -7.0      0.000      0.000
REMARK  Name = Gatifloxacin
REMARK  7 active torsions:
REMARK  status: ('A' for Active; 'I' for Inactive)
REMARK    1  A    between atoms: C_1  and  O_2
REMARK    2  A    between atoms: O_2  and  C_3
REMARK    3  A    between atoms: N_5  and  C_25
REMARK    4  A    between atoms: C_7  and  C_8
REMARK    5  A    between atoms: C_8  and  O_9
REMARK    6  A    between atoms: C_17  and  N_18
REMARK    7  A    between atoms: C_22  and  C_23
REMARK                            x       y       z     vdW  Elec       q    Type
REMARK                         _______ _______ _______ _____ _____    ______ ____
ROOT
ATOM      1  C   UNL     1      -6.002   3.162 125.501  0.00  0.00    +0.000 A 
ATOM      2  C   UNL     1      -7.202   2.642 124.895  0.00  0.00    +0.000 A 
ATOM      3  N   UNL     1      -7.628   2.896 123.526  0.00  0.00    +0.000 N 
ATOM      4  C   UNL     1      -8.771   2.242 123.049  0.00  0.00    +0.000 A 
ATOM      5  C   UNL     1      -9.608   1.447 123.745  0.00  0.00    +0.000 A 
ATOM      6  C   UNL     1      -9.269   1.210 125.161  0.00  0.00    +0.000 A 
ATOM      7  O   UNL     1     -10.002   0.511 125.859  0.00  0.00    +0.000 OA
ATOM      8  C   UNL     1      -8.025   1.815 125.702  0.00  0.00    +0.000 A 
ATOM      9  C   UNL     1      -7.699   1.536 127.032  0.00  0.00    +0.000 A 
ATOM     10  C   UNL     1      -6.536   2.064 127.580  0.00  0.00    +0.000 A 
ATOM     11  F   UNL     1      -6.290   1.821 128.879  0.00  0.00    +0.000 F 
ATOM     12  C   UNL     1      -5.665   2.889 126.849  0.00  0.00    +0.000 A 
ENDROOT
BRANCH  12  13
ATOM     13  N   UNL     1      -4.560   3.459 127.451  0.00  0.00    +0.000 N 
ATOM     14  C   UNL     1      -3.234   2.822 127.434  0.00  0.00    +0.000 C 
ATOM     15  C   UNL     1      -2.209   3.850 126.941  0.00  0.00    +0.000 C 
ATOM     16  N   UNL     1      -2.217   5.082 127.762  0.00  0.00    +0.000 NA
ATOM     17  C   UNL     1      -3.581   5.675 127.763  0.00  0.00    +0.000 C 
ATOM     18  C   UNL     1      -3.579   6.916 128.646  0.00  0.00    +0.000 C 
ATOM     19  C   UNL     1      -4.660   4.681 128.248  0.00  0.00    +0.000 C 
ATOM     20  H   UNL     1      -1.562   5.748 127.357  0.00  0.00    +0.000 HD
ENDBRANCH  12  13
BRANCH   3  21
ATOM     21  C   UNL     1      -6.647   3.498 122.583  0.00  0.00    +0.000 C 
ATOM     22  C   UNL     1      -5.825   2.816 121.543  0.00  0.00    +0.000 C 
ATOM     23  C   UNL     1      -6.783   3.917 121.153  0.00  0.00    +0.000 C 
ENDBRANCH   3  21
BRANCH   1  25
ATOM     24  C   UNL     1      -5.638   5.434 124.847  0.00  0.00    +0.000 C 
ATOM     25  O   UNL     1      -5.190   4.065 124.831  0.00  0.00    +0.000 OA
ENDBRANCH   1  25
BRANCH   5  26
ATOM     26  C   UNL     1     -10.806   0.846 123.106  0.00  0.00    +0.000 C 
ATOM     27  O   UNL     1     -10.736   0.068 122.154  0.00  0.00    +0.000 OA
BRANCH  26  28
ATOM     28  O   UNL     1     -12.000   1.210 123.625  0.00  0.00    +0.000 OA
ATOM     29  H   UNL     1     -11.952   1.867 124.364  0.00  0.00    +0.000 HD
ENDBRANCH  26  28
ENDBRANCH   5  26
TORSDOF 5
ENDMDL
MODEL 2
REMARK VINA RESULT:      -6.9      4.100      5.603
REMARK  Name = Gatifloxacin
REMARK  7 active torsions:
REMARK  status: ('A' for Active; 'I' for Inactive)
REMARK    1  A    between atoms: C_1  and  O_2
REMARK    2  A    between atoms: O_2  and  C_3
REMARK    3  A    between atoms: N_5  and  C_25
REMARK    4  A    between atoms: C_7  and  C_8
REMARK    5  A    between atoms: C_8  and  O_9
REMARK    6  A    between atoms: C_17  and  N_18
REMARK    7  A    between atoms: C_22  and  C_23
REMARK                            x       y       z     vdW  Elec       q    Type
REMARK                         _______ _______ _______ _____ _____    ______ ____
ROOT
ATOM      1  C   UNL     1      -7.507  -1.069 127.780  0.00  0.00    +0.000 A 
ATOM      2  C   UNL     1      -7.979  -0.531 126.529  0.00  0.00    +0.000 A 
ATOM      3  N   UNL     1      -7.999  -1.248 125.262  0.00  0.00    +0.000 N 
ATOM      4  C   UNL     1      -8.578  -0.624 124.150  0.00  0.00    +0.000 A 
ATOM      5  C   UNL     1      -9.059   0.634 124.076  0.00  0.00    +0.000 A 
ATOM      6  C   UNL     1      -9.000   1.437 125.312  0.00  0.00    +0.000 A 
ATOM      7  O   UNL     1      -9.403   2.599 125.309  0.00  0.00    +0.000 OA
ATOM      8  C   UNL     1      -8.467   0.801 126.544  0.00  0.00    +0.000 A 
ATOM      9  C   UNL     1      -8.467   1.566 127.714  0.00  0.00    +0.000 A 
ATOM     10  C   UNL     1      -7.995   1.010 128.898  0.00  0.00    +0.000 A 
ATOM     11  F   UNL     1      -7.956   1.798 129.986  0.00  0.00    +0.000 F 
ATOM     12  C   UNL     1      -7.498  -0.301 128.970  0.00  0.00    +0.000 A 
ENDROOT
BRANCH  12  13
ATOM     13  N   UNL     1      -6.964  -0.792 130.146  0.00  0.00    +0.000 N 
ATOM     14  C   UNL     1      -7.742  -1.616 131.084  0.00  0.00    +0.000 C 
ATOM     15  C   UNL     1      -6.937  -2.881 131.401  0.00  0.00    +0.000 C 
ATOM     16  N   UNL     1      -5.591  -2.568 131.931  0.00  0.00    +0.000 NA
ATOM     17  C   UNL     1      -4.854  -1.719 130.957  0.00  0.00    +0.000 C 
ATOM     18  C   UNL     1      -3.490  -1.371 131.537  0.00  0.00    +0.000 C 
ATOM     19  C   UNL     1      -5.622  -0.426 130.595  0.00  0.00    +0.000 C 
ATOM     20  H   UNL     1      -5.083  -3.438 132.068  0.00  0.00    +0.000 HD
ENDBRANCH  12  13
BRANCH   3  21
ATOM     21  C   UNL     1      -7.782  -2.720 125.281  0.00  0.00    +0.000 C 
ATOM     22  C   UNL     1      -8.527  -3.774 124.536  0.00  0.00    +0.000 C 
ATOM     23  C   UNL     1      -7.036  -3.619 124.346  0.00  0.00    +0.000 C 
ENDBRANCH   3  21
BRANCH   1  25
ATOM     24  C   UNL     1      -5.501  -2.354 127.558  0.00  0.00    +0.000 C 
ATOM     25  O   UNL     1      -6.912  -2.321 127.847  0.00  0.00    +0.000 OA
ENDBRANCH   1  25
BRANCH   5  26
ATOM     26  C   UNL     1      -9.617   1.170 122.809  0.00  0.00    +0.000 C 
ATOM     27  O   UNL     1     -10.435   0.553 122.125  0.00  0.00    +0.000 OA
BRANCH  26  28
ATOM     28  O   UNL     1      -9.169   2.387 122.432  0.00  0.00    +0.000 OA
ATOM     29  H   UNL     1      -8.796   2.430 121.516  0.00  0.00    +0.000 HD
ENDBRANCH  26  28
ENDBRANCH   5  26
TORSDOF 5
ENDMDL
MODEL 3
REMARK VINA RESULT:      -6.7      4.988      8.171
REMARK  Name = Gatifloxacin
REMARK  7 active torsions:
REMARK  status: ('A' for Active; 'I' for Inactive)
REMARK    1  A    between atoms: C_1  and  O_2
REMARK    2  A    between atoms: O_2  and  C_3
REMARK    3  A    between atoms: N_5  and  C_25
REMARK    4  A    between atoms: C_7  and  C_8
REMARK    5  A    between atoms: C_8  and  O_9
REMARK    6  A    between atoms: C_17  and  N_18
REMARK    7  A    between atoms: C_22  and  C_23
REMARK                            x       y       z     vdW  Elec       q    Type
REMARK                         _______ _______ _______ _____ _____    ______ ____
ROOT
ATOM      1  C   UNL     1      -7.564  -0.863 128.040  0.00  0.00    +0.000 A 
ATOM      2  C   UNL     1      -7.881  -0.147 129.250  0.00  0.00    +0.000 A 
ATOM      3  N   UNL     1      -7.850  -0.712 130.591  0.00  0.00    +0.000 N 
ATOM      4  C   UNL     1      -8.091   0.135 131.680  0.00  0.00    +0.000 A 
ATOM      5  C   UNL     1      -8.447   1.435 131.641  0.00  0.00    +0.000 A 
ATOM      6  C   UNL     1      -8.566   2.047 130.304  0.00  0.00    +0.000 A 
ATOM      7  O   UNL     1      -8.907   3.224 130.196  0.00  0.00    +0.000 OA
ATOM      8  C   UNL     1      -8.246   1.217 129.114  0.00  0.00    +0.000 A 
ATOM      9  C   UNL     1      -8.319   1.833 127.861  0.00  0.00    +0.000 A 
ATOM     10  C   UNL     1      -8.012   1.103 126.718  0.00  0.00    +0.000 A 
ATOM     11  F   UNL     1      -8.152   1.715 125.530  0.00  0.00    +0.000 F 
ATOM     12  C   UNL     1      -7.639  -0.250 126.765  0.00  0.00    +0.000 A 
ENDROOT
BRANCH  12  13
ATOM     13  N   UNL     1      -7.418  -0.963 125.602  0.00  0.00    +0.000 N 
ATOM     14  C   UNL     1      -6.067  -1.250 125.095  0.00  0.00    +0.000 C 
ATOM     15  C   UNL     1      -5.964  -2.753 124.813  0.00  0.00    +0.000 C 
ATOM     16  N   UNL     1      -7.012  -3.217 123.878  0.00  0.00    +0.000 NA
ATOM     17  C   UNL     1      -8.355  -2.887 124.425  0.00  0.00    +0.000 C 
ATOM     18  C   UNL     1      -9.418  -3.334 123.430  0.00  0.00    +0.000 C 
ATOM     19  C   UNL     1      -8.517  -1.381 124.734  0.00  0.00    +0.000 C 
ATOM     20  H   UNL     1      -6.933  -4.226 123.772  0.00  0.00    +0.000 HD
ENDBRANCH  12  13
BRANCH   3  21
ATOM     21  C   UNL     1      -7.187  -2.030 130.785  0.00  0.00    +0.000 C 
ATOM     22  C   UNL     1      -5.869  -2.318 131.419  0.00  0.00    +0.000 C 
ATOM     23  C   UNL     1      -7.130  -2.940 131.972  0.00  0.00    +0.000 C 
ENDBRANCH   3  21
BRANCH   1  25
ATOM     24  C   UNL     1      -8.457  -3.081 127.979  0.00  0.00    +0.000 C 
ATOM     25  O   UNL     1      -7.301  -2.225 128.056  0.00  0.00    +0.000 OA
ENDBRANCH   1  25
BRANCH   5  26
ATOM     26  C   UNL     1      -8.702   2.200 132.888  0.00  0.00    +0.000 C 
ATOM     27  O   UNL     1      -7.854   2.341 133.770  0.00  0.00    +0.000 OA
BRANCH  26  28
ATOM     28  O   UNL     1      -9.936   2.736 133.013  0.00  0.00    +0.000 OA
ATOM     29  H   UNL     1     -10.023   3.423 133.720  0.00  0.00    +0.000 HD
ENDBRANCH  26  28
ENDBRANCH   5  26
TORSDOF 5
ENDMDL
MODEL 4
REMARK VINA RESULT:      -6.6      4.519      7.522
REMARK  Name = Gatifloxacin
REMARK  7 active torsions:
REMARK  status: ('A' for Active; 'I' for Inactive)
REMARK    1  A    between atoms: C_1  and  O_2
REMARK    2  A    between atoms: O_2  and  C_3
REMARK    3  A    between atoms: N_5  and  C_25
REMARK    4  A    between atoms: C_7  and  C_8
REMARK    5  A    between atoms: C_8  and  O_9
REMARK    6  A    between atoms: C_17  and  N_18
REMARK    7  A    between atoms: C_22  and  C_23
REMARK                            x       y       z     vdW  Elec       q    Type
REMARK                         _______ _______ _______ _____ _____    ______ ____
ROOT
ATOM      1  C   UNL     1      -6.168   3.932 130.590  0.00  0.00    +0.000 A 
ATOM      2  C   UNL     1      -5.123   3.794 129.607  0.00  0.00    +0.000 A 
ATOM      3  N   UNL     1      -3.840   4.481 129.644  0.00  0.00    +0.000 N 
ATOM      4  C   UNL     1      -2.886   4.171 128.667  0.00  0.00    +0.000 A 
ATOM      5  C   UNL     1      -3.039   3.353 127.605  0.00  0.00    +0.000 A 
ATOM      6  C   UNL     1      -4.346   2.682 127.472  0.00  0.00    +0.000 A 
ATOM      7  O   UNL     1      -4.560   1.939 126.516  0.00  0.00    +0.000 OA
ATOM      8  C   UNL     1      -5.371   2.913 128.523  0.00  0.00    +0.000 A 
ATOM      9  C   UNL     1      -6.583   2.228 128.401  0.00  0.00    +0.000 A 
ATOM     10  C   UNL     1      -7.568   2.396 129.368  0.00  0.00    +0.000 A 
ATOM     11  F   UNL     1      -8.740   1.766 129.182  0.00  0.00    +0.000 F 
ATOM     12  C   UNL     1      -7.402   3.247 130.473  0.00  0.00    +0.000 A 
ENDROOT
BRANCH  12  13
ATOM     13  N   UNL     1      -8.432   3.448 131.371  0.00  0.00    +0.000 N 
ATOM     14  C   UNL     1      -8.580   2.650 132.598  0.00  0.00    +0.000 C 
ATOM     15  C   UNL     1      -8.739   3.607 133.784  0.00  0.00    +0.000 C 
ATOM     16  N   UNL     1      -9.871   4.543 133.597  0.00  0.00    +0.000 NA
ATOM     17  C   UNL     1      -9.684   5.311 132.337  0.00  0.00    +0.000 C 
ATOM     18  C   UNL     1     -10.877   6.236 132.141  0.00  0.00    +0.000 C 
ATOM     19  C   UNL     1      -9.514   4.395 131.103  0.00  0.00    +0.000 C 
ATOM     20  H   UNL     1      -9.894   5.189 134.383  0.00  0.00    +0.000 HD
ENDBRANCH  12  13
BRANCH   3  21
ATOM     21  C   UNL     1      -3.442   5.163 130.906  0.00  0.00    +0.000 C 
ATOM     22  C   UNL     1      -2.325   4.817 131.831  0.00  0.00    +0.000 C 
ATOM     23  C   UNL     1      -2.381   6.181 131.185  0.00  0.00    +0.000 C 
ENDBRANCH   3  21
BRANCH   1  25
ATOM     24  C   UNL     1      -6.415   6.206 131.291  0.00  0.00    +0.000 C 
ATOM     25  O   UNL     1      -6.065   4.850 131.626  0.00  0.00    +0.000 OA
ENDBRANCH   1  25
BRANCH   5  26
ATOM     26  C   UNL     1      -1.940   3.147 126.629  0.00  0.00    +0.000 C 
ATOM     27  O   UNL     1      -1.888   3.734 125.548  0.00  0.00    +0.000 OA
BRANCH  26  28
ATOM     28  O   UNL     1      -0.987   2.259 126.989  0.00  0.00    +0.000 OA
ATOM     29  H   UNL     1      -0.907   1.469 126.398  0.00  0.00    +0.000 HD
ENDBRANCH  26  28
ENDBRANCH   5  26
TORSDOF 5
ENDMDL
MODEL 5
REMARK VINA RESULT:      -6.5      2.466      2.906
REMARK  Name = Gatifloxacin
REMARK  7 active torsions:
REMARK  status: ('A' for Active; 'I' for Inactive)
REMARK    1  A    between atoms: C_1  and  O_2
REMARK    2  A    between atoms: O_2  and  C_3
REMARK    3  A    between atoms: N_5  and  C_25
REMARK    4  A    between atoms: C_7  and  C_8
REMARK    5  A    between atoms: C_8  and  O_9
REMARK    6  A    between atoms: C_17  and  N_18
REMARK    7  A    between atoms: C_22  and  C_23
REMARK                            x       y       z     vdW  Elec       q    Type
REMARK                         _______ _______ _______ _____ _____    ______ ____
ROOT
ATOM      1  C   UNL     1      -6.044   3.124 125.866  0.00  0.00    +0.000 A 
ATOM      2  C   UNL     1      -6.324   1.903 125.153  0.00  0.00    +0.000 A 
ATOM      3  N   UNL     1      -7.063   1.813 123.901  0.00  0.00    +0.000 N 
ATOM      4  C   UNL     1      -7.172   0.564 123.277  0.00  0.00    +0.000 A 
ATOM      5  C   UNL     1      -6.740  -0.624 123.745  0.00  0.00    +0.000 A 
ATOM      6  C   UNL     1      -6.046  -0.608 125.047  0.00  0.00    +0.000 A 
ATOM      7  O   UNL     1      -5.645  -1.661 125.541  0.00  0.00    +0.000 OA
ATOM      8  C   UNL     1      -5.832   0.699 125.719  0.00  0.00    +0.000 A 
ATOM      9  C   UNL     1      -5.129   0.694 126.927  0.00  0.00    +0.000 A 
ATOM     10  C   UNL     1      -4.887   1.894 127.587  0.00  0.00    +0.000 A 
ATOM     11  F   UNL     1      -4.261   1.839 128.774  0.00  0.00    +0.000 F 
ATOM     12  C   UNL     1      -5.336   3.129 127.093  0.00  0.00    +0.000 A 
ENDROOT
BRANCH  12  13
ATOM     13  N   UNL     1      -5.146   4.291 127.815  0.00  0.00    +0.000 N 
ATOM     14  C   UNL     1      -5.975   4.645 128.978  0.00  0.00    +0.000 C 
ATOM     15  C   UNL     1      -5.048   4.988 130.149  0.00  0.00    +0.000 C 
ATOM     16  N   UNL     1      -4.093   6.066 129.807  0.00  0.00    +0.000 NA
ATOM     17  C   UNL     1      -3.294   5.669 128.617  0.00  0.00    +0.000 C 
ATOM     18  C   UNL     1      -2.349   6.806 128.255  0.00  0.00    +0.000 C 
ATOM     19  C   UNL     1      -4.178   5.306 127.401  0.00  0.00    +0.000 C 
ATOM     20  H   UNL     1      -3.468   6.211 130.597  0.00  0.00    +0.000 HD
ENDBRANCH  12  13
BRANCH   3  21
ATOM     21  C   UNL     1      -7.320   3.068 123.143  0.00  0.00    +0.000 C 
ATOM     22  C   UNL     1      -6.615   3.577 121.933  0.00  0.00    +0.000 C 
ATOM     23  C   UNL     1      -8.103   3.322 121.893  0.00  0.00    +0.000 C 
ENDBRANCH   3  21
BRANCH   1  25
ATOM     24  C   UNL     1      -7.904   4.627 125.920  0.00  0.00    +0.000 C 
ATOM     25  O   UNL     1      -6.573   4.338 125.451  0.00  0.00    +0.000 OA
ENDBRANCH   1  25
BRANCH   5  26
ATOM     26  C   UNL     1      -6.958  -1.877 122.979  0.00  0.00    +0.000 C 
ATOM     27  O   UNL     1      -8.077  -2.270 122.645  0.00  0.00    +0.000 OA
BRANCH  26  28
ATOM     28  O   UNL     1      -5.849  -2.584 122.669  0.00  0.00    +0.000 OA
ATOM     29  H   UNL     1      -5.472  -2.398 121.773  0.00  0.00    +0.000 HD
ENDBRANCH  26  28
ENDBRANCH   5  26
TORSDOF 5
ENDMDL
MODEL 6
REMARK VINA RESULT:      -6.4      3.877      4.907
REMARK  Name = Gatifloxacin
REMARK  7 active torsions:
REMARK  status: ('A' for Active; 'I' for Inactive)
REMARK    1  A    between atoms: C_1  and  O_2
REMARK    2  A    between atoms: O_2  and  C_3
REMARK    3  A    between atoms: N_5  and  C_25
REMARK    4  A    between atoms: C_7  and  C_8
REMARK    5  A    between atoms: C_8  and  O_9
REMARK    6  A    between atoms: C_17  and  N_18
REMARK    7  A    between atoms: C_22  and  C_23
REMARK                            x       y       z     vdW  Elec       q    Type
REMARK                         _______ _______ _______ _____ _____    ______ ____
ROOT
ATOM      1  C   UNL     1      -7.514   0.281 128.394  0.00  0.00    +0.000 A 
ATOM      2  C   UNL     1      -7.918  -0.381 127.179  0.00  0.00    +0.000 A 
ATOM      3  N   UNL     1      -8.099   0.270 125.889  0.00  0.00    +0.000 N 
ATOM      4  C   UNL     1      -8.401  -0.524 124.776  0.00  0.00    +0.000 A 
ATOM      5  C   UNL     1      -8.640  -1.851 124.759  0.00  0.00    +0.000 A 
ATOM      6  C   UNL     1      -8.543  -2.556 126.051  0.00  0.00    +0.000 A 
ATOM      7  O   UNL     1      -8.769  -3.764 126.109  0.00  0.00    +0.000 OA
ATOM      8  C   UNL     1      -8.149  -1.778 127.253  0.00  0.00    +0.000 A 
ATOM      9  C   UNL     1      -8.015  -2.478 128.456  0.00  0.00    +0.000 A 
ATOM     10  C   UNL     1      -7.631  -1.798 129.607  0.00  0.00    +0.000 A 
ATOM     11  F   UNL     1      -7.573  -2.496 130.754  0.00  0.00    +0.000 F 
ATOM     12  C   UNL     1      -7.380  -0.417 129.618  0.00  0.00    +0.000 A 
ENDROOT
BRANCH  12  13
ATOM     13  N   UNL     1      -7.077   0.237 130.797  0.00  0.00    +0.000 N 
ATOM     14  C   UNL     1      -5.695   0.442 131.256  0.00  0.00    +0.000 C 
ATOM     15  C   UNL     1      -5.510   1.926 131.592  0.00  0.00    +0.000 C 
ATOM     16  N   UNL     1      -6.495   2.398 132.590  0.00  0.00    +0.000 NA
ATOM     17  C   UNL     1      -7.874   2.151 132.089  0.00  0.00    +0.000 C 
ATOM     18  C   UNL     1      -8.872   2.604 133.146  0.00  0.00    +0.000 C 
ATOM     19  C   UNL     1      -8.119   0.668 131.729  0.00  0.00    +0.000 C 
ATOM     20  H   UNL     1      -6.364   3.397 132.731  0.00  0.00    +0.000 HD
ENDBRANCH  12  13
BRANCH   3  21
ATOM     21  C   UNL     1      -7.576   1.653 125.718  0.00  0.00    +0.000 C 
ATOM     22  C   UNL     1      -6.709   2.186 124.629  0.00  0.00    +0.000 C 
ATOM     23  C   UNL     1      -8.067   2.797 124.886  0.00  0.00    +0.000 C 
ENDBRANCH   3  21
BRANCH   1  25
ATOM     24  C   UNL     1      -8.583   2.403 128.668  0.00  0.00    +0.000 C 
ATOM     25  O   UNL     1      -7.369   1.660 128.448  0.00  0.00    +0.000 OA
ENDBRANCH   1  25
BRANCH   5  26
ATOM     26  C   UNL     1      -8.982  -2.554 123.496  0.00  0.00    +0.000 C 
ATOM     27  O   UNL     1      -8.346  -2.402 122.453  0.00  0.00    +0.000 OA
BRANCH  26  28
ATOM     28  O   UNL     1     -10.053  -3.377 123.548  0.00  0.00    +0.000 OA
ATOM     29  H   UNL     1     -10.852  -3.054 123.061  0.00  0.00    +0.000 HD
ENDBRANCH  26  28
ENDBRANCH   5  26
TORSDOF 5
ENDMDL
MODEL 7
REMARK VINA RESULT:      -6.4      2.486      4.809
REMARK  Name = Gatifloxacin
REMARK  7 active torsions:
REMARK  status: ('A' for Active; 'I' for Inactive)
REMARK    1  A    between atoms: C_1  and  O_2
REMARK    2  A    between atoms: O_2  and  C_3
REMARK    3  A    between atoms: N_5  and  C_25
REMARK    4  A    between atoms: C_7  and  C_8
REMARK    5  A    between atoms: C_8  and  O_9
REMARK    6  A    between atoms: C_17  and  N_18
REMARK    7  A    between atoms: C_22  and  C_23
REMARK                            x       y       z     vdW  Elec       q    Type
REMARK                         _______ _______ _______ _____ _____    ______ ____
ROOT
ATOM      1  C   UNL     1      -6.794   2.121 125.863  0.00  0.00    +0.000 A 
ATOM      2  C   UNL     1      -6.741   2.563 124.492  0.00  0.00    +0.000 A 
ATOM      3  N   UNL     1      -7.558   2.035 123.408  0.00  0.00    +0.000 N 
ATOM      4  C   UNL     1      -7.461   2.634 122.146  0.00  0.00    +0.000 A 
ATOM      5  C   UNL     1      -6.615   3.614 121.768  0.00  0.00    +0.000 A 
ATOM      6  C   UNL     1      -5.710   4.141 122.806  0.00  0.00    +0.000 A 
ATOM      7  O   UNL     1      -4.899   5.022 122.524  0.00  0.00    +0.000 OA
ATOM      8  C   UNL     1      -5.821   3.598 124.185  0.00  0.00    +0.000 A 
ATOM      9  C   UNL     1      -4.986   4.147 125.162  0.00  0.00    +0.000 A 
ATOM     10  C   UNL     1      -5.065   3.686 126.471  0.00  0.00    +0.000 A 
ATOM     11  F   UNL     1      -4.204   4.198 127.367  0.00  0.00    +0.000 F 
ATOM     12  C   UNL     1      -5.950   2.667 126.860  0.00  0.00    +0.000 A 
ENDROOT
BRANCH  12  13
ATOM     13  N   UNL     1      -5.944   2.180 128.153  0.00  0.00    +0.000 N 
ATOM     14  C   UNL     1      -6.951   2.573 129.150  0.00  0.00    +0.000 C 
ATOM     15  C   UNL     1      -7.536   1.301 129.774  0.00  0.00    +0.000 C 
ATOM     16  N   UNL     1      -6.489   0.435 130.361  0.00  0.00    +0.000 NA
ATOM     17  C   UNL     1      -5.487   0.084 129.320  0.00  0.00    +0.000 C 
ATOM     18  C   UNL     1      -4.397  -0.770 129.953  0.00  0.00    +0.000 C 
ATOM     19  C   UNL     1      -4.863   1.330 128.651  0.00  0.00    +0.000 C 
ATOM     20  H   UNL     1      -6.926  -0.416 130.708  0.00  0.00    +0.000 HD
ENDBRANCH  12  13
BRANCH   3  21
ATOM     21  C   UNL     1      -8.724   1.179 123.757  0.00  0.00    +0.000 C 
ATOM     22  C   UNL     1     -10.132   1.595 124.015  0.00  0.00    +0.000 C 
ATOM     23  C   UNL     1      -9.821   0.614 122.910  0.00  0.00    +0.000 C 
ENDBRANCH   3  21
BRANCH   1  25
ATOM     24  C   UNL     1      -6.980  -0.255 126.071  0.00  0.00    +0.000 C 
ATOM     25  O   UNL     1      -7.581   1.042 126.241  0.00  0.00    +0.000 OA
ENDBRANCH   1  25
BRANCH   5  26
ATOM     26  C   UNL     1      -6.607   4.128 120.375  0.00  0.00    +0.000 C 
ATOM     27  O   UNL     1      -7.616   4.158 119.668  0.00  0.00    +0.000 OA
BRANCH  26  28
ATOM     28  O   UNL     1      -5.415   4.560 119.909  0.00  0.00    +0.000 OA
ATOM     29  H   UNL     1      -5.246   4.371 118.953  0.00  0.00    +0.000 HD
ENDBRANCH  26  28
ENDBRANCH   5  26
TORSDOF 5
ENDMDL
MODEL 8
REMARK VINA RESULT:      -6.3      4.590      7.536
REMARK  Name = Gatifloxacin
REMARK  7 active torsions:
REMARK  status: ('A' for Active; 'I' for Inactive)
REMARK    1  A    between atoms: C_1  and  O_2
REMARK    2  A    between atoms: O_2  and  C_3
REMARK    3  A    between atoms: N_5  and  C_25
REMARK    4  A    between atoms: C_7  and  C_8
REMARK    5  A    between atoms: C_8  and  O_9
REMARK    6  A    between atoms: C_17  and  N_18
REMARK    7  A    between atoms: C_22  and  C_23
REMARK                            x       y       z     vdW  Elec       q    Type
REMARK                         _______ _______ _______ _____ _____    ______ ____
ROOT
ATOM      1  C   UNL     1      -7.454  -0.327 127.405  0.00  0.00    +0.000 A 
ATOM      2  C   UNL     1      -7.429   0.094 128.783  0.00  0.00    +0.000 A 
ATOM      3  N   UNL     1      -7.119   1.440 129.244  0.00  0.00    +0.000 N 
ATOM      4  C   UNL     1      -7.230   1.721 130.611  0.00  0.00    +0.000 A 
ATOM      5  C   UNL     1      -7.512   0.853 131.604  0.00  0.00    +0.000 A 
ATOM      6  C   UNL     1      -7.765  -0.545 131.207  0.00  0.00    +0.000 A 
ATOM      7  O   UNL     1      -8.008  -1.393 132.065  0.00  0.00    +0.000 OA
ATOM      8  C   UNL     1      -7.738  -0.886 129.761  0.00  0.00    +0.000 A 
ATOM      9  C   UNL     1      -8.029  -2.206 129.406  0.00  0.00    +0.000 A 
ATOM     10  C   UNL     1      -8.034  -2.572 128.064  0.00  0.00    +0.000 A 
ATOM     11  F   UNL     1      -8.260  -3.864 127.770  0.00  0.00    +0.000 F 
ATOM     12  C   UNL     1      -7.743  -1.663 127.034  0.00  0.00    +0.000 A 
ENDROOT
BRANCH  12  13
ATOM     13  N   UNL     1      -7.680  -2.082 125.719  0.00  0.00    +0.000 N 
ATOM     14  C   UNL     1      -8.782  -1.868 124.768  0.00  0.00    +0.000 C 
ATOM     15  C   UNL     1      -8.212  -1.212 123.505  0.00  0.00    +0.000 C 
ATOM     16  N   UNL     1      -7.118  -2.010 122.908  0.00  0.00    +0.000 NA
ATOM     17  C   UNL     1      -6.040  -2.215 123.913  0.00  0.00    +0.000 C 
ATOM     18  C   UNL     1      -4.945  -3.073 123.295  0.00  0.00    +0.000 C 
ATOM     19  C   UNL     1      -6.558  -2.871 125.214  0.00  0.00    +0.000 C 
ATOM     20  H   UNL     1      -6.740  -1.503 122.111  0.00  0.00    +0.000 HD
ENDBRANCH  12  13
BRANCH   3  21
ATOM     21  C   UNL     1      -7.092   2.539 128.241  0.00  0.00    +0.000 C 
ATOM     22  C   UNL     1      -7.804   3.848 128.284  0.00  0.00    +0.000 C 
ATOM     23  C   UNL     1      -6.297   3.806 128.188  0.00  0.00    +0.000 C 
ENDBRANCH   3  21
BRANCH   1  25
ATOM     24  C   UNL     1      -5.647   0.563 126.114  0.00  0.00    +0.000 C 
ATOM     25  O   UNL     1      -7.061   0.527 126.384  0.00  0.00    +0.000 OA
ENDBRANCH   1  25
BRANCH   5  26
ATOM     26  C   UNL     1      -7.563   1.295 133.020  0.00  0.00    +0.000 C 
ATOM     27  O   UNL     1      -8.270   2.229 133.403  0.00  0.00    +0.000 OA
BRANCH  26  28
ATOM     28  O   UNL     1      -6.775   0.617 133.882  0.00  0.00    +0.000 OA
ATOM     29  H   UNL     1      -6.435  -0.249 133.544  0.00  0.00    +0.000 HD
ENDBRANCH  26  28
ENDBRANCH   5  26
TORSDOF 5
ENDMDL
MODEL 9
REMARK VINA RESULT:      -6.3      3.864      5.675
REMARK  Name = Gatifloxacin
REMARK  7 active torsions:
REMARK  status: ('A' for Active; 'I' for Inactive)
REMARK    1  A    between atoms: C_1  and  O_2
REMARK    2  A    between atoms: O_2  and  C_3
REMARK    3  A    between atoms: N_5  and  C_25
REMARK    4  A    between atoms: C_7  and  C_8
REMARK    5  A    between atoms: C_8  and  O_9
REMARK    6  A    between atoms: C_17  and  N_18
REMARK    7  A    between atoms: C_22  and  C_23
REMARK                            x       y       z     vdW  Elec       q    Type
REMARK                         _______ _______ _______ _____ _____    ______ ____
ROOT
ATOM      1  C   UNL     1      -5.638  -0.051 127.329  0.00  0.00    +0.000 A 
ATOM      2  C   UNL     1      -5.990   0.838 126.251  0.00  0.00    +0.000 A 
ATOM      3  N   UNL     1      -5.565   2.225 126.135  0.00  0.00    +0.000 N 
ATOM      4  C   UNL     1      -5.909   2.936 124.979  0.00  0.00    +0.000 A 
ATOM      5  C   UNL     1      -6.685   2.513 123.960  0.00  0.00    +0.000 A 
ATOM      6  C   UNL     1      -7.207   1.137 124.055  0.00  0.00    +0.000 A 
ATOM      7  O   UNL     1      -7.938   0.696 123.170  0.00  0.00    +0.000 OA
ATOM      8  C   UNL     1      -6.811   0.308 125.223  0.00  0.00    +0.000 A 
ATOM      9  C   UNL     1      -7.278  -1.008 125.265  0.00  0.00    +0.000 A 
ATOM     10  C   UNL     1      -6.921  -1.830 126.329  0.00  0.00    +0.000 A 
ATOM     11  F   UNL     1      -7.439  -3.069 126.362  0.00  0.00    +0.000 F 
ATOM     12  C   UNL     1      -6.109  -1.386 127.385  0.00  0.00    +0.000 A 
ENDROOT
BRANCH  12  13
ATOM     13  N   UNL     1      -5.840  -2.207 128.463  0.00  0.00    +0.000 N 
ATOM     14  C   UNL     1      -4.539  -2.867 128.649  0.00  0.00    +0.000 C 
ATOM     15  C   UNL     1      -4.044  -2.572 130.070  0.00  0.00    +0.000 C 
ATOM     16  N   UNL     1      -5.023  -2.987 131.099  0.00  0.00    +0.000 NA
ATOM     17  C   UNL     1      -6.325  -2.309 130.856  0.00  0.00    +0.000 C 
ATOM     18  C   UNL     1      -7.330  -2.781 131.897  0.00  0.00    +0.000 C 
ATOM     19  C   UNL     1      -6.873  -2.568 129.433  0.00  0.00    +0.000 C 
ATOM     20  H   UNL     1      -4.670  -2.716 132.014  0.00  0.00    +0.000 HD
ENDBRANCH  12  13
BRANCH   3  21
ATOM     21  C   UNL     1      -4.473   2.705 127.026  0.00  0.00    +0.000 C 
ATOM     22  C   UNL     1      -3.030   2.889 126.703  0.00  0.00    +0.000 C 
ATOM     23  C   UNL     1      -3.854   4.058 127.187  0.00  0.00    +0.000 C 
ENDBRANCH   3  21
BRANCH   1  25
ATOM     24  C   UNL     1      -5.726   0.971 129.490  0.00  0.00    +0.000 C 
ATOM     25  O   UNL     1      -4.930   0.401 128.434  0.00  0.00    +0.000 OA
ENDBRANCH   1  25
BRANCH   5  26
ATOM     26  C   UNL     1      -6.990   3.399 122.808  0.00  0.00    +0.000 C 
ATOM     27  O   UNL     1      -6.115   3.902 122.103  0.00  0.00    +0.000 OA
BRANCH  26  28
ATOM     28  O   UNL     1      -8.299   3.636 122.573  0.00  0.00    +0.000 OA
ATOM     29  H   UNL     1      -8.770   4.130 123.290  0.00  0.00    +0.000 HD
ENDBRANCH  26  28
ENDBRANCH   5  26
TORSDOF 5
ENDMDL
